MODEL 1
REMARK VINA RESULT:      -6.2      0.000      0.000
REMARK  Name = 75536634
REMARK  8 active torsions:
REMARK  status: ('A' for Active; 'I' for Inactive)
REMARK    1  A    between atoms: O_3  and  C_8
REMARK    2  A    between atoms: N_5  and  C_7
REMARK    3  A    between atoms: N_5  and  C_12
REMARK    4  A    between atoms: N_6  and  C_11
REMARK    5  A    between atoms: C_9  and  C_11
REMARK    6  A    between atoms: C_12  and  C_13
REMARK    7  A    between atoms: C_12  and  C_14
REMARK    8  A    between atoms: C_15  and  C_16
REMARK                            x       y       z     vdW  Elec       q    Type
REMARK                         _______ _______ _______ _____ _____    ______ ____
ROOT
ATOM      2  O   UNL     1      13.129   7.880  21.970  0.00  0.00    -0.371 OA
ATOM      7  C   UNL     1      11.178   9.007  22.719  0.00  0.00    +0.111 C 
ATOM      8  C   UNL     1      10.777   7.931  21.726  0.00  0.00    +0.164 C 
ATOM      9  C   UNL     1      11.995   7.018  21.777  0.00  0.00    +0.165 C 
ATOM     10  C   UNL     1      12.658   9.165  22.410  0.00  0.00    +0.181 C 
ENDROOT
BRANCH   8   3
ATOM      3  O   UNL     1       9.594   7.254  22.104  0.00  0.00    -0.388 OA
ATOM     23  H   UNL     1       9.243   6.794  21.321  0.00  0.00    +0.210 HD
ENDBRANCH   8   3
BRANCH   7   5
ATOM      5  N   UNL     1      10.433  10.246  22.566  0.00  0.00    -0.307 NA
ATOM     22  H   UNL     1       9.573  10.208  23.111  0.00  0.00    +0.123 HD
BRANCH   5  12
ATOM     12  C   UNL     1      11.232  11.394  22.981  0.00  0.00    +0.048 C 
ATOM     13  C   UNL     1      11.046  12.531  21.981  0.00  0.00    +0.023 C 
ATOM     14  C   UNL     1      10.838  11.831  24.389  0.00  0.00    +0.023 C 
ENDBRANCH   5  12
ENDBRANCH   7   5
BRANCH   9  11
ATOM     11  C   UNL     1      12.182   6.197  20.514  0.00  0.00    +0.138 C 
BRANCH  11   6
ATOM      4  O   UNL     1      14.147   7.409  18.807  0.00  0.00    -0.270 OA
ATOM      6  N   UNL     1      11.930   6.981  19.339  0.00  0.00    -0.309 N 
ATOM     15  C   UNL     1      12.948   7.532  18.569  0.00  0.00    +0.244 C 
ATOM     24  H   UNL     1      10.958   7.180  19.126  0.00  0.00    +0.149 HD
BRANCH  15  16
ATOM      1  F   UNL     1      11.334  10.586  14.142  0.00  0.00    -0.205 F 
ATOM     16  C   UNL     1      12.521   8.340  17.397  0.00  0.00    +0.037 A 
ATOM     17  C   UNL     1      11.178   8.363  17.018  0.00  0.00    +0.016 A 
ATOM     18  C   UNL     1      13.462   9.074  16.675  0.00  0.00    +0.016 A 
ATOM     19  C   UNL     1      10.777   9.123  15.919  0.00  0.00    +0.039 A 
ATOM     20  C   UNL     1      13.061   9.833  15.576  0.00  0.00    +0.039 A 
ATOM     21  C   UNL     1      11.720   9.857  15.197  0.00  0.00    +0.123 A 
ENDBRANCH  15  16
ENDBRANCH  11   6
ENDBRANCH   9  11
TORSDOF 6
ENDMDL
MODEL 2
REMARK VINA RESULT:      -5.9      4.710      7.710
REMARK  Name = 75536634
REMARK  8 active torsions:
REMARK  status: ('A' for Active; 'I' for Inactive)
REMARK    1  A    between atoms: O_3  and  C_8
REMARK    2  A    between atoms: N_5  and  C_7
REMARK    3  A    between atoms: N_5  and  C_12
REMARK    4  A    between atoms: N_6  and  C_11
REMARK    5  A    between atoms: C_9  and  C_11
REMARK    6  A    between atoms: C_12  and  C_13
REMARK    7  A    between atoms: C_12  and  C_14
REMARK    8  A    between atoms: C_15  and  C_16
REMARK                            x       y       z     vdW  Elec       q    Type
REMARK                         _______ _______ _______ _____ _____    ______ ____
ROOT
ATOM      2  O   UNL     1      14.152  10.826  17.693  0.00  0.00    -0.371 OA
ATOM      7  C   UNL     1      14.514  10.585  15.358  0.00  0.00    +0.111 C 
ATOM      8  C   UNL     1      13.980   9.277  15.914  0.00  0.00    +0.164 C 
ATOM      9  C   UNL     1      13.330   9.751  17.207  0.00  0.00    +0.165 C 
ATOM     10  C   UNL     1      15.003  11.272  16.623  0.00  0.00    +0.181 C 
ENDROOT
BRANCH   8   3
ATOM      3  O   UNL     1      13.047   8.657  15.050  0.00  0.00    -0.388 OA
ATOM     23  H   UNL     1      12.620   7.930  15.534  0.00  0.00    +0.210 HD
ENDBRANCH   8   3
BRANCH   7   5
ATOM      5  N   UNL     1      15.563  10.412  14.367  0.00  0.00    -0.307 NA
ATOM     22  H   UNL     1      15.217   9.861  13.582  0.00  0.00    +0.123 HD
BRANCH   5  12
ATOM     12  C   UNL     1      16.053  11.700  13.891  0.00  0.00    +0.048 C 
ATOM     13  C   UNL     1      17.541  11.824  14.201  0.00  0.00    +0.023 C 
ATOM     14  C   UNL     1      15.791  11.846  12.394  0.00  0.00    +0.023 C 
ENDBRANCH   5  12
ENDBRANCH   7   5
BRANCH   9  11
ATOM     11  C   UNL     1      13.228   8.664  18.261  0.00  0.00    +0.138 C 
BRANCH  11   6
ATOM      4  O   UNL     1      13.806   6.668  20.243  0.00  0.00    -0.270 OA
ATOM      6  N   UNL     1      14.522   8.149  18.607  0.00  0.00    -0.309 N 
ATOM     15  C   UNL     1      14.709   7.178  19.584  0.00  0.00    +0.244 C 
ATOM     24  H   UNL     1      15.319   8.578  18.149  0.00  0.00    +0.149 HD
BRANCH  15  16
ATOM      1  F   UNL     1      20.018   5.630  20.561  0.00  0.00    -0.205 F 
ATOM     16  C   UNL     1      16.114   6.768  19.843  0.00  0.00    +0.037 A 
ATOM     17  C   UNL     1      16.778   5.944  18.934  0.00  0.00    +0.016 A 
ATOM     18  C   UNL     1      16.768   7.206  20.994  0.00  0.00    +0.016 A 
ATOM     19  C   UNL     1      18.097   5.560  19.176  0.00  0.00    +0.039 A 
ATOM     20  C   UNL     1      18.086   6.822  21.236  0.00  0.00    +0.039 A 
ATOM     21  C   UNL     1      18.751   5.999  20.328  0.00  0.00    +0.123 A 
ENDBRANCH  15  16
ENDBRANCH  11   6
ENDBRANCH   9  11
TORSDOF 6
ENDMDL
MODEL 3
REMARK VINA RESULT:      -5.8      3.948      5.099
REMARK  Name = 75536634
REMARK  8 active torsions:
REMARK  status: ('A' for Active; 'I' for Inactive)
REMARK    1  A    between atoms: O_3  and  C_8
REMARK    2  A    between atoms: N_5  and  C_7
REMARK    3  A    between atoms: N_5  and  C_12
REMARK    4  A    between atoms: N_6  and  C_11
REMARK    5  A    between atoms: C_9  and  C_11
REMARK    6  A    between atoms: C_12  and  C_13
REMARK    7  A    between atoms: C_12  and  C_14
REMARK    8  A    between atoms: C_15  and  C_16
REMARK                            x       y       z     vdW  Elec       q    Type
REMARK                         _______ _______ _______ _____ _____    ______ ____
ROOT
ATOM      2  O   UNL     1      10.663   8.990  21.955  0.00  0.00    -0.371 OA
ATOM      7  C   UNL     1      12.208  10.607  22.753  0.00  0.00    +0.111 C 
ATOM      8  C   UNL     1      12.951   9.586  21.912  0.00  0.00    +0.164 C 
ATOM      9  C   UNL     1      11.812   8.997  21.092  0.00  0.00    +0.165 C 
ATOM     10  C   UNL     1      10.924   9.858  23.071  0.00  0.00    +0.181 C 
ENDROOT
BRANCH   8   3
ATOM      3  O   UNL     1      13.945  10.172  21.093  0.00  0.00    -0.388 OA
ATOM     23  H   UNL     1      13.641  10.132  20.170  0.00  0.00    +0.210 HD
ENDBRANCH   8   3
BRANCH   7   5
ATOM      5  N   UNL     1      12.933  11.019  23.945  0.00  0.00    -0.307 NA
ATOM     22  H   UNL     1      13.733  10.407  24.098  0.00  0.00    +0.123 HD
BRANCH   5  12
ATOM     12  C   UNL     1      13.381  12.402  23.835  0.00  0.00    +0.048 C 
ATOM     13  C   UNL     1      14.891  12.433  23.626  0.00  0.00    +0.023 C 
ATOM     14  C   UNL     1      12.653  13.105  22.692  0.00  0.00    +0.023 C 
ENDBRANCH   5  12
ENDBRANCH   7   5
BRANCH   9  11
ATOM     11  C   UNL     1      12.093   7.590  20.597  0.00  0.00    +0.138 C 
BRANCH  11   6
ATOM      4  O   UNL     1      13.893   7.111  18.412  0.00  0.00    -0.270 OA
ATOM      6  N   UNL     1      13.489   7.273  20.691  0.00  0.00    -0.309 N 
ATOM     15  C   UNL     1      14.289   7.056  19.574  0.00  0.00    +0.244 C 
ATOM     24  H   UNL     1      13.863   7.142  21.625  0.00  0.00    +0.149 HD
BRANCH  15  16
ATOM      1  F   UNL     1      19.658   5.757  20.582  0.00  0.00    -0.205 F 
ATOM     16  C   UNL     1      15.710   6.712  19.841  0.00  0.00    +0.037 A 
ATOM     17  C   UNL     1      16.468   6.072  18.861  0.00  0.00    +0.016 A 
ATOM     18  C   UNL     1      16.285   7.028  21.072  0.00  0.00    +0.016 A 
ATOM     19  C   UNL     1      17.802   5.749  19.110  0.00  0.00    +0.039 A 
ATOM     20  C   UNL     1      17.618   6.706  21.321  0.00  0.00    +0.039 A 
ATOM     21  C   UNL     1      18.377   6.066  20.342  0.00  0.00    +0.123 A 
ENDBRANCH  15  16
ENDBRANCH  11   6
ENDBRANCH   9  11
TORSDOF 6
ENDMDL
MODEL 4
REMARK VINA RESULT:      -5.8     24.819     25.950
REMARK  Name = 75536634
REMARK  8 active torsions:
REMARK  status: ('A' for Active; 'I' for Inactive)
REMARK    1  A    between atoms: O_3  and  C_8
REMARK    2  A    between atoms: N_5  and  C_7
REMARK    3  A    between atoms: N_5  and  C_12
REMARK    4  A    between atoms: N_6  and  C_11
REMARK    5  A    between atoms: C_9  and  C_11
REMARK    6  A    between atoms: C_12  and  C_13
REMARK    7  A    between atoms: C_12  and  C_14
REMARK    8  A    between atoms: C_15  and  C_16
REMARK                            x       y       z     vdW  Elec       q    Type
REMARK                         _______ _______ _______ _____ _____    ______ ____
ROOT
ATOM      2  O   UNL     1      -1.343 -11.385  14.977  0.00  0.00    -0.371 OA
ATOM      7  C   UNL     1      -3.492 -10.941  15.887  0.00  0.00    +0.111 C 
ATOM      8  C   UNL     1      -3.573 -10.876  14.372  0.00  0.00    +0.164 C 
ATOM      9  C   UNL     1      -2.337 -11.673  13.979  0.00  0.00    +0.165 C 
ATOM     10  C   UNL     1      -1.996 -10.795  16.115  0.00  0.00    +0.181 C 
ENDROOT
BRANCH   8   3
ATOM      3  O   UNL     1      -4.759 -11.455  13.864  0.00  0.00    -0.388 OA
ATOM     23  H   UNL     1      -5.509 -11.118  14.382  0.00  0.00    +0.210 HD
ENDBRANCH   8   3
BRANCH   7   5
ATOM      5  N   UNL     1      -4.269  -9.911  16.557  0.00  0.00    -0.307 NA
ATOM     22  H   UNL     1      -4.476  -9.151  15.910  0.00  0.00    +0.123 HD
BRANCH   5  12
ATOM     12  C   UNL     1      -5.510 -10.456  17.094  0.00  0.00    +0.048 C 
ATOM     13  C   UNL     1      -5.383 -10.614  18.606  0.00  0.00    +0.023 C 
ATOM     14  C   UNL     1      -6.685  -9.552  16.734  0.00  0.00    +0.023 C 
ENDBRANCH   5  12
ENDBRANCH   7   5
BRANCH   9  11
ATOM     11  C   UNL     1      -1.803 -11.313  12.603  0.00  0.00    +0.138 C 
BRANCH  11   6
ATOM      4  O   UNL     1      -1.774  -9.140  10.727  0.00  0.00    -0.270 OA
ATOM      6  N   UNL     1      -2.865 -10.933  11.716  0.00  0.00    -0.309 N 
ATOM     15  C   UNL     1      -2.763  -9.861  10.835  0.00  0.00    +0.244 C 
ATOM     24  H   UNL     1      -3.736 -11.445  11.804  0.00  0.00    +0.149 HD
BRANCH  15  16
ATOM      1  F   UNL     1      -7.286  -8.803   7.680  0.00  0.00    -0.205 F 
ATOM     16  C   UNL     1      -3.960  -9.582  10.000  0.00  0.00    +0.037 A 
ATOM     17  C   UNL     1      -4.282 -10.427   8.938  0.00  0.00    +0.016 A 
ATOM     18  C   UNL     1      -4.759  -8.473  10.277  0.00  0.00    +0.016 A 
ATOM     19  C   UNL     1      -5.406 -10.164   8.154  0.00  0.00    +0.039 A 
ATOM     20  C   UNL     1      -5.883  -8.211   9.493  0.00  0.00    +0.039 A 
ATOM     21  C   UNL     1      -6.206  -9.055   8.432  0.00  0.00    +0.123 A 
ENDBRANCH  15  16
ENDBRANCH  11   6
ENDBRANCH   9  11
TORSDOF 6
ENDMDL
MODEL 5
REMARK VINA RESULT:      -5.7      8.202     10.196
REMARK  Name = 75536634
REMARK  8 active torsions:
REMARK  status: ('A' for Active; 'I' for Inactive)
REMARK    1  A    between atoms: O_3  and  C_8
REMARK    2  A    between atoms: N_5  and  C_7
REMARK    3  A    between atoms: N_5  and  C_12
REMARK    4  A    between atoms: N_6  and  C_11
REMARK    5  A    between atoms: C_9  and  C_11
REMARK    6  A    between atoms: C_12  and  C_13
REMARK    7  A    between atoms: C_12  and  C_14
REMARK    8  A    between atoms: C_15  and  C_16
REMARK                            x       y       z     vdW  Elec       q    Type
REMARK                         _______ _______ _______ _____ _____    ______ ____
ROOT
ATOM      2  O   UNL     1      22.500   6.350  22.351  0.00  0.00    -0.371 OA
ATOM      7  C   UNL     1      22.484   4.627  20.717  0.00  0.00    +0.111 C 
ATOM      8  C   UNL     1      21.053   5.000  21.056  0.00  0.00    +0.164 C 
ATOM      9  C   UNL     1      21.245   6.388  21.651  0.00  0.00    +0.165 C 
ATOM     10  C   UNL     1      23.234   5.195  21.911  0.00  0.00    +0.181 C 
ENDROOT
BRANCH   8   3
ATOM      3  O   UNL     1      20.211   5.025  19.919  0.00  0.00    -0.388 OA
ATOM     23  H   UNL     1      20.688   4.614  19.178  0.00  0.00    +0.210 HD
ENDBRANCH   8   3
BRANCH   7   5
ATOM      5  N   UNL     1      22.689   3.198  20.547  0.00  0.00    -0.307 NA
ATOM     22  H   UNL     1      22.396   2.909  19.615  0.00  0.00    +0.123 HD
BRANCH   5  12
ATOM     12  C   UNL     1      24.086   2.838  20.761  0.00  0.00    +0.048 C 
ATOM     13  C   UNL     1      24.171   1.393  21.242  0.00  0.00    +0.023 C 
ATOM     14  C   UNL     1      24.887   3.037  19.478  0.00  0.00    +0.023 C 
ENDBRANCH   5  12
ENDBRANCH   7   5
BRANCH   9  11
ATOM     11  C   UNL     1      20.136   6.791  22.606  0.00  0.00    +0.138 C 
BRANCH  11   6
ATOM      4  O   UNL     1      18.451   8.956  21.757  0.00  0.00    -0.270 OA
ATOM      6  N   UNL     1      18.848   6.681  21.984  0.00  0.00    -0.309 N 
ATOM     15  C   UNL     1      18.098   7.789  21.603  0.00  0.00    +0.244 C 
ATOM     24  H   UNL     1      18.465   5.746  21.893  0.00  0.00    +0.149 HD
BRANCH  15  16
ATOM      1  F   UNL     1      13.086   6.724  19.306  0.00  0.00    -0.205 F 
ATOM     16  C   UNL     1      16.772   7.507  20.995  0.00  0.00    +0.037 A 
ATOM     17  C   UNL     1      16.692   6.836  19.775  0.00  0.00    +0.016 A 
ATOM     18  C   UNL     1      15.606   7.915  21.644  0.00  0.00    +0.016 A 
ATOM     19  C   UNL     1      15.447   6.571  19.204  0.00  0.00    +0.039 A 
ATOM     20  C   UNL     1      14.361   7.650  21.073  0.00  0.00    +0.039 A 
ATOM     21  C   UNL     1      14.282   6.979  19.854  0.00  0.00    +0.123 A 
ENDBRANCH  15  16
ENDBRANCH  11   6
ENDBRANCH   9  11
TORSDOF 6
ENDMDL
MODEL 6
REMARK VINA RESULT:      -5.6     27.883     29.993
REMARK  Name = 75536634
REMARK  8 active torsions:
REMARK  status: ('A' for Active; 'I' for Inactive)
REMARK    1  A    between atoms: O_3  and  C_8
REMARK    2  A    between atoms: N_5  and  C_7
REMARK    3  A    between atoms: N_5  and  C_12
REMARK    4  A    between atoms: N_6  and  C_11
REMARK    5  A    between atoms: C_9  and  C_11
REMARK    6  A    between atoms: C_12  and  C_13
REMARK    7  A    between atoms: C_12  and  C_14
REMARK    8  A    between atoms: C_15  and  C_16
REMARK                            x       y       z     vdW  Elec       q    Type
REMARK                         _______ _______ _______ _____ _____    ______ ____
ROOT
ATOM      2  O   UNL     1     -16.547   3.300  26.710  0.00  0.00    -0.371 OA
ATOM      7  C   UNL     1     -16.576   3.101  24.343  0.00  0.00    +0.111 C 
ATOM      8  C   UNL     1     -16.526   1.713  24.956  0.00  0.00    +0.164 C 
ATOM      9  C   UNL     1     -17.039   1.995  26.362  0.00  0.00    +0.165 C 
ATOM     10  C   UNL     1     -16.114   3.961  25.508  0.00  0.00    +0.181 C 
ENDROOT
BRANCH   8   3
ATOM      3  O   UNL     1     -17.345   0.785  24.271  0.00  0.00    -0.388 OA
ATOM     23  H   UNL     1     -17.109  -0.109  24.572  0.00  0.00    +0.210 HD
ENDBRANCH   8   3
BRANCH   7   5
ATOM      5  N   UNL     1     -15.738   3.248  23.164  0.00  0.00    -0.307 NA
ATOM     22  H   UNL     1     -16.155   2.758  22.374  0.00  0.00    +0.123 HD
BRANCH   5  12
ATOM     12  C   UNL     1     -15.544   4.654  22.830  0.00  0.00    +0.048 C 
ATOM     13  C   UNL     1     -14.108   4.871  22.363  0.00  0.00    +0.023 C 
ATOM     14  C   UNL     1     -16.541   5.086  21.758  0.00  0.00    +0.023 C 
ENDBRANCH   5  12
ENDBRANCH   7   5
BRANCH   9  11
ATOM     11  C   UNL     1     -16.570   0.979  27.387  0.00  0.00    +0.138 C 
BRANCH  11   6
ATOM      4  O   UNL     1     -14.872  -0.172  29.396  0.00  0.00    -0.270 OA
ATOM      6  N   UNL     1     -16.100   1.620  28.580  0.00  0.00    -0.309 N 
ATOM     15  C   UNL     1     -15.276   0.984  29.503  0.00  0.00    +0.244 C 
ATOM     24  H   UNL     1     -16.454   2.553  28.765  0.00  0.00    +0.149 HD
BRANCH  15  16
ATOM      1  F   UNL     1     -13.841   3.979  34.031  0.00  0.00    -0.205 F 
ATOM     16  C   UNL     1     -14.896   1.777  30.701  0.00  0.00    +0.037 A 
ATOM     17  C   UNL     1     -14.544   3.120  30.566  0.00  0.00    +0.016 A 
ATOM     18  C   UNL     1     -14.890   1.177  31.960  0.00  0.00    +0.016 A 
ATOM     19  C   UNL     1     -14.189   3.864  31.691  0.00  0.00    +0.039 A 
ATOM     20  C   UNL     1     -14.534   1.922  33.085  0.00  0.00    +0.039 A 
ATOM     21  C   UNL     1     -14.183   3.264  32.951  0.00  0.00    +0.123 A 
ENDBRANCH  15  16
ENDBRANCH  11   6
ENDBRANCH   9  11
TORSDOF 6
ENDMDL
MODEL 7
REMARK VINA RESULT:      -5.5      4.575      6.347
REMARK  Name = 75536634
REMARK  8 active torsions:
REMARK  status: ('A' for Active; 'I' for Inactive)
REMARK    1  A    between atoms: O_3  and  C_8
REMARK    2  A    between atoms: N_5  and  C_7
REMARK    3  A    between atoms: N_5  and  C_12
REMARK    4  A    between atoms: N_6  and  C_11
REMARK    5  A    between atoms: C_9  and  C_11
REMARK    6  A    between atoms: C_12  and  C_13
REMARK    7  A    between atoms: C_12  and  C_14
REMARK    8  A    between atoms: C_15  and  C_16
REMARK                            x       y       z     vdW  Elec       q    Type
REMARK                         _______ _______ _______ _____ _____    ______ ____
ROOT
ATOM      2  O   UNL     1      13.516  11.589  21.137  0.00  0.00    -0.371 OA
ATOM      7  C   UNL     1      12.057   9.827  20.500  0.00  0.00    +0.111 C 
ATOM      8  C   UNL     1      13.082   9.290  21.483  0.00  0.00    +0.164 C 
ATOM      9  C   UNL     1      13.544  10.575  22.156  0.00  0.00    +0.165 C 
ATOM     10  C   UNL     1      12.730  11.108  20.034  0.00  0.00    +0.181 C 
ENDROOT
BRANCH   8   3
ATOM      3  O   UNL     1      12.524   8.379  22.410  0.00  0.00    -0.388 OA
ATOM     23  H   UNL     1      13.167   8.240  23.126  0.00  0.00    +0.210 HD
ENDBRANCH   8   3
BRANCH   7   5
ATOM      5  N   UNL     1      11.762   8.913  19.409  0.00  0.00    -0.307 NA
ATOM     22  H   UNL     1      10.863   9.147  18.988  0.00  0.00    +0.123 HD
BRANCH   5  12
ATOM     12  C   UNL     1      12.809   8.950  18.395  0.00  0.00    +0.048 C 
ATOM     13  C   UNL     1      13.576   7.632  18.408  0.00  0.00    +0.023 C 
ATOM     14  C   UNL     1      12.204   9.220  17.020  0.00  0.00    +0.023 C 
ENDBRANCH   5  12
ENDBRANCH   7   5
BRANCH   9  11
ATOM     11  C   UNL     1      14.939  10.476  22.745  0.00  0.00    +0.138 C 
BRANCH  11   6
ATOM      4  O   UNL     1      17.607  10.485  21.684  0.00  0.00    -0.270 OA
ATOM      6  N   UNL     1      15.652   9.352  22.212  0.00  0.00    -0.309 N 
ATOM     15  C   UNL     1      16.948   9.448  21.717  0.00  0.00    +0.244 C 
ATOM     24  H   UNL     1      15.140   8.479  22.144  0.00  0.00    +0.149 HD
BRANCH  15  16
ATOM      1  F   UNL     1      19.180   4.719  19.668  0.00  0.00    -0.205 F 
ATOM     16  C   UNL     1      17.539   8.197  21.175  0.00  0.00    +0.037 A 
ATOM     17  C   UNL     1      18.806   7.786  21.590  0.00  0.00    +0.016 A 
ATOM     18  C   UNL     1      16.828   7.433  20.249  0.00  0.00    +0.016 A 
ATOM     19  C   UNL     1      19.360   6.611  21.082  0.00  0.00    +0.039 A 
ATOM     20  C   UNL     1      17.382   6.259  19.741  0.00  0.00    +0.039 A 
ATOM     21  C   UNL     1      18.648   5.848  20.156  0.00  0.00    +0.123 A 
ENDBRANCH  15  16
ENDBRANCH  11   6
ENDBRANCH   9  11
TORSDOF 6
ENDMDL
MODEL 8
REMARK VINA RESULT:      -5.5     25.289     26.139
REMARK  Name = 75536634
REMARK  8 active torsions:
REMARK  status: ('A' for Active; 'I' for Inactive)
REMARK    1  A    between atoms: O_3  and  C_8
REMARK    2  A    between atoms: N_5  and  C_7
REMARK    3  A    between atoms: N_5  and  C_12
REMARK    4  A    between atoms: N_6  and  C_11
REMARK    5  A    between atoms: C_9  and  C_11
REMARK    6  A    between atoms: C_12  and  C_13
REMARK    7  A    between atoms: C_12  and  C_14
REMARK    8  A    between atoms: C_15  and  C_16
REMARK                            x       y       z     vdW  Elec       q    Type
REMARK                         _______ _______ _______ _____ _____    ______ ____
ROOT
ATOM      2  O   UNL     1      -4.469 -10.426  14.733  0.00  0.00    -0.371 OA
ATOM      7  C   UNL     1      -4.050 -10.497  17.070  0.00  0.00    +0.111 C 
ATOM      8  C   UNL     1      -2.974 -11.289  16.350  0.00  0.00    +0.164 C 
ATOM      9  C   UNL     1      -3.077 -10.712  14.945  0.00  0.00    +0.165 C 
ATOM     10  C   UNL     1      -5.136 -10.429  16.008  0.00  0.00    +0.181 C 
ENDROOT
BRANCH   8   3
ATOM      3  O   UNL     1      -1.689 -11.096  16.909  0.00  0.00    -0.388 OA
ATOM     23  H   UNL     1      -1.784 -11.015  17.873  0.00  0.00    +0.210 HD
ENDBRANCH   8   3
BRANCH   7   5
ATOM      5  N   UNL     1      -4.504 -11.118  18.304  0.00  0.00    -0.307 NA
ATOM     22  H   UNL     1      -4.176 -10.584  19.107  0.00  0.00    +0.123 HD
BRANCH   5  12
ATOM     12  C   UNL     1      -5.959 -11.219  18.337  0.00  0.00    +0.048 C 
ATOM     13  C   UNL     1      -6.365 -12.686  18.419  0.00  0.00    +0.023 C 
ATOM     14  C   UNL     1      -6.517 -10.428  19.517  0.00  0.00    +0.023 C 
ENDBRANCH   5  12
ENDBRANCH   7   5
BRANCH   9  11
ATOM     11  C   UNL     1      -2.577 -11.660  13.869  0.00  0.00    +0.138 C 
BRANCH  11   6
ATOM      4  O   UNL     1      -1.567  -9.985  11.768  0.00  0.00    -0.270 OA
ATOM      6  N   UNL     1      -3.207 -11.395  12.608  0.00  0.00    -0.309 N 
ATOM     15  C   UNL     1      -2.642 -10.567  11.644  0.00  0.00    +0.244 C 
ATOM     24  H   UNL     1      -4.131 -11.789  12.470  0.00  0.00    +0.149 HD
BRANCH  15  16
ATOM      1  F   UNL     1      -5.625  -9.835   6.943  0.00  0.00    -0.205 F 
ATOM     16  C   UNL     1      -3.431 -10.373  10.400  0.00  0.00    +0.037 A 
ATOM     17  C   UNL     1      -3.928 -11.479   9.710  0.00  0.00    +0.016 A 
ATOM     18  C   UNL     1      -3.674  -9.086   9.921  0.00  0.00    +0.016 A 
ATOM     19  C   UNL     1      -4.669 -11.298   8.542  0.00  0.00    +0.039 A 
ATOM     20  C   UNL     1      -4.415  -8.904   8.754  0.00  0.00    +0.039 A 
ATOM     21  C   UNL     1      -4.912 -10.009   8.064  0.00  0.00    +0.123 A 
ENDBRANCH  15  16
ENDBRANCH  11   6
ENDBRANCH   9  11
TORSDOF 6
ENDMDL
MODEL 9
REMARK VINA RESULT:      -5.5     25.000     26.302
REMARK  Name = 75536634
REMARK  8 active torsions:
REMARK  status: ('A' for Active; 'I' for Inactive)
REMARK    1  A    between atoms: O_3  and  C_8
REMARK    2  A    between atoms: N_5  and  C_7
REMARK    3  A    between atoms: N_5  and  C_12
REMARK    4  A    between atoms: N_6  and  C_11
REMARK    5  A    between atoms: C_9  and  C_11
REMARK    6  A    between atoms: C_12  and  C_13
REMARK    7  A    between atoms: C_12  and  C_14
REMARK    8  A    between atoms: C_15  and  C_16
REMARK                            x       y       z     vdW  Elec       q    Type
REMARK                         _______ _______ _______ _____ _____    ______ ____
ROOT
ATOM      2  O   UNL     1      -4.705 -12.060  18.573  0.00  0.00    -0.371 OA
ATOM      7  C   UNL     1      -6.902 -11.166  18.450  0.00  0.00    +0.111 C 
ATOM      8  C   UNL     1      -6.017 -10.444  17.449  0.00  0.00    +0.164 C 
ATOM      9  C   UNL     1      -4.883 -11.447  17.285  0.00  0.00    +0.165 C 
ATOM     10  C   UNL     1      -5.867 -11.786  19.375  0.00  0.00    +0.181 C 
ENDROOT
BRANCH   8   3
ATOM      3  O   UNL     1      -6.676 -10.186  16.224  0.00  0.00    -0.388 OA
ATOM     23  H   UNL     1      -6.035  -9.789  15.611  0.00  0.00    +0.210 HD
ENDBRANCH   8   3
BRANCH   7   5
ATOM      5  N   UNL     1      -7.830 -10.289  19.145  0.00  0.00    -0.307 NA
ATOM     22  H   UNL     1      -7.635  -9.317  18.913  0.00  0.00    +0.123 HD
BRANCH   5  12
ATOM     12  C   UNL     1      -9.211 -10.613  18.808  0.00  0.00    +0.048 C 
ATOM     13  C   UNL     1      -9.763  -9.558  17.855  0.00  0.00    +0.023 C 
ATOM     14  C   UNL     1      -9.293 -12.006  18.191  0.00  0.00    +0.023 C 
ENDBRANCH   5  12
ENDBRANCH   7   5
BRANCH   9  11
ATOM     11  C   UNL     1      -3.581 -10.811  16.834  0.00  0.00    +0.138 C 
BRANCH  11   6
ATOM      4  O   UNL     1      -1.991 -11.893  14.702  0.00  0.00    -0.270 OA
ATOM      6  N   UNL     1      -3.635 -10.437  15.450  0.00  0.00    -0.309 N 
ATOM     15  C   UNL     1      -2.824 -11.017  14.481  0.00  0.00    +0.244 C 
ATOM     24  H   UNL     1      -4.252  -9.668  15.211  0.00  0.00    +0.149 HD
BRANCH  15  16
ATOM      1  F   UNL     1      -3.426  -9.070   9.248  0.00  0.00    -0.205 F 
ATOM     16  C   UNL     1      -2.983 -10.502  13.096  0.00  0.00    +0.037 A 
ATOM     17  C   UNL     1      -1.857 -10.176  12.339  0.00  0.00    +0.016 A 
ATOM     18  C   UNL     1      -4.258 -10.342  12.554  0.00  0.00    +0.016 A 
ATOM     19  C   UNL     1      -2.007  -9.693  11.039  0.00  0.00    +0.039 A 
ATOM     20  C   UNL     1      -4.408  -9.859  11.254  0.00  0.00    +0.039 A 
ATOM     21  C   UNL     1      -3.283  -9.534  10.497  0.00  0.00    +0.123 A 
ENDBRANCH  15  16
ENDBRANCH  11   6
ENDBRANCH   9  11
TORSDOF 6
ENDMDL
MODEL 10
REMARK VINA RESULT:      -5.5     25.615     27.132
REMARK  Name = 75536634
REMARK  8 active torsions:
REMARK  status: ('A' for Active; 'I' for Inactive)
REMARK    1  A    between atoms: O_3  and  C_8
REMARK    2  A    between atoms: N_5  and  C_7
REMARK    3  A    between atoms: N_5  and  C_12
REMARK    4  A    between atoms: N_6  and  C_11
REMARK    5  A    between atoms: C_9  and  C_11
REMARK    6  A    between atoms: C_12  and  C_13
REMARK    7  A    between atoms: C_12  and  C_14
REMARK    8  A    between atoms: C_15  and  C_16
REMARK                            x       y       z     vdW  Elec       q    Type
REMARK                         _______ _______ _______ _____ _____    ______ ____
ROOT
ATOM      2  O   UNL     1      -7.427 -13.123  19.158  0.00  0.00    -0.371 OA
ATOM      7  C   UNL     1      -8.985 -11.344  19.376  0.00  0.00    +0.111 C 
ATOM      8  C   UNL     1      -7.587 -10.765  19.257  0.00  0.00    +0.164 C 
ATOM      9  C   UNL     1      -6.842 -11.928  18.615  0.00  0.00    +0.165 C 
ATOM     10  C   UNL     1      -8.683 -12.782  19.768  0.00  0.00    +0.181 C 
ENDROOT
BRANCH   8   3
ATOM      3  O   UNL     1      -7.544  -9.602  18.454  0.00  0.00    -0.388 OA
ATOM     23  H   UNL     1      -7.118  -9.829  17.610  0.00  0.00    +0.210 HD
ENDBRANCH   8   3
BRANCH   7   5
ATOM      5  N   UNL     1      -9.820 -10.656  20.347  0.00  0.00    -0.307 NA
ATOM     22  H   UNL     1      -9.255 -10.018  20.906  0.00  0.00    +0.123 HD
BRANCH   5  12
ATOM     12  C   UNL     1     -10.894  -9.921  19.689  0.00  0.00    +0.048 C 
ATOM     13  C   UNL     1     -11.108 -10.480  18.286  0.00  0.00    +0.023 C 
ATOM     14  C   UNL     1     -12.175 -10.005  20.515  0.00  0.00    +0.023 C 
ENDBRANCH   5  12
ENDBRANCH   7   5
BRANCH   9  11
ATOM     11  C   UNL     1      -5.350 -11.912  18.893  0.00  0.00    +0.138 C 
BRANCH  11   6
ATOM      4  O   UNL     1      -4.962  -9.542  17.318  0.00  0.00    -0.270 OA
ATOM      6  N   UNL     1      -4.594 -11.805  17.678  0.00  0.00    -0.309 N 
ATOM     15  C   UNL     1      -4.459 -10.610  16.978  0.00  0.00    +0.244 C 
ATOM     24  H   UNL     1      -4.211 -12.666  17.304  0.00  0.00    +0.149 HD
BRANCH  15  16
ATOM      1  F   UNL     1      -1.459 -10.838  12.237  0.00  0.00    -0.205 F 
ATOM     16  C   UNL     1      -3.665 -10.670  15.723  0.00  0.00    +0.037 A 
ATOM     17  C   UNL     1      -2.271 -10.679  15.780  0.00  0.00    +0.016 A 
ATOM     18  C   UNL     1      -4.313 -10.716  14.489  0.00  0.00    +0.016 A 
ATOM     19  C   UNL     1      -1.526 -10.737  14.602  0.00  0.00    +0.039 A 
ATOM     20  C   UNL     1      -3.568 -10.773  13.312  0.00  0.00    +0.039 A 
ATOM     21  C   UNL     1      -2.175 -10.782  13.368  0.00  0.00    +0.123 A 
ENDBRANCH  15  16
ENDBRANCH  11   6
ENDBRANCH   9  11
TORSDOF 6
ENDMDL
