MODEL 1
REMARK VINA RESULT:      -7.5      0.000      0.000
REMARK  Name = 11884452
REMARK  6 active torsions:
REMARK  status: ('A' for Active; 'I' for Inactive)
REMARK    1  A    between atoms: S_1  and  N_8
REMARK    2  A    between atoms: S_1  and  C_22
REMARK    3  A    between atoms: O_7  and  C_32
REMARK    4  A    between atoms: O_7  and  C_33
REMARK    5  A    between atoms: N_10  and  C_20
REMARK    6  A    between atoms: C_26  and  C_27
REMARK                            x       y       z     vdW  Elec       q    Type
REMARK                         _______ _______ _______ _____ _____    ______ ____
ROOT
ATOM      5  O   UNL     1     -10.307  -9.209  13.776  0.00  0.00    -0.266 OA
ATOM      8  N   UNL     1     -13.071  -5.283  12.448  0.00  0.00    -0.175 NA
ATOM      9  N   UNL     1     -12.062  -7.721  14.188  0.00  0.00    -0.310 N 
ATOM     11  C   UNL     1     -14.112  -7.541  12.666  0.00  0.00    +0.025 C 
ATOM     12  C   UNL     1     -13.927  -6.090  14.638  0.00  0.00    +0.052 C 
ATOM     13  C   UNL     1     -14.835  -7.092  13.930  0.00  0.00    +0.017 C 
ATOM     14  C   UNL     1     -13.845  -6.343  11.741  0.00  0.00    +0.114 C 
ATOM     15  C   UNL     1     -13.706  -4.865  13.734  0.00  0.00    +0.119 C 
ATOM     16  C   UNL     1     -12.825  -8.275  13.061  0.00  0.00    +0.130 C 
ATOM     17  C   UNL     1     -12.598  -6.723  15.006  0.00  0.00    +0.026 A 
ATOM     18  C   UNL     1     -11.930  -6.312  16.097  0.00  0.00    +0.024 A 
ATOM     19  C   UNL     1     -10.812  -8.317  14.459  0.00  0.00    +0.273 A 
ATOM     20  C   UNL     1     -10.090  -7.815  15.670  0.00  0.00    +0.099 A 
ATOM     21  C   UNL     1     -10.650  -6.870  16.432  0.00  0.00    +0.030 A 
ENDROOT
BRANCH  20  10
ATOM      6  O   UNL     1      -9.506  -9.595  17.823  0.00  0.00    -0.270 OA
ATOM     10  N   UNL     1      -8.871  -8.356  15.960  0.00  0.00    -0.277 N 
ATOM     26  C   UNL     1      -8.652  -9.218  17.024  0.00  0.00    +0.248 C 
ATOM     34  H   UNL     1      -8.093  -7.973  15.433  0.00  0.00    +0.155 HD
BRANCH  26  27
ATOM     27  C   UNL     1      -7.262  -9.725  17.167  0.00  0.00    +0.037 A 
ATOM     28  C   UNL     1      -6.893 -10.331  18.349  0.00  0.00    +0.016 A 
ATOM     29  C   UNL     1      -6.386  -9.573  16.112  0.00  0.00    +0.016 A 
ATOM     30  C   UNL     1      -5.588 -10.807  18.484  0.00  0.00    +0.046 A 
ATOM     31  C   UNL     1      -5.082 -10.050  16.247  0.00  0.00    +0.046 A 
ATOM     32  C   UNL     1      -4.683 -10.667  17.432  0.00  0.00    +0.120 A 
BRANCH  32   7
ATOM      7  O   UNL     1      -3.411 -11.133  17.562  0.00  0.00    -0.495 OA
ATOM     33  C   UNL     1      -2.549 -10.994  16.434  0.00  0.00    +0.277 C 
ENDBRANCH  32   7
ENDBRANCH  26  27
ENDBRANCH  20  10
BRANCH   8   1
ATOM      1  S   UNL     1     -12.488  -4.011  11.462  0.00  0.00    +0.067 S 
ATOM      3  O   UNL     1     -11.680  -4.569  10.398  0.00  0.00    -0.152 OA
ATOM      4  O   UNL     1     -11.977  -2.954  12.309  0.00  0.00    -0.152 OA
BRANCH   1  22
ATOM      2  S   UNL     1     -14.108  -3.646   9.056  0.00  0.00    -0.077 S 
ATOM     22  C   UNL     1     -14.004  -3.452  10.751  0.00  0.00    +0.143 A 
ATOM     23  C   UNL     1     -15.134  -2.884  11.284  0.00  0.00    +0.036 A 
ATOM     24  C   UNL     1     -16.108  -2.601  10.284  0.00  0.00    +0.010 A 
ATOM     25  C   UNL     1     -15.679  -2.966   9.026  0.00  0.00    +0.047 A 
ENDBRANCH   1  22
ENDBRANCH   8   1
TORSDOF 5
ENDMDL
MODEL 2
REMARK VINA RESULT:      -7.2      7.216     11.156
REMARK  Name = 11884452
REMARK  6 active torsions:
REMARK  status: ('A' for Active; 'I' for Inactive)
REMARK    1  A    between atoms: S_1  and  N_8
REMARK    2  A    between atoms: S_1  and  C_22
REMARK    3  A    between atoms: O_7  and  C_32
REMARK    4  A    between atoms: O_7  and  C_33
REMARK    5  A    between atoms: N_10  and  C_20
REMARK    6  A    between atoms: C_26  and  C_27
REMARK                            x       y       z     vdW  Elec       q    Type
REMARK                         _______ _______ _______ _____ _____    ______ ____
ROOT
ATOM      5  O   UNL     1      -6.668 -10.316  14.326  0.00  0.00    -0.266 OA
ATOM      8  N   UNL     1      -2.679 -13.116  13.293  0.00  0.00    -0.175 NA
ATOM      9  N   UNL     1      -4.351 -10.619  14.274  0.00  0.00    -0.310 N 
ATOM     11  C   UNL     1      -3.046 -10.955  12.097  0.00  0.00    +0.025 C 
ATOM     12  C   UNL     1      -1.858 -10.971  14.245  0.00  0.00    +0.052 C 
ATOM     13  C   UNL     1      -1.887 -10.329  12.861  0.00  0.00    +0.017 C 
ATOM     14  C   UNL     1      -2.845 -12.474  11.958  0.00  0.00    +0.114 C 
ATOM     15  C   UNL     1      -1.599 -12.482  14.108  0.00  0.00    +0.119 C 
ATOM     16  C   UNL     1      -4.360 -10.601  12.805  0.00  0.00    +0.130 C 
ATOM     17  C   UNL     1      -3.155 -10.721  14.990  0.00  0.00    +0.026 A 
ATOM     18  C   UNL     1      -3.160 -10.622  16.330  0.00  0.00    +0.024 A 
ATOM     19  C   UNL     1      -5.592 -10.427  14.916  0.00  0.00    +0.273 A 
ATOM     20  C   UNL     1      -5.557 -10.345  16.410  0.00  0.00    +0.099 A 
ATOM     21  C   UNL     1      -4.387 -10.431  17.052  0.00  0.00    +0.030 A 
ENDROOT
BRANCH  20  10
ATOM      6  O   UNL     1      -7.167 -12.407  17.551  0.00  0.00    -0.270 OA
ATOM     10  N   UNL     1      -6.738 -10.172  17.071  0.00  0.00    -0.277 N 
ATOM     26  C   UNL     1      -7.476 -11.219  17.604  0.00  0.00    +0.248 C 
ATOM     34  H   UNL     1      -7.126  -9.236  17.021  0.00  0.00    +0.155 HD
BRANCH  26  27
ATOM     27  C   UNL     1      -8.726 -10.833  18.308  0.00  0.00    +0.037 A 
ATOM     28  C   UNL     1      -9.491  -9.807  17.795  0.00  0.00    +0.016 A 
ATOM     29  C   UNL     1      -9.082 -11.515  19.454  0.00  0.00    +0.016 A 
ATOM     30  C   UNL     1     -10.664  -9.444  18.457  0.00  0.00    +0.046 A 
ATOM     31  C   UNL     1     -10.256 -11.153  20.115  0.00  0.00    +0.046 A 
ATOM     32  C   UNL     1     -11.047 -10.118  19.617  0.00  0.00    +0.120 A 
BRANCH  32   7
ATOM      7  O   UNL     1     -12.193  -9.766  20.261  0.00  0.00    -0.495 OA
ATOM     33  C   UNL     1     -12.967 -10.819  20.832  0.00  0.00    +0.277 C 
ENDBRANCH  32   7
ENDBRANCH  26  27
ENDBRANCH  20  10
BRANCH   8   1
ATOM      1  S   UNL     1      -2.702 -14.827  13.298  0.00  0.00    +0.067 S 
ATOM      3  O   UNL     1      -1.347 -15.318  13.427  0.00  0.00    -0.152 OA
ATOM      4  O   UNL     1      -3.564 -15.290  12.231  0.00  0.00    -0.152 OA
BRANCH   1  22
ATOM      2  S   UNL     1      -3.099 -16.584  15.601  0.00  0.00    -0.077 S 
ATOM     22  C   UNL     1      -3.529 -15.120  14.830  0.00  0.00    +0.143 A 
ATOM     23  C   UNL     1      -4.460 -14.405  15.542  0.00  0.00    +0.036 A 
ATOM     24  C   UNL     1      -4.830 -15.070  16.747  0.00  0.00    +0.010 A 
ATOM     25  C   UNL     1      -4.165 -16.267  16.903  0.00  0.00    +0.047 A 
ENDBRANCH   1  22
ENDBRANCH   8   1
TORSDOF 5
ENDMDL
MODEL 3
REMARK VINA RESULT:      -7.1      1.507      2.049
REMARK  Name = 11884452
REMARK  6 active torsions:
REMARK  status: ('A' for Active; 'I' for Inactive)
REMARK    1  A    between atoms: S_1  and  N_8
REMARK    2  A    between atoms: S_1  and  C_22
REMARK    3  A    between atoms: O_7  and  C_32
REMARK    4  A    between atoms: O_7  and  C_33
REMARK    5  A    between atoms: N_10  and  C_20
REMARK    6  A    between atoms: C_26  and  C_27
REMARK                            x       y       z     vdW  Elec       q    Type
REMARK                         _______ _______ _______ _____ _____    ______ ____
ROOT
ATOM      5  O   UNL     1     -10.487  -9.179  13.664  0.00  0.00    -0.266 OA
ATOM      8  N   UNL     1     -13.370  -5.288  12.490  0.00  0.00    -0.175 NA
ATOM      9  N   UNL     1     -12.254  -7.730  14.158  0.00  0.00    -0.310 N 
ATOM     11  C   UNL     1     -14.360  -7.569  12.712  0.00  0.00    +0.025 C 
ATOM     12  C   UNL     1     -14.132  -6.142  14.697  0.00  0.00    +0.052 C 
ATOM     13  C   UNL     1     -15.045  -7.151  14.006  0.00  0.00    +0.017 C 
ATOM     14  C   UNL     1     -14.148  -6.353  11.795  0.00  0.00    +0.114 C 
ATOM     15  C   UNL     1     -13.966  -4.900  13.803  0.00  0.00    +0.119 C 
ATOM     16  C   UNL     1     -13.046  -8.283  13.051  0.00  0.00    +0.130 C 
ATOM     17  C   UNL     1     -12.780  -6.754  15.009  0.00  0.00    +0.026 A 
ATOM     18  C   UNL     1     -12.081  -6.345  16.081  0.00  0.00    +0.024 A 
ATOM     19  C   UNL     1     -10.984  -8.306  14.376  0.00  0.00    +0.273 A 
ATOM     20  C   UNL     1     -10.229  -7.806  15.568  0.00  0.00    +0.099 A 
ATOM     21  C   UNL     1     -10.780  -6.883  16.363  0.00  0.00    +0.030 A 
ENDROOT
BRANCH  20  10
ATOM      6  O   UNL     1      -9.531  -9.584  17.689  0.00  0.00    -0.270 OA
ATOM     10  N   UNL     1      -8.991  -8.328  15.807  0.00  0.00    -0.277 N 
ATOM     26  C   UNL     1      -8.715  -9.190  16.859  0.00  0.00    +0.248 C 
ATOM     34  H   UNL     1      -8.242  -7.930  15.252  0.00  0.00    +0.155 HD
BRANCH  26  27
ATOM     27  C   UNL     1      -7.313  -9.674  16.945  0.00  0.00    +0.037 A 
ATOM     28  C   UNL     1      -6.847 -10.155  18.150  0.00  0.00    +0.016 A 
ATOM     29  C   UNL     1      -6.522  -9.627  15.815  0.00  0.00    +0.016 A 
ATOM     30  C   UNL     1      -5.530 -10.609  18.230  0.00  0.00    +0.046 A 
ATOM     31  C   UNL     1      -5.206 -10.082  15.895  0.00  0.00    +0.046 A 
ATOM     32  C   UNL     1      -4.710 -10.573  17.102  0.00  0.00    +0.120 A 
BRANCH  32   7
ATOM      7  O   UNL     1      -3.426 -11.019  17.181  0.00  0.00    -0.495 OA
ATOM     33  C   UNL     1      -2.618 -10.880  16.013  0.00  0.00    +0.277 C 
ENDBRANCH  32   7
ENDBRANCH  26  27
ENDBRANCH  20  10
BRANCH   8   1
ATOM      1  S   UNL     1     -12.846  -3.992  11.503  0.00  0.00    +0.067 S 
ATOM      3  O   UNL     1     -12.016  -3.104  12.290  0.00  0.00    -0.152 OA
ATOM      4  O   UNL     1     -13.974  -3.486  10.751  0.00  0.00    -0.152 OA
BRANCH   1  22
ATOM      2  S   UNL     1     -10.943  -3.863   9.287  0.00  0.00    -0.077 S 
ATOM     22  C   UNL     1     -11.793  -4.861  10.384  0.00  0.00    +0.143 A 
ATOM     23  C   UNL     1     -11.510  -6.193  10.209  0.00  0.00    +0.036 A 
ATOM     24  C   UNL     1     -10.577  -6.402   9.153  0.00  0.00    +0.010 A 
ATOM     25  C   UNL     1     -10.186  -5.219   8.566  0.00  0.00    +0.047 A 
ENDBRANCH   1  22
ENDBRANCH   8   1
TORSDOF 5
ENDMDL
MODEL 4
REMARK VINA RESULT:      -7.1      7.948     12.274
REMARK  Name = 11884452
REMARK  6 active torsions:
REMARK  status: ('A' for Active; 'I' for Inactive)
REMARK    1  A    between atoms: S_1  and  N_8
REMARK    2  A    between atoms: S_1  and  C_22
REMARK    3  A    between atoms: O_7  and  C_32
REMARK    4  A    between atoms: O_7  and  C_33
REMARK    5  A    between atoms: N_10  and  C_20
REMARK    6  A    between atoms: C_26  and  C_27
REMARK                            x       y       z     vdW  Elec       q    Type
REMARK                         _______ _______ _______ _____ _____    ______ ____
ROOT
ATOM      5  O   UNL     1      -4.723 -12.617   8.895  0.00  0.00    -0.266 OA
ATOM      8  N   UNL     1      -4.478 -11.583  13.763  0.00  0.00    -0.175 NA
ATOM      9  N   UNL     1      -3.573 -11.757  10.739  0.00  0.00    -0.310 N 
ATOM     11  C   UNL     1      -2.877 -13.200  12.736  0.00  0.00    +0.025 C 
ATOM     12  C   UNL     1      -2.357 -10.800  12.727  0.00  0.00    +0.052 C 
ATOM     13  C   UNL     1      -1.748 -12.190  12.892  0.00  0.00    +0.017 C 
ATOM     14  C   UNL     1      -3.954 -12.977  13.811  0.00  0.00    +0.114 C 
ATOM     15  C   UNL     1      -3.395 -10.556  13.837  0.00  0.00    +0.119 C 
ATOM     16  C   UNL     1      -3.441 -13.102  11.313  0.00  0.00    +0.130 C 
ATOM     17  C   UNL     1      -2.998 -10.644  11.360  0.00  0.00    +0.026 A 
ATOM     18  C   UNL     1      -3.033  -9.442  10.762  0.00  0.00    +0.024 A 
ATOM     19  C   UNL     1      -4.216 -11.663   9.487  0.00  0.00    +0.273 A 
ATOM     20  C   UNL     1      -4.255 -10.302   8.865  0.00  0.00    +0.099 A 
ATOM     21  C   UNL     1      -3.676  -9.271   9.489  0.00  0.00    +0.030 A 
ENDROOT
BRANCH  20  10
ATOM      6  O   UNL     1      -6.989  -9.596   8.454  0.00  0.00    -0.270 OA
ATOM     10  N   UNL     1      -4.879 -10.167   7.659  0.00  0.00    -0.277 N 
ATOM     26  C   UNL     1      -6.216  -9.820   7.526  0.00  0.00    +0.248 C 
ATOM     34  H   UNL     1      -4.342 -10.481   6.858  0.00  0.00    +0.155 HD
BRANCH  26  27
ATOM     27  C   UNL     1      -6.714  -9.698   6.131  0.00  0.00    +0.037 A 
ATOM     28  C   UNL     1      -7.317  -8.521   5.740  0.00  0.00    +0.016 A 
ATOM     29  C   UNL     1      -6.556 -10.765   5.272  0.00  0.00    +0.016 A 
ATOM     30  C   UNL     1      -7.785  -8.406   4.431  0.00  0.00    +0.046 A 
ATOM     31  C   UNL     1      -7.023 -10.650   3.962  0.00  0.00    +0.046 A 
ATOM     32  C   UNL     1      -7.637  -9.470   3.542  0.00  0.00    +0.120 A 
BRANCH  32   7
ATOM      7  O   UNL     1      -8.091  -9.357   2.264  0.00  0.00    -0.495 OA
ATOM     33  C   UNL     1      -8.101  -8.051   1.691  0.00  0.00    +0.277 C 
ENDBRANCH  32   7
ENDBRANCH  26  27
ENDBRANCH  20  10
BRANCH   8   1
ATOM      1  S   UNL     1      -5.856 -11.276  14.731  0.00  0.00    +0.067 S 
ATOM      3  O   UNL     1      -6.860 -12.283  14.457  0.00  0.00    -0.152 OA
ATOM      4  O   UNL     1      -6.176  -9.866  14.662  0.00  0.00    -0.152 OA
BRANCH   1  22
ATOM      2  S   UNL     1      -5.772 -13.033  17.067  0.00  0.00    -0.077 S 
ATOM     22  C   UNL     1      -5.188 -11.604  16.332  0.00  0.00    +0.143 A 
ATOM     23  C   UNL     1      -4.282 -10.940  17.121  0.00  0.00    +0.036 A 
ATOM     24  C   UNL     1      -4.061 -11.615  18.356  0.00  0.00    +0.010 A 
ATOM     25  C   UNL     1      -4.808 -12.768  18.457  0.00  0.00    +0.047 A 
ENDBRANCH   1  22
ENDBRANCH   8   1
TORSDOF 5
ENDMDL
MODEL 5
REMARK VINA RESULT:      -6.8      6.384     11.364
REMARK  Name = 11884452
REMARK  6 active torsions:
REMARK  status: ('A' for Active; 'I' for Inactive)
REMARK    1  A    between atoms: S_1  and  N_8
REMARK    2  A    between atoms: S_1  and  C_22
REMARK    3  A    between atoms: O_7  and  C_32
REMARK    4  A    between atoms: O_7  and  C_33
REMARK    5  A    between atoms: N_10  and  C_20
REMARK    6  A    between atoms: C_26  and  C_27
REMARK                            x       y       z     vdW  Elec       q    Type
REMARK                         _______ _______ _______ _____ _____    ______ ____
ROOT
ATOM      5  O   UNL     1      -5.480 -12.369  10.321  0.00  0.00    -0.266 OA
ATOM      8  N   UNL     1      -3.581 -12.145  14.921  0.00  0.00    -0.175 NA
ATOM      9  N   UNL     1      -3.644 -12.260  11.763  0.00  0.00    -0.310 N 
ATOM     11  C   UNL     1      -3.098 -14.105  13.453  0.00  0.00    +0.025 C 
ATOM     12  C   UNL     1      -1.675 -12.108  13.325  0.00  0.00    +0.052 C 
ATOM     13  C   UNL     1      -1.659 -13.634  13.288  0.00  0.00    +0.017 C 
ATOM     14  C   UNL     1      -3.673 -13.627  14.797  0.00  0.00    +0.114 C 
ATOM     15  C   UNL     1      -2.197 -11.630  14.692  0.00  0.00    +0.119 C 
ATOM     16  C   UNL     1      -3.923 -13.616  12.256  0.00  0.00    +0.130 C 
ATOM     17  C   UNL     1      -2.529 -11.544  12.206  0.00  0.00    +0.026 A 
ATOM     18  C   UNL     1      -2.230 -10.353  11.659  0.00  0.00    +0.024 A 
ATOM     19  C   UNL     1      -4.496 -11.767  10.753  0.00  0.00    +0.273 A 
ATOM     20  C   UNL     1      -4.142 -10.427  10.187  0.00  0.00    +0.099 A 
ATOM     21  C   UNL     1      -3.056  -9.786  10.630  0.00  0.00    +0.030 A 
ENDROOT
BRANCH  20  10
ATOM      6  O   UNL     1      -6.453  -8.805  10.606  0.00  0.00    -0.270 OA
ATOM     10  N   UNL     1      -4.949  -9.908   9.217  0.00  0.00    -0.277 N 
ATOM     26  C   UNL     1      -6.062  -9.125   9.486  0.00  0.00    +0.248 C 
ATOM     34  H   UNL     1      -4.772 -10.254   8.279  0.00  0.00    +0.155 HD
BRANCH  26  27
ATOM     27  C   UNL     1      -6.804  -8.630   8.298  0.00  0.00    +0.037 A 
ATOM     28  C   UNL     1      -6.674  -9.304   7.102  0.00  0.00    +0.016 A 
ATOM     29  C   UNL     1      -7.603  -7.512   8.430  0.00  0.00    +0.016 A 
ATOM     30  C   UNL     1      -7.371  -8.840   5.987  0.00  0.00    +0.046 A 
ATOM     31  C   UNL     1      -8.301  -7.049   7.314  0.00  0.00    +0.046 A 
ATOM     32  C   UNL     1      -8.185  -7.712   6.093  0.00  0.00    +0.120 A 
BRANCH  32   7
ATOM      7  O   UNL     1      -8.868  -7.261   5.005  0.00  0.00    -0.495 OA
ATOM     33  C   UNL     1     -10.290  -7.216   5.103  0.00  0.00    +0.277 C 
ENDBRANCH  32   7
ENDBRANCH  26  27
ENDBRANCH  20  10
BRANCH   8   1
ATOM      1  S   UNL     1      -4.413 -11.461  16.251  0.00  0.00    +0.067 S 
ATOM      3  O   UNL     1      -3.647 -10.347  16.768  0.00  0.00    -0.152 OA
ATOM      4  O   UNL     1      -4.861 -12.525  17.125  0.00  0.00    -0.152 OA
BRANCH   1  22
ATOM      2  S   UNL     1      -7.165 -10.493  16.445  0.00  0.00    -0.077 S 
ATOM     22  C   UNL     1      -5.829 -10.805  15.426  0.00  0.00    +0.143 A 
ATOM     23  C   UNL     1      -6.083 -10.486  14.115  0.00  0.00    +0.036 A 
ATOM     24  C   UNL     1      -7.402  -9.977  13.940  0.00  0.00    +0.010 A 
ATOM     25  C   UNL     1      -8.100  -9.927  15.127  0.00  0.00    +0.047 A 
ENDBRANCH   1  22
ENDBRANCH   8   1
TORSDOF 5
ENDMDL
MODEL 6
REMARK VINA RESULT:      -6.8     15.119     17.005
REMARK  Name = 11884452
REMARK  6 active torsions:
REMARK  status: ('A' for Active; 'I' for Inactive)
REMARK    1  A    between atoms: S_1  and  N_8
REMARK    2  A    between atoms: S_1  and  C_22
REMARK    3  A    between atoms: O_7  and  C_32
REMARK    4  A    between atoms: O_7  and  C_33
REMARK    5  A    between atoms: N_10  and  C_20
REMARK    6  A    between atoms: C_26  and  C_27
REMARK                            x       y       z     vdW  Elec       q    Type
REMARK                         _______ _______ _______ _____ _____    ______ ____
ROOT
ATOM      5  O   UNL     1     -14.868   8.776  19.873  0.00  0.00    -0.266 OA
ATOM      8  N   UNL     1     -11.455   9.680  16.358  0.00  0.00    -0.175 NA
ATOM      9  N   UNL     1     -12.706   9.408  19.248  0.00  0.00    -0.310 N 
ATOM     11  C   UNL     1     -12.221  11.512  17.872  0.00  0.00    +0.025 C 
ATOM     12  C   UNL     1     -10.370  10.053  18.564  0.00  0.00    +0.052 C 
ATOM     13  C   UNL     1     -10.874  11.494  18.583  0.00  0.00    +0.017 C 
ATOM     14  C   UNL     1     -12.071  11.037  16.417  0.00  0.00    +0.114 C 
ATOM     15  C   UNL     1     -10.166   9.598  17.108  0.00  0.00    +0.119 C 
ATOM     16  C   UNL     1     -13.216  10.657  18.668  0.00  0.00    +0.130 C 
ATOM     17  C   UNL     1     -11.337   9.128  19.278  0.00  0.00    +0.026 A 
ATOM     18  C   UNL     1     -10.885   8.034  19.913  0.00  0.00    +0.024 A 
ATOM     19  C   UNL     1     -13.655   8.562  19.860  0.00  0.00    +0.273 A 
ATOM     20  C   UNL     1     -13.112   7.342  20.537  0.00  0.00    +0.099 A 
ATOM     21  C   UNL     1     -11.793   7.125  20.554  0.00  0.00    +0.030 A 
ENDROOT
BRANCH  20  10
ATOM      6  O   UNL     1     -14.356   7.708  23.080  0.00  0.00    -0.270 OA
ATOM     10  N   UNL     1     -13.999   6.491  21.131  0.00  0.00    -0.277 N 
ATOM     26  C   UNL     1     -14.570   6.726  22.373  0.00  0.00    +0.248 C 
ATOM     34  H   UNL     1     -14.106   5.593  20.672  0.00  0.00    +0.155 HD
BRANCH  26  27
ATOM     27  C   UNL     1     -15.531   5.697  22.845  0.00  0.00    +0.037 A 
ATOM     28  C   UNL     1     -15.099   4.744  23.743  0.00  0.00    +0.016 A 
ATOM     29  C   UNL     1     -16.826   5.727  22.370  0.00  0.00    +0.016 A 
ATOM     30  C   UNL     1     -16.002   3.777  24.187  0.00  0.00    +0.046 A 
ATOM     31  C   UNL     1     -17.729   4.761  22.815  0.00  0.00    +0.046 A 
ATOM     32  C   UNL     1     -17.317   3.786  23.723  0.00  0.00    +0.120 A 
BRANCH  32   7
ATOM      7  O   UNL     1     -18.199   2.844  24.158  0.00  0.00    -0.495 OA
ATOM     33  C   UNL     1     -17.681   1.541  24.416  0.00  0.00    +0.277 C 
ENDBRANCH  32   7
ENDBRANCH  26  27
ENDBRANCH  20  10
BRANCH   8   1
ATOM      1  S   UNL     1     -11.466   8.930  14.820  0.00  0.00    +0.067 S 
ATOM      3  O   UNL     1     -10.504   7.848  14.814  0.00  0.00    -0.152 OA
ATOM      4  O   UNL     1     -11.442   9.953  13.796  0.00  0.00    -0.152 OA
BRANCH   1  22
ATOM      2  S   UNL     1     -13.531   7.444  13.379  0.00  0.00    -0.077 S 
ATOM     22  C   UNL     1     -13.080   8.215  14.836  0.00  0.00    +0.143 A 
ATOM     23  C   UNL     1     -14.065   8.149  15.791  0.00  0.00    +0.036 A 
ATOM     24  C   UNL     1     -15.214   7.451  15.319  0.00  0.00    +0.010 A 
ATOM     25  C   UNL     1     -15.058   7.014  14.022  0.00  0.00    +0.047 A 
ENDBRANCH   1  22
ENDBRANCH   8   1
TORSDOF 5
ENDMDL
MODEL 7
REMARK VINA RESULT:      -6.6      3.816      9.794
REMARK  Name = 11884452
REMARK  6 active torsions:
REMARK  status: ('A' for Active; 'I' for Inactive)
REMARK    1  A    between atoms: S_1  and  N_8
REMARK    2  A    between atoms: S_1  and  C_22
REMARK    3  A    between atoms: O_7  and  C_32
REMARK    4  A    between atoms: O_7  and  C_33
REMARK    5  A    between atoms: N_10  and  C_20
REMARK    6  A    between atoms: C_26  and  C_27
REMARK                            x       y       z     vdW  Elec       q    Type
REMARK                         _______ _______ _______ _____ _____    ______ ____
ROOT
ATOM      5  O   UNL     1      -7.835  -8.869  17.451  0.00  0.00    -0.266 OA
ATOM      8  N   UNL     1      -4.077 -11.685  15.787  0.00  0.00    -0.175 NA
ATOM      9  N   UNL     1      -6.756 -10.936  17.288  0.00  0.00    -0.310 N 
ATOM     11  C   UNL     1      -4.416 -11.357  18.238  0.00  0.00    +0.025 C 
ATOM     12  C   UNL     1      -5.604 -13.165  17.075  0.00  0.00    +0.052 C 
ATOM     13  C   UNL     1      -4.885 -12.800  18.372  0.00  0.00    +0.017 C 
ATOM     14  C   UNL     1      -3.449 -11.210  17.052  0.00  0.00    +0.114 C 
ATOM     15  C   UNL     1      -4.619 -13.073  15.896  0.00  0.00    +0.119 C 
ATOM     16  C   UNL     1      -5.642 -10.444  18.110  0.00  0.00    +0.130 C 
ATOM     17  C   UNL     1      -6.798 -12.259  16.840  0.00  0.00    +0.026 A 
ATOM     18  C   UNL     1      -7.878 -12.718  16.186  0.00  0.00    +0.024 A 
ATOM     19  C   UNL     1      -7.820 -10.038  17.062  0.00  0.00    +0.273 A 
ATOM     20  C   UNL     1      -8.995 -10.581  16.310  0.00  0.00    +0.099 A 
ATOM     21  C   UNL     1      -8.997 -11.859  15.917  0.00  0.00    +0.030 A 
ENDROOT
BRANCH  20  10
ATOM      6  O   UNL     1      -9.505  -9.208  13.861  0.00  0.00    -0.270 OA
ATOM     10  N   UNL     1     -10.040  -9.741  16.060  0.00  0.00    -0.277 N 
ATOM     26  C   UNL     1     -10.233  -9.101  14.845  0.00  0.00    +0.248 C 
ATOM     34  H   UNL     1     -10.595  -9.491  16.872  0.00  0.00    +0.155 HD
BRANCH  26  27
ATOM     27  C   UNL     1     -11.442  -8.242  14.753  0.00  0.00    +0.037 A 
ATOM     28  C   UNL     1     -11.617  -7.237  15.682  0.00  0.00    +0.016 A 
ATOM     29  C   UNL     1     -12.351  -8.476  13.742  0.00  0.00    +0.016 A 
ATOM     30  C   UNL     1     -12.752  -6.430  15.596  0.00  0.00    +0.046 A 
ATOM     31  C   UNL     1     -13.485  -7.668  13.656  0.00  0.00    +0.046 A 
ATOM     32  C   UNL     1     -13.685  -6.645  14.582  0.00  0.00    +0.120 A 
BRANCH  32   7
ATOM      7  O   UNL     1     -14.791  -5.856  14.497  0.00  0.00    -0.495 OA
ATOM     33  C   UNL     1     -15.323  -5.622  13.195  0.00  0.00    +0.277 C 
ENDBRANCH  32   7
ENDBRANCH  26  27
ENDBRANCH  20  10
BRANCH   8   1
ATOM      1  S   UNL     1      -3.206 -11.342  14.354  0.00  0.00    +0.067 S 
ATOM      3  O   UNL     1      -2.915 -12.583  13.668  0.00  0.00    -0.152 OA
ATOM      4  O   UNL     1      -2.154 -10.394  14.657  0.00  0.00    -0.152 OA
BRANCH   1  22
ATOM      2  S   UNL     1      -4.041 -10.192  11.799  0.00  0.00    -0.077 S 
ATOM     22  C   UNL     1      -4.450 -10.495  13.431  0.00  0.00    +0.143 A 
ATOM     23  C   UNL     1      -5.697 -10.022  13.756  0.00  0.00    +0.036 A 
ATOM     24  C   UNL     1      -6.333  -9.397  12.645  0.00  0.00    +0.010 A 
ATOM     25  C   UNL     1      -5.543  -9.419  11.517  0.00  0.00    +0.047 A 
ENDBRANCH   1  22
ENDBRANCH   8   1
TORSDOF 5
ENDMDL
MODEL 8
REMARK VINA RESULT:      -6.5     17.338     21.025
REMARK  Name = 11884452
REMARK  6 active torsions:
REMARK  status: ('A' for Active; 'I' for Inactive)
REMARK    1  A    between atoms: S_1  and  N_8
REMARK    2  A    between atoms: S_1  and  C_22
REMARK    3  A    between atoms: O_7  and  C_32
REMARK    4  A    between atoms: O_7  and  C_33
REMARK    5  A    between atoms: N_10  and  C_20
REMARK    6  A    between atoms: C_26  and  C_27
REMARK                            x       y       z     vdW  Elec       q    Type
REMARK                         _______ _______ _______ _____ _____    ______ ____
ROOT
ATOM      5  O   UNL     1      -6.779   9.743   4.936  0.00  0.00    -0.266 OA
ATOM      8  N   UNL     1      -1.901  10.414   4.178  0.00  0.00    -0.175 NA
ATOM      9  N   UNL     1      -4.552   9.296   5.487  0.00  0.00    -0.310 N 
ATOM     11  C   UNL     1      -2.946  11.099   6.340  0.00  0.00    +0.025 C 
ATOM     12  C   UNL     1      -2.149   8.794   6.048  0.00  0.00    +0.052 C 
ATOM     13  C   UNL     1      -2.251   9.943   7.048  0.00  0.00    +0.017 C 
ATOM     14  C   UNL     1      -2.133  11.550   5.115  0.00  0.00    +0.114 C 
ATOM     15  C   UNL     1      -1.287   9.229   4.849  0.00  0.00    +0.119 C 
ATOM     16  C   UNL     1      -4.373  10.671   5.971  0.00  0.00    +0.130 C 
ATOM     17  C   UNL     1      -3.523   8.354   5.581  0.00  0.00    +0.026 A 
ATOM     18  C   UNL     1      -3.745   7.075   5.237  0.00  0.00    +0.024 A 
ATOM     19  C   UNL     1      -5.838   8.952   5.021  0.00  0.00    +0.273 A 
ATOM     20  C   UNL     1      -6.037   7.522   4.626  0.00  0.00    +0.099 A 
ATOM     21  C   UNL     1      -5.028   6.653   4.750  0.00  0.00    +0.030 A 
ENDROOT
BRANCH  20  10
ATOM      6  O   UNL     1      -8.149   6.370   6.162  0.00  0.00    -0.270 OA
ATOM     10  N   UNL     1      -7.264   7.151   4.158  0.00  0.00    -0.277 N 
ATOM     26  C   UNL     1      -8.251   6.594   4.958  0.00  0.00    +0.248 C 
ATOM     34  H   UNL     1      -7.364   7.171   3.149  0.00  0.00    +0.155 HD
BRANCH  26  27
ATOM     27  C   UNL     1      -9.532   6.277   4.275  0.00  0.00    +0.037 A 
ATOM     28  C   UNL     1     -10.541   5.677   4.997  0.00  0.00    +0.016 A 
ATOM     29  C   UNL     1      -9.670   6.592   2.939  0.00  0.00    +0.016 A 
ATOM     30  C   UNL     1     -11.744   5.378   4.355  0.00  0.00    +0.046 A 
ATOM     31  C   UNL     1     -10.872   6.295   2.298  0.00  0.00    +0.046 A 
ATOM     32  C   UNL     1     -11.909   5.688   3.005  0.00  0.00    +0.120 A 
BRANCH  32   7
ATOM      7  O   UNL     1     -13.083   5.399   2.380  0.00  0.00    -0.495 OA
ATOM     33  C   UNL     1     -13.144   5.629   0.974  0.00  0.00    +0.277 C 
ENDBRANCH  32   7
ENDBRANCH  26  27
ENDBRANCH  20  10
BRANCH   8   1
ATOM      1  S   UNL     1      -1.232  10.833   2.660  0.00  0.00    +0.067 S 
ATOM      3  O   UNL     1      -0.209   9.871   2.311  0.00  0.00    -0.152 OA
ATOM      4  O   UNL     1      -0.955  12.254   2.642  0.00  0.00    -0.152 OA
BRANCH   1  22
ATOM      2  S   UNL     1      -2.266  10.486  -0.053  0.00  0.00    -0.077 S 
ATOM     22  C   UNL     1      -2.626  10.539   1.617  0.00  0.00    +0.143 A 
ATOM     23  C   UNL     1      -3.961  10.341   1.872  0.00  0.00    +0.036 A 
ATOM     24  C   UNL     1      -4.705  10.141   0.674  0.00  0.00    +0.010 A 
ATOM     25  C   UNL     1      -3.907  10.195  -0.447  0.00  0.00    +0.047 A 
ENDBRANCH   1  22
ENDBRANCH   8   1
TORSDOF 5
ENDMDL
MODEL 9
REMARK VINA RESULT:      -6.5     27.231     29.710
REMARK  Name = 11884452
REMARK  6 active torsions:
REMARK  status: ('A' for Active; 'I' for Inactive)
REMARK    1  A    between atoms: S_1  and  N_8
REMARK    2  A    between atoms: S_1  and  C_22
REMARK    3  A    between atoms: O_7  and  C_32
REMARK    4  A    between atoms: O_7  and  C_33
REMARK    5  A    between atoms: N_10  and  C_20
REMARK    6  A    between atoms: C_26  and  C_27
REMARK                            x       y       z     vdW  Elec       q    Type
REMARK                         _______ _______ _______ _____ _____    ______ ____
ROOT
ATOM      5  O   UNL     1       9.805   6.849   0.938  0.00  0.00    -0.266 OA
ATOM      8  N   UNL     1      11.102   7.977   5.614  0.00  0.00    -0.175 NA
ATOM      9  N   UNL     1       9.727   6.417   3.234  0.00  0.00    -0.310 N 
ATOM     11  C   UNL     1       8.706   8.052   4.918  0.00  0.00    +0.025 C 
ATOM     12  C   UNL     1       9.679   5.940   5.706  0.00  0.00    +0.052 C 
ATOM     13  C   UNL     1       8.421   6.804   5.743  0.00  0.00    +0.017 C 
ATOM     14  C   UNL     1       9.888   8.836   5.512  0.00  0.00    +0.114 C 
ATOM     15  C   UNL     1      10.849   6.704   6.353  0.00  0.00    +0.119 C 
ATOM     16  C   UNL     1       8.949   7.642   3.460  0.00  0.00    +0.130 C 
ATOM     17  C   UNL     1      10.028   5.544   4.284  0.00  0.00    +0.026 A 
ATOM     18  C   UNL     1      10.642   4.375   4.036  0.00  0.00    +0.024 A 
ATOM     19  C   UNL     1      10.064   6.119   1.896  0.00  0.00    +0.273 A 
ATOM     20  C   UNL     1      10.767   4.818   1.666  0.00  0.00    +0.099 A 
ATOM     21  C   UNL     1      11.019   4.008   2.700  0.00  0.00    +0.030 A 
ENDROOT
BRANCH  20  10
ATOM      6  O   UNL     1      13.429   4.545   0.672  0.00  0.00    -0.270 OA
ATOM     10  N   UNL     1      11.121   4.499   0.388  0.00  0.00    -0.277 N 
ATOM     26  C   UNL     1      12.437   4.381  -0.035  0.00  0.00    +0.248 C 
ATOM     34  H   UNL     1      10.359   4.496  -0.282  0.00  0.00    +0.155 HD
BRANCH  26  27
ATOM     27  C   UNL     1      12.626   4.003  -1.459  0.00  0.00    +0.037 A 
ATOM     28  C   UNL     1      11.943   2.913  -1.955  0.00  0.00    +0.016 A 
ATOM     29  C   UNL     1      13.479   4.755  -2.240  0.00  0.00    +0.016 A 
ATOM     30  C   UNL     1      12.120   2.557  -3.292  0.00  0.00    +0.046 A 
ATOM     31  C   UNL     1      13.655   4.400  -3.578  0.00  0.00    +0.046 A 
ATOM     32  C   UNL     1      12.976   3.302  -4.104  0.00  0.00    +0.120 A 
BRANCH  32   7
ATOM      7  O   UNL     1      13.147   2.956  -5.409  0.00  0.00    -0.495 OA
ATOM     33  C   UNL     1      11.981   2.919  -6.230  0.00  0.00    +0.277 C 
ENDBRANCH  32   7
ENDBRANCH  26  27
ENDBRANCH  20  10
BRANCH   8   1
ATOM      1  S   UNL     1      12.551   8.792   6.019  0.00  0.00    +0.067 S 
ATOM      3  O   UNL     1      12.967   8.388   7.345  0.00  0.00    -0.152 OA
ATOM      4  O   UNL     1      12.418  10.192   5.674  0.00  0.00    -0.152 OA
BRANCH   1  22
ATOM      2  S   UNL     1      15.311   8.366   5.152  0.00  0.00    -0.077 S 
ATOM     22  C   UNL     1      13.657   8.050   4.859  0.00  0.00    +0.143 A 
ATOM     23  C   UNL     1      13.461   7.260   3.754  0.00  0.00    +0.036 A 
ATOM     24  C   UNL     1      14.693   6.904   3.132  0.00  0.00    +0.010 A 
ATOM     25  C   UNL     1      15.778   7.439   3.790  0.00  0.00    +0.047 A 
ENDBRANCH   1  22
ENDBRANCH   8   1
TORSDOF 5
ENDMDL
MODEL 10
REMARK VINA RESULT:      -6.4     32.273     35.291
REMARK  Name = 11884452
REMARK  6 active torsions:
REMARK  status: ('A' for Active; 'I' for Inactive)
REMARK    1  A    between atoms: S_1  and  N_8
REMARK    2  A    between atoms: S_1  and  C_22
REMARK    3  A    between atoms: O_7  and  C_32
REMARK    4  A    between atoms: O_7  and  C_33
REMARK    5  A    between atoms: N_10  and  C_20
REMARK    6  A    between atoms: C_26  and  C_27
REMARK                            x       y       z     vdW  Elec       q    Type
REMARK                         _______ _______ _______ _____ _____    ______ ____
ROOT
ATOM      5  O   UNL     1      21.244  -7.092  -1.516  0.00  0.00    -0.266 OA
ATOM      8  N   UNL     1      23.304  -7.719   2.976  0.00  0.00    -0.175 NA
ATOM      9  N   UNL     1      22.183  -6.211   0.434  0.00  0.00    -0.310 N 
ATOM     11  C   UNL     1      24.606  -6.657   1.130  0.00  0.00    +0.025 C 
ATOM     12  C   UNL     1      23.164  -5.273   2.556  0.00  0.00    +0.052 C 
ATOM     13  C   UNL     1      24.505  -5.307   1.828  0.00  0.00    +0.017 C 
ATOM     14  C   UNL     1      24.545  -7.802   2.155  0.00  0.00    +0.114 C 
ATOM     15  C   UNL     1      23.126  -6.383   3.621  0.00  0.00    +0.119 C 
ATOM     16  C   UNL     1      23.498  -6.757   0.074  0.00  0.00    +0.130 C 
ATOM     17  C   UNL     1      22.011  -5.433   1.583  0.00  0.00    +0.026 A 
ATOM     18  C   UNL     1      20.827  -4.850   1.833  0.00  0.00    +0.024 A 
ATOM     19  C   UNL     1      21.135  -6.427  -0.485  0.00  0.00    +0.273 A 
ATOM     20  C   UNL     1      19.825  -5.780  -0.157  0.00  0.00    +0.099 A 
ATOM     21  C   UNL     1      19.713  -5.030   0.944  0.00  0.00    +0.030 A 
ENDROOT
BRANCH  20  10
ATOM      6  O   UNL     1      18.827  -3.895  -2.054  0.00  0.00    -0.270 OA
ATOM     10  N   UNL     1      18.782  -5.975  -1.015  0.00  0.00    -0.277 N 
ATOM     26  C   UNL     1      18.344  -5.016  -1.916  0.00  0.00    +0.248 C 
ATOM     34  H   UNL     1      18.244  -6.820  -0.853  0.00  0.00    +0.155 HD
BRANCH  26  27
ATOM     27  C   UNL     1      17.208  -5.420  -2.785  0.00  0.00    +0.037 A 
ATOM     28  C   UNL     1      17.126  -6.729  -3.209  0.00  0.00    +0.016 A 
ATOM     29  C   UNL     1      16.272  -4.471  -3.140  0.00  0.00    +0.016 A 
ATOM     30  C   UNL     1      16.060  -7.108  -4.026  0.00  0.00    +0.046 A 
ATOM     31  C   UNL     1      15.205  -4.850  -3.956  0.00  0.00    +0.046 A 
ATOM     32  C   UNL     1      15.099  -6.168  -4.398  0.00  0.00    +0.120 A 
BRANCH  32   7
ATOM      7  O   UNL     1      14.058  -6.538  -5.193  0.00  0.00    -0.495 OA
ATOM     33  C   UNL     1      13.887  -7.934  -5.431  0.00  0.00    +0.277 C 
ENDBRANCH  32   7
ENDBRANCH  26  27
ENDBRANCH  20  10
BRANCH   8   1
ATOM      1  S   UNL     1      22.987  -9.071   3.977  0.00  0.00    +0.067 S 
ATOM      3  O   UNL     1      22.704  -8.610   5.320  0.00  0.00    -0.152 OA
ATOM      4  O   UNL     1      23.993 -10.083   3.734  0.00  0.00    -0.152 OA
BRANCH   1  22
ATOM      2  S   UNL     1      21.197 -11.313   3.413  0.00  0.00    -0.077 S 
ATOM     22  C   UNL     1      21.471  -9.632   3.268  0.00  0.00    +0.143 A 
ATOM     23  C   UNL     1      20.449  -8.989   2.615  0.00  0.00    +0.036 A 
ATOM     24  C   UNL     1      19.419  -9.891   2.224  0.00  0.00    +0.010 A 
ATOM     25  C   UNL     1      19.698 -11.188   2.596  0.00  0.00    +0.047 A 
ENDBRANCH   1  22
ENDBRANCH   8   1
TORSDOF 5
ENDMDL
