MODEL 1
REMARK VINA RESULT:      -7.6      0.000      0.000
REMARK  Name = 7142629
REMARK  4 active torsions:
REMARK  status: ('A' for Active; 'I' for Inactive)
REMARK    1  A    between atoms: O_5  and  C_24
REMARK    2  A    between atoms: O_5  and  C_29
REMARK    3  A    between atoms: C_17  and  C_21
REMARK    4  A    between atoms: C_20  and  C_23
REMARK                            x       y       z     vdW  Elec       q    Type
REMARK                         _______ _______ _______ _____ _____    ______ ____
ROOT
ATOM      2  O   UNL     1      14.926   9.764  21.795  0.00  0.00    -0.273 OA
ATOM      3  O   UNL     1      17.466   6.162  18.877  0.00  0.00    -0.270 OA
ATOM      4  O   UNL     1      11.313   8.240  22.239  0.00  0.00    -0.276 OA
ATOM      6  N   UNL     1      15.799   6.985  20.253  0.00  0.00    -0.283 N 
ATOM      7  N   UNL     1      13.030   7.685  20.775  0.00  0.00    -0.298 N 
ATOM      8  N   UNL     1      17.116   9.145  21.788  0.00  0.00    -0.283 N 
ATOM      9  C   UNL     1      15.382   7.403  21.584  0.00  0.00    +0.180 C 
ATOM     10  C   UNL     1      13.889   7.161  21.841  0.00  0.00    +0.139 C 
ATOM     11  C   UNL     1      14.745   6.685  19.284  0.00  0.00    +0.128 C 
ATOM     12  C   UNL     1      13.565   7.638  19.412  0.00  0.00    +0.127 C 
ATOM     13  C   UNL     1      15.768   8.870  21.699  0.00  0.00    +0.239 C 
ATOM     14  C   UNL     1      17.121   6.695  19.933  0.00  0.00    +0.249 C 
ATOM     15  C   UNL     1      18.194   7.070  20.894  0.00  0.00    +0.059 A 
ATOM     16  C   UNL     1      18.200   8.252  21.651  0.00  0.00    +0.046 A 
ATOM     17  C   UNL     1      11.771   8.196  21.096  0.00  0.00    +0.213 C 
ATOM     18  C   UNL     1      19.340   6.253  20.883  0.00  0.00    +0.023 A 
ATOM     19  C   UNL     1      19.378   8.623  22.323  0.00  0.00    +0.024 A 
ATOM     20  C   UNL     1      20.483   6.612  21.595  0.00  0.00    -0.014 A 
ATOM     21  C   UNL     1      10.948   8.711  19.941  0.00  0.00    +0.109 C 
ATOM     22  C   UNL     1      20.507   7.805  22.305  0.00  0.00    +0.010 A 
ATOM     30  H   UNL     1      17.350  10.089  22.085  0.00  0.00    +0.155 HD
ENDROOT
BRANCH  20  23
ATOM      1 CL   UNL     1      22.869   2.445  23.465  0.00  0.00    -0.084 Cl
ATOM     23  C   UNL     1      21.649   5.757  21.576  0.00  0.00    +0.025 A 
ATOM     24  C   UNL     1      22.721   6.024  20.723  0.00  0.00    +0.128 A 
ATOM     25  C   UNL     1      21.696   4.649  22.423  0.00  0.00    +0.032 A 
ATOM     26  C   UNL     1      23.837   5.187  20.718  0.00  0.00    +0.047 A 
ATOM     27  C   UNL     1      22.812   3.811  22.419  0.00  0.00    +0.042 A 
ATOM     28  C   UNL     1      23.883   4.081  21.566  0.00  0.00    +0.023 A 
BRANCH  24   5
ATOM      5  O   UNL     1      22.703   7.099  19.883  0.00  0.00    -0.495 OA
ATOM     29  C   UNL     1      23.651   8.133  20.136  0.00  0.00    +0.277 C 
ENDBRANCH  24   5
ENDBRANCH  20  23
TORSDOF 2
ENDMDL
MODEL 2
REMARK VINA RESULT:      -7.2     16.606     19.184
REMARK  Name = 7142629
REMARK  4 active torsions:
REMARK  status: ('A' for Active; 'I' for Inactive)
REMARK    1  A    between atoms: O_5  and  C_24
REMARK    2  A    between atoms: O_5  and  C_29
REMARK    3  A    between atoms: C_17  and  C_21
REMARK    4  A    between atoms: C_20  and  C_23
REMARK                            x       y       z     vdW  Elec       q    Type
REMARK                         _______ _______ _______ _____ _____    ______ ____
ROOT
ATOM      2  O   UNL     1      10.108   7.446   8.089  0.00  0.00    -0.273 OA
ATOM      3  O   UNL     1      13.633   7.722   4.160  0.00  0.00    -0.270 OA
ATOM      4  O   UNL     1       9.209  11.220   8.815  0.00  0.00    -0.276 OA
ATOM      6  N   UNL     1      11.957   8.478   5.564  0.00  0.00    -0.283 N 
ATOM      7  N   UNL     1      10.959  10.276   7.614  0.00  0.00    -0.298 N 
ATOM      8  N   UNL     1      10.502   6.027   6.355  0.00  0.00    -0.283 N 
ATOM      9  C   UNL     1      10.552   8.458   5.942  0.00  0.00    +0.180 C 
ATOM     10  C   UNL     1      10.081   9.786   6.546  0.00  0.00    +0.139 C 
ATOM     11  C   UNL     1      12.768   9.593   6.055  0.00  0.00    +0.128 C 
ATOM     12  C   UNL     1      12.390   9.989   7.475  0.00  0.00    +0.127 C 
ATOM     13  C   UNL     1      10.397   7.288   6.902  0.00  0.00    +0.239 C 
ATOM     14  C   UNL     1      12.501   7.600   4.632  0.00  0.00    +0.249 C 
ATOM     15  C   UNL     1      11.697   6.428   4.192  0.00  0.00    +0.059 A 
ATOM     16  C   UNL     1      10.869   5.674   5.039  0.00  0.00    +0.046 A 
ATOM     17  C   UNL     1      10.410  10.975   8.689  0.00  0.00    +0.213 C 
ATOM     18  C   UNL     1      11.945   5.970   2.885  0.00  0.00    +0.023 A 
ATOM     19  C   UNL     1      10.366   4.444   4.580  0.00  0.00    +0.024 A 
ATOM     20  C   UNL     1      11.398   4.771   2.429  0.00  0.00    -0.014 A 
ATOM     21  C   UNL     1      11.383  11.448   9.742  0.00  0.00    +0.109 C 
ATOM     22  C   UNL     1      10.619   4.001   3.282  0.00  0.00    +0.010 A 
ATOM     30  H   UNL     1      10.181   5.265   6.948  0.00  0.00    +0.155 HD
ENDROOT
BRANCH  20  23
ATOM      1 CL   UNL     1       9.940   4.714  -2.513  0.00  0.00    -0.084 Cl
ATOM     23  C   UNL     1      11.660   4.320   1.080  0.00  0.00    +0.025 A 
ATOM     24  C   UNL     1      12.772   3.527   0.792  0.00  0.00    +0.128 A 
ATOM     25  C   UNL     1      10.785   4.686   0.057  0.00  0.00    +0.032 A 
ATOM     26  C   UNL     1      13.008   3.102  -0.515  0.00  0.00    +0.047 A 
ATOM     27  C   UNL     1      11.021   4.261  -1.251  0.00  0.00    +0.042 A 
ATOM     28  C   UNL     1      12.133   3.469  -1.537  0.00  0.00    +0.023 A 
BRANCH  24   5
ATOM      5  O   UNL     1      13.645   3.154   1.772  0.00  0.00    -0.495 OA
ATOM     29  C   UNL     1      15.012   3.517   1.593  0.00  0.00    +0.277 C 
ENDBRANCH  24   5
ENDBRANCH  20  23
TORSDOF 2
ENDMDL
MODEL 3
REMARK VINA RESULT:      -6.9     28.921     31.022
REMARK  Name = 7142629
REMARK  4 active torsions:
REMARK  status: ('A' for Active; 'I' for Inactive)
REMARK    1  A    between atoms: O_5  and  C_24
REMARK    2  A    between atoms: O_5  and  C_29
REMARK    3  A    between atoms: C_17  and  C_21
REMARK    4  A    between atoms: C_20  and  C_23
REMARK                            x       y       z     vdW  Elec       q    Type
REMARK                         _______ _______ _______ _____ _____    ______ ____
ROOT
ATOM      2  O   UNL     1      -2.887 -10.640  16.274  0.00  0.00    -0.273 OA
ATOM      3  O   UNL     1      -7.018  -9.612  13.140  0.00  0.00    -0.270 OA
ATOM      4  O   UNL     1      -4.369 -13.051  19.025  0.00  0.00    -0.276 OA
ATOM      6  N   UNL     1      -5.809 -10.748  14.751  0.00  0.00    -0.283 N 
ATOM      7  N   UNL     1      -5.424 -11.680  17.474  0.00  0.00    -0.298 N 
ATOM      8  N   UNL     1      -2.982 -10.246  14.034  0.00  0.00    -0.283 N 
ATOM      9  C   UNL     1      -4.718 -11.657  15.073  0.00  0.00    +0.180 C 
ATOM     10  C   UNL     1      -4.992 -12.490  16.331  0.00  0.00    +0.139 C 
ATOM     11  C   UNL     1      -6.832 -10.540  15.776  0.00  0.00    +0.128 C 
ATOM     12  C   UNL     1      -6.236 -10.498  17.176  0.00  0.00    +0.127 C 
ATOM     13  C   UNL     1      -3.477 -10.788  15.202  0.00  0.00    +0.239 C 
ATOM     14  C   UNL     1      -6.003 -10.224  13.477  0.00  0.00    +0.249 C 
ATOM     15  C   UNL     1      -4.926 -10.377  12.463  0.00  0.00    +0.059 A 
ATOM     16  C   UNL     1      -3.554 -10.281  12.745  0.00  0.00    +0.046 A 
ATOM     17  C   UNL     1      -5.052 -12.059  18.764  0.00  0.00    +0.213 C 
ATOM     18  C   UNL     1      -5.351 -10.443  11.122  0.00  0.00    +0.023 A 
ATOM     19  C   UNL     1      -2.645 -10.182  11.677  0.00  0.00    +0.024 A 
ATOM     20  C   UNL     1      -4.431 -10.393  10.076  0.00  0.00    -0.014 A 
ATOM     21  C   UNL     1      -5.542 -11.174  19.884  0.00  0.00    +0.109 C 
ATOM     22  C   UNL     1      -3.078 -10.249  10.353  0.00  0.00    +0.010 A 
ATOM     30  H   UNL     1      -2.043  -9.859  14.096  0.00  0.00    +0.155 HD
ENDROOT
BRANCH  20  23
ATOM      1 CL   UNL     1      -4.430 -12.966   5.611  0.00  0.00    -0.084 Cl
ATOM     23  C   UNL     1      -4.886 -10.467   8.705  0.00  0.00    +0.025 A 
ATOM     24  C   UNL     1      -5.713  -9.479   8.169  0.00  0.00    +0.128 A 
ATOM     25  C   UNL     1      -4.490 -11.546   7.913  0.00  0.00    +0.032 A 
ATOM     26  C   UNL     1      -6.143  -9.568   6.845  0.00  0.00    +0.047 A 
ATOM     27  C   UNL     1      -4.920 -11.635   6.588  0.00  0.00    +0.042 A 
ATOM     28  C   UNL     1      -5.745 -10.646   6.054  0.00  0.00    +0.023 A 
BRANCH  24   5
ATOM      5  O   UNL     1      -6.117  -8.413   8.920  0.00  0.00    -0.495 OA
ATOM     29  C   UNL     1      -7.520  -8.179   9.008  0.00  0.00    +0.277 C 
ENDBRANCH  24   5
ENDBRANCH  20  23
TORSDOF 2
ENDMDL
MODEL 4
REMARK VINA RESULT:      -6.8     28.485     33.143
REMARK  Name = 7142629
REMARK  4 active torsions:
REMARK  status: ('A' for Active; 'I' for Inactive)
REMARK    1  A    between atoms: O_5  and  C_24
REMARK    2  A    between atoms: O_5  and  C_29
REMARK    3  A    between atoms: C_17  and  C_21
REMARK    4  A    between atoms: C_20  and  C_23
REMARK                            x       y       z     vdW  Elec       q    Type
REMARK                         _______ _______ _______ _____ _____    ______ ____
ROOT
ATOM      2  O   UNL     1      -5.699  -9.522  15.090  0.00  0.00    -0.273 OA
ATOM      3  O   UNL     1      -6.967 -10.703  20.084  0.00  0.00    -0.270 OA
ATOM      4  O   UNL     1      -3.014 -12.251  14.129  0.00  0.00    -0.276 OA
ATOM      6  N   UNL     1      -6.087 -11.066  17.976  0.00  0.00    -0.283 N 
ATOM      7  N   UNL     1      -3.857 -11.606  16.196  0.00  0.00    -0.298 N 
ATOM      8  N   UNL     1      -7.669  -9.300  16.207  0.00  0.00    -0.283 N 
ATOM      9  C   UNL     1      -6.318 -11.332  16.563  0.00  0.00    +0.180 C 
ATOM     10  C   UNL     1      -5.191 -12.150  15.922  0.00  0.00    +0.139 C 
ATOM     11  C   UNL     1      -4.747 -11.338  18.499  0.00  0.00    +0.128 C 
ATOM     12  C   UNL     1      -3.660 -10.967  17.500  0.00  0.00    +0.127 C 
ATOM     13  C   UNL     1      -6.502  -9.971  15.909  0.00  0.00    +0.239 C 
ATOM     14  C   UNL     1      -7.111 -10.744  18.861  0.00  0.00    +0.249 C 
ATOM     15  C   UNL     1      -8.452 -10.398  18.316  0.00  0.00    +0.059 A 
ATOM     16  C   UNL     1      -8.661  -9.648  17.147  0.00  0.00    +0.046 A 
ATOM     17  C   UNL     1      -2.858 -11.715  15.228  0.00  0.00    +0.213 C 
ATOM     18  C   UNL     1      -9.547 -10.705  19.144  0.00  0.00    +0.023 A 
ATOM     19  C   UNL     1      -9.952  -9.164  16.873  0.00  0.00    +0.024 A 
ATOM     20  C   UNL     1     -10.830 -10.259  18.830  0.00  0.00    -0.014 A 
ATOM     21  C   UNL     1      -1.513 -11.134  15.592  0.00  0.00    +0.109 C 
ATOM     22  C   UNL     1     -11.031  -9.476  17.701  0.00  0.00    +0.010 A 
ATOM     30  H   UNL     1      -7.884  -8.509  15.604  0.00  0.00    +0.155 HD
ENDROOT
BRANCH  20  23
ATOM      1 CL   UNL     1     -15.166  -8.709  21.142  0.00  0.00    -0.084 Cl
ATOM     23  C   UNL     1     -11.945 -10.589  19.690  0.00  0.00    +0.025 A 
ATOM     24  C   UNL     1     -12.073 -11.866  20.240  0.00  0.00    +0.128 A 
ATOM     25  C   UNL     1     -12.903  -9.613  19.970  0.00  0.00    +0.032 A 
ATOM     26  C   UNL     1     -13.155 -12.166  21.067  0.00  0.00    +0.047 A 
ATOM     27  C   UNL     1     -13.986  -9.914  20.798  0.00  0.00    +0.042 A 
ATOM     28  C   UNL     1     -14.111 -11.190  21.347  0.00  0.00    +0.023 A 
BRANCH  24   5
ATOM      5  O   UNL     1     -11.152 -12.840  19.984  0.00  0.00    -0.495 OA
ATOM     29  C   UNL     1     -10.703 -13.613  21.094  0.00  0.00    +0.277 C 
ENDBRANCH  24   5
ENDBRANCH  20  23
TORSDOF 2
ENDMDL
MODEL 5
REMARK VINA RESULT:      -6.7     29.246     31.293
REMARK  Name = 7142629
REMARK  4 active torsions:
REMARK  status: ('A' for Active; 'I' for Inactive)
REMARK    1  A    between atoms: O_5  and  C_24
REMARK    2  A    between atoms: O_5  and  C_29
REMARK    3  A    between atoms: C_17  and  C_21
REMARK    4  A    between atoms: C_20  and  C_23
REMARK                            x       y       z     vdW  Elec       q    Type
REMARK                         _______ _______ _______ _____ _____    ______ ____
ROOT
ATOM      2  O   UNL     1      -3.414 -10.496  16.146  0.00  0.00    -0.273 OA
ATOM      3  O   UNL     1      -7.218  -9.272  12.686  0.00  0.00    -0.270 OA
ATOM      4  O   UNL     1      -5.316 -12.488  18.973  0.00  0.00    -0.276 OA
ATOM      6  N   UNL     1      -6.240 -10.400  14.453  0.00  0.00    -0.283 N 
ATOM      7  N   UNL     1      -6.117 -11.140  17.258  0.00  0.00    -0.298 N 
ATOM      8  N   UNL     1      -3.339 -10.281  13.882  0.00  0.00    -0.283 N 
ATOM      9  C   UNL     1      -5.283 -11.397  14.912  0.00  0.00    +0.180 C 
ATOM     10  C   UNL     1      -5.721 -12.086  16.209  0.00  0.00    +0.139 C 
ATOM     11  C   UNL     1      -7.287  -9.994  15.391  0.00  0.00    +0.128 C 
ATOM     12  C   UNL     1      -6.767  -9.903  16.819  0.00  0.00    +0.127 C 
ATOM     13  C   UNL     1      -3.957 -10.665  15.053  0.00  0.00    +0.239 C 
ATOM     14  C   UNL     1      -6.302  -9.965  13.133  0.00  0.00    +0.249 C 
ATOM     15  C   UNL     1      -5.196 -10.322  12.204  0.00  0.00    +0.059 A 
ATOM     16  C   UNL     1      -3.840 -10.358  12.565  0.00  0.00    +0.046 A 
ATOM     17  C   UNL     1      -5.862 -11.450  18.594  0.00  0.00    +0.213 C 
ATOM     18  C   UNL     1      -5.552 -10.450  10.848  0.00  0.00    +0.023 A 
ATOM     19  C   UNL     1      -2.869 -10.451  11.553  0.00  0.00    +0.024 A 
ATOM     20  C   UNL     1      -4.577 -10.592   9.862  0.00  0.00    -0.014 A 
ATOM     21  C   UNL     1      -6.305 -10.425  19.610  0.00  0.00    +0.109 C 
ATOM     22  C   UNL     1      -3.234 -10.578  10.213  0.00  0.00    +0.010 A 
ATOM     30  H   UNL     1      -2.366  -9.999  13.973  0.00  0.00    +0.155 HD
ENDROOT
BRANCH  20  23
ATOM      1 CL   UNL     1      -6.944  -8.540   5.770  0.00  0.00    -0.084 Cl
ATOM     23  C   UNL     1      -4.963 -10.728   8.475  0.00  0.00    +0.025 A 
ATOM     24  C   UNL     1      -4.628 -11.870   7.745  0.00  0.00    +0.128 A 
ATOM     25  C   UNL     1      -5.679  -9.698   7.862  0.00  0.00    +0.032 A 
ATOM     26  C   UNL     1      -5.008 -11.982   6.408  0.00  0.00    +0.047 A 
ATOM     27  C   UNL     1      -6.060  -9.811   6.524  0.00  0.00    +0.042 A 
ATOM     28  C   UNL     1      -5.725 -10.953   5.798  0.00  0.00    +0.023 A 
BRANCH  24   5
ATOM      5  O   UNL     1      -3.928 -12.892   8.317  0.00  0.00    -0.495 OA
ATOM     29  C   UNL     1      -4.429 -14.211   8.116  0.00  0.00    +0.277 C 
ENDBRANCH  24   5
ENDBRANCH  20  23
TORSDOF 2
ENDMDL
MODEL 6
REMARK VINA RESULT:      -6.7     28.597     31.768
REMARK  Name = 7142629
REMARK  4 active torsions:
REMARK  status: ('A' for Active; 'I' for Inactive)
REMARK    1  A    between atoms: O_5  and  C_24
REMARK    2  A    between atoms: O_5  and  C_29
REMARK    3  A    between atoms: C_17  and  C_21
REMARK    4  A    between atoms: C_20  and  C_23
REMARK                            x       y       z     vdW  Elec       q    Type
REMARK                         _______ _______ _______ _____ _____    ______ ____
ROOT
ATOM      2  O   UNL     1     -10.628 -10.569  20.470  0.00  0.00    -0.273 OA
ATOM      3  O   UNL     1      -8.451  -8.999  15.916  0.00  0.00    -0.270 OA
ATOM      4  O   UNL     1     -14.260 -11.714  19.432  0.00  0.00    -0.276 OA
ATOM      6  N   UNL     1      -9.981 -10.076  17.276  0.00  0.00    -0.283 N 
ATOM      7  N   UNL     1     -12.675 -10.457  18.289  0.00  0.00    -0.298 N 
ATOM      8  N   UNL     1      -8.471 -10.669  19.750  0.00  0.00    -0.283 N 
ATOM      9  C   UNL     1     -10.285 -11.190  18.162  0.00  0.00    +0.180 C 
ATOM     10  C   UNL     1     -11.764 -11.593  18.121  0.00  0.00    +0.139 C 
ATOM     11  C   UNL     1     -11.113  -9.332  16.721  0.00  0.00    +0.128 C 
ATOM     12  C   UNL     1     -12.240  -9.174  17.731  0.00  0.00    +0.127 C 
ATOM     13  C   UNL     1      -9.832 -10.755  19.547  0.00  0.00    +0.239 C 
ATOM     14  C   UNL     1      -8.697  -9.811  16.809  0.00  0.00    +0.249 C 
ATOM     15  C   UNL     1      -7.545 -10.519  17.430  0.00  0.00    +0.059 A 
ATOM     16  C   UNL     1      -7.437 -10.804  18.801  0.00  0.00    +0.046 A 
ATOM     17  C   UNL     1     -13.886 -10.639  18.959  0.00  0.00    +0.213 C 
ATOM     18  C   UNL     1      -6.437 -10.740  16.591  0.00  0.00    +0.023 A 
ATOM     19  C   UNL     1      -6.200 -11.238  19.310  0.00  0.00    +0.024 A 
ATOM     20  C   UNL     1      -5.232 -11.218  17.105  0.00  0.00    -0.014 A 
ATOM     21  C   UNL     1     -14.767  -9.420  19.084  0.00  0.00    +0.109 C 
ATOM     22  C   UNL     1      -5.110 -11.454  18.468  0.00  0.00    +0.010 A 
ATOM     30  H   UNL     1      -8.179 -10.598  20.722  0.00  0.00    +0.155 HD
ENDROOT
BRANCH  20  23
ATOM      1 CL   UNL     1      -0.708  -9.547  15.292  0.00  0.00    -0.084 Cl
ATOM     23  C   UNL     1      -4.107 -11.444  16.226  0.00  0.00    +0.025 A 
ATOM     24  C   UNL     1      -4.041 -12.584  15.423  0.00  0.00    +0.128 A 
ATOM     25  C   UNL     1      -3.075 -10.505  16.184  0.00  0.00    +0.032 A 
ATOM     26  C   UNL     1      -2.947 -12.784  14.581  0.00  0.00    +0.047 A 
ATOM     27  C   UNL     1      -1.980 -10.706  15.342  0.00  0.00    +0.042 A 
ATOM     28  C   UNL     1      -1.916 -11.845  14.540  0.00  0.00    +0.023 A 
BRANCH  24   5
ATOM      5  O   UNL     1      -5.034 -13.519  15.442  0.00  0.00    -0.495 OA
ATOM     29  C   UNL     1      -4.833 -14.660  16.272  0.00  0.00    +0.277 C 
ENDBRANCH  24   5
ENDBRANCH  20  23
TORSDOF 2
ENDMDL
MODEL 7
REMARK VINA RESULT:      -6.4     21.723     23.608
REMARK  Name = 7142629
REMARK  4 active torsions:
REMARK  status: ('A' for Active; 'I' for Inactive)
REMARK    1  A    between atoms: O_5  and  C_24
REMARK    2  A    between atoms: O_5  and  C_29
REMARK    3  A    between atoms: C_17  and  C_21
REMARK    4  A    between atoms: C_20  and  C_23
REMARK                            x       y       z     vdW  Elec       q    Type
REMARK                         _______ _______ _______ _____ _____    ______ ____
ROOT
ATOM      2  O   UNL     1       7.152  -5.056  33.834  0.00  0.00    -0.273 OA
ATOM      3  O   UNL     1       5.812 -10.041  34.973  0.00  0.00    -0.270 OA
ATOM      4  O   UNL     1       9.411  -3.968  36.882  0.00  0.00    -0.276 OA
ATOM      6  N   UNL     1       7.031  -8.082  35.134  0.00  0.00    -0.283 N 
ATOM      7  N   UNL     1       7.970  -5.772  36.622  0.00  0.00    -0.298 N 
ATOM      8  N   UNL     1       6.769  -6.834  32.465  0.00  0.00    -0.283 N 
ATOM      9  C   UNL     1       8.024  -7.188  34.558  0.00  0.00    +0.180 C 
ATOM     10  C   UNL     1       8.822  -6.423  35.622  0.00  0.00    +0.139 C 
ATOM     11  C   UNL     1       6.732  -7.924  36.558  0.00  0.00    +0.128 C 
ATOM     12  C   UNL     1       6.727  -6.461  36.979  0.00  0.00    +0.127 C 
ATOM     13  C   UNL     1       7.259  -6.265  33.621  0.00  0.00    +0.239 C 
ATOM     14  C   UNL     1       6.503  -9.169  34.444  0.00  0.00    +0.249 C 
ATOM     15  C   UNL     1       6.752  -9.283  32.982  0.00  0.00    +0.059 A 
ATOM     16  C   UNL     1       6.766  -8.195  32.094  0.00  0.00    +0.046 A 
ATOM     17  C   UNL     1       8.368  -4.555  37.176  0.00  0.00    +0.213 C 
ATOM     18  C   UNL     1       6.793 -10.592  32.468  0.00  0.00    +0.023 A 
ATOM     19  C   UNL     1       6.751  -8.446  30.711  0.00  0.00    +0.024 A 
ATOM     20  C   UNL     1       6.827 -10.822  31.093  0.00  0.00    -0.014 A 
ATOM     21  C   UNL     1       7.437  -3.954  38.201  0.00  0.00    +0.109 C 
ATOM     22  C   UNL     1       6.792  -9.748  30.214  0.00  0.00    +0.010 A 
ATOM     30  H   UNL     1       6.460  -6.177  31.752  0.00  0.00    +0.155 HD
ENDROOT
BRANCH  20  23
ATOM      1 CL   UNL     1       4.295 -14.774  28.966  0.00  0.00    -0.084 Cl
ATOM     23  C   UNL     1       6.874 -12.175  30.584  0.00  0.00    +0.025 A 
ATOM     24  C   UNL     1       8.066 -12.902  30.589  0.00  0.00    +0.128 A 
ATOM     25  C   UNL     1       5.709 -12.755  30.082  0.00  0.00    +0.032 A 
ATOM     26  C   UNL     1       8.091 -14.206  30.093  0.00  0.00    +0.047 A 
ATOM     27  C   UNL     1       5.734 -14.059  29.586  0.00  0.00    +0.042 A 
ATOM     28  C   UNL     1       6.926 -14.785  29.592  0.00  0.00    +0.023 A 
BRANCH  24   5
ATOM      5  O   UNL     1       9.221 -12.361  31.073  0.00  0.00    -0.495 OA
ATOM     29  C   UNL     1      10.298 -12.206  30.153  0.00  0.00    +0.277 C 
ENDBRANCH  24   5
ENDBRANCH  20  23
TORSDOF 2
ENDMDL
MODEL 8
REMARK VINA RESULT:      -6.4     31.793     34.542
REMARK  Name = 7142629
REMARK  4 active torsions:
REMARK  status: ('A' for Active; 'I' for Inactive)
REMARK    1  A    between atoms: O_5  and  C_24
REMARK    2  A    between atoms: O_5  and  C_29
REMARK    3  A    between atoms: C_17  and  C_21
REMARK    4  A    between atoms: C_20  and  C_23
REMARK                            x       y       z     vdW  Elec       q    Type
REMARK                         _______ _______ _______ _____ _____    ______ ____
ROOT
ATOM      2  O   UNL     1     -12.841  -3.347  12.586  0.00  0.00    -0.273 OA
ATOM      3  O   UNL     1     -12.432  -8.617  12.513  0.00  0.00    -0.270 OA
ATOM      4  O   UNL     1     -16.285  -2.645  10.790  0.00  0.00    -0.276 OA
ATOM      6  N   UNL     1     -13.498  -6.570  12.362  0.00  0.00    -0.283 N 
ATOM      7  N   UNL     1     -14.974  -4.561  10.873  0.00  0.00    -0.298 N 
ATOM      8  N   UNL     1     -11.886  -4.777  14.077  0.00  0.00    -0.283 N 
ATOM      9  C   UNL     1     -14.035  -5.397  13.037  0.00  0.00    +0.180 C 
ATOM     10  C   UNL     1     -15.231  -4.784  12.299  0.00  0.00    +0.139 C 
ATOM     11  C   UNL     1     -13.948  -6.820  10.992  0.00  0.00    +0.128 C 
ATOM     12  C   UNL     1     -14.104  -5.529  10.199  0.00  0.00    +0.127 C 
ATOM     13  C   UNL     1     -12.870  -4.428  13.177  0.00  0.00    +0.239 C 
ATOM     14  C   UNL     1     -12.733  -7.532  13.013  0.00  0.00    +0.249 C 
ATOM     15  C   UNL     1     -12.218  -7.239  14.378  0.00  0.00    +0.059 A 
ATOM     16  C   UNL     1     -11.746  -5.984  14.793  0.00  0.00    +0.046 A 
ATOM     17  C   UNL     1     -15.553  -3.464  10.233  0.00  0.00    +0.213 C 
ATOM     18  C   UNL     1     -12.041  -8.354  15.219  0.00  0.00    +0.023 A 
ATOM     19  C   UNL     1     -11.047  -5.888  16.010  0.00  0.00    +0.024 A 
ATOM     20  C   UNL     1     -11.389  -8.232  16.444  0.00  0.00    -0.014 A 
ATOM     21  C   UNL     1     -15.242  -3.311   8.764  0.00  0.00    +0.109 C 
ATOM     22  C   UNL     1     -10.879  -7.000  16.834  0.00  0.00    +0.010 A 
ATOM     30  H   UNL     1     -11.238  -4.033  14.325  0.00  0.00    +0.155 HD
ENDROOT
BRANCH  20  23
ATOM      1 CL   UNL     1     -13.348 -11.256  20.127  0.00  0.00    -0.084 Cl
ATOM     23  C   UNL     1     -11.222  -9.388  17.297  0.00  0.00    +0.025 A 
ATOM     24  C   UNL     1     -10.064 -10.165  17.234  0.00  0.00    +0.128 A 
ATOM     25  C   UNL     1     -12.237  -9.727  18.192  0.00  0.00    +0.032 A 
ATOM     26  C   UNL     1      -9.921 -11.277  18.064  0.00  0.00    +0.047 A 
ATOM     27  C   UNL     1     -12.095 -10.840  19.023  0.00  0.00    +0.042 A 
ATOM     28  C   UNL     1     -10.937 -11.614  18.959  0.00  0.00    +0.023 A 
BRANCH  24   5
ATOM      5  O   UNL     1      -9.055  -9.859  16.368  0.00  0.00    -0.495 OA
ATOM     29  C   UNL     1      -7.852  -9.342  16.933  0.00  0.00    +0.277 C 
ENDBRANCH  24   5
ENDBRANCH  20  23
TORSDOF 2
ENDMDL
MODEL 9
REMARK VINA RESULT:      -6.3     15.048     16.369
REMARK  Name = 7142629
REMARK  4 active torsions:
REMARK  status: ('A' for Active; 'I' for Inactive)
REMARK    1  A    between atoms: O_5  and  C_24
REMARK    2  A    between atoms: O_5  and  C_29
REMARK    3  A    between atoms: C_17  and  C_21
REMARK    4  A    between atoms: C_20  and  C_23
REMARK                            x       y       z     vdW  Elec       q    Type
REMARK                         _______ _______ _______ _____ _____    ______ ____
ROOT
ATOM      2  O   UNL     1      12.077   9.413   7.259  0.00  0.00    -0.273 OA
ATOM      3  O   UNL     1      14.368   7.230   3.025  0.00  0.00    -0.270 OA
ATOM      4  O   UNL     1       9.492   6.677   8.447  0.00  0.00    -0.276 OA
ATOM      6  N   UNL     1      13.134   7.279   4.981  0.00  0.00    -0.283 N 
ATOM      7  N   UNL     1      10.658   6.905   6.451  0.00  0.00    -0.298 N 
ATOM      8  N   UNL     1      14.199   9.609   6.460  0.00  0.00    -0.283 N 
ATOM      9  C   UNL     1      13.113   7.395   6.432  0.00  0.00    +0.180 C 
ATOM     10  C   UNL     1      11.955   6.619   7.072  0.00  0.00    +0.139 C 
ATOM     11  C   UNL     1      11.946   6.719   4.336  0.00  0.00    +0.128 C 
ATOM     12  C   UNL     1      10.662   7.178   5.011  0.00  0.00    +0.127 C 
ATOM     13  C   UNL     1      13.056   8.886   6.729  0.00  0.00    +0.239 C 
ATOM     14  C   UNL     1      14.278   7.506   4.223  0.00  0.00    +0.249 C 
ATOM     15  C   UNL     1      15.457   8.142   4.870  0.00  0.00    +0.059 A 
ATOM     16  C   UNL     1      15.377   9.174   5.819  0.00  0.00    +0.046 A 
ATOM     17  C   UNL     1       9.505   6.905   7.237  0.00  0.00    +0.213 C 
ATOM     18  C   UNL     1      16.712   7.787   4.342  0.00  0.00    +0.023 A 
ATOM     19  C   UNL     1      16.548   9.871   6.165  0.00  0.00    +0.024 A 
ATOM     20  C   UNL     1      17.870   8.457   4.734  0.00  0.00    -0.014 A 
ATOM     21  C   UNL     1       8.211   7.204   6.519  0.00  0.00    +0.109 C 
ATOM     22  C   UNL     1      17.786   9.509   5.636  0.00  0.00    +0.010 A 
ATOM     30  H   UNL     1      14.229  10.543   6.863  0.00  0.00    +0.155 HD
ENDROOT
BRANCH  20  23
ATOM      1 CL   UNL     1      20.770   7.705   0.541  0.00  0.00    -0.084 Cl
ATOM     23  C   UNL     1      19.152   8.074   4.184  0.00  0.00    +0.025 A 
ATOM     24  C   UNL     1      20.210   7.708   5.017  0.00  0.00    +0.128 A 
ATOM     25  C   UNL     1      19.327   8.072   2.799  0.00  0.00    +0.032 A 
ATOM     26  C   UNL     1      21.439   7.342   4.469  0.00  0.00    +0.047 A 
ATOM     27  C   UNL     1      20.556   7.706   2.250  0.00  0.00    +0.042 A 
ATOM     28  C   UNL     1      21.612   7.340   3.085  0.00  0.00    +0.023 A 
BRANCH  24   5
ATOM      5  O   UNL     1      20.069   7.700   6.375  0.00  0.00    -0.495 OA
ATOM     29  C   UNL     1      20.830   8.655   7.110  0.00  0.00    +0.277 C 
ENDBRANCH  24   5
ENDBRANCH  20  23
TORSDOF 2
ENDMDL
MODEL 10
REMARK VINA RESULT:      -6.3     29.500     31.438
REMARK  Name = 7142629
REMARK  4 active torsions:
REMARK  status: ('A' for Active; 'I' for Inactive)
REMARK    1  A    between atoms: O_5  and  C_24
REMARK    2  A    between atoms: O_5  and  C_29
REMARK    3  A    between atoms: C_17  and  C_21
REMARK    4  A    between atoms: C_20  and  C_23
REMARK                            x       y       z     vdW  Elec       q    Type
REMARK                         _______ _______ _______ _____ _____    ______ ____
ROOT
ATOM      2  O   UNL     1      -8.318 -10.657  20.089  0.00  0.00    -0.273 OA
ATOM      3  O   UNL     1      -8.681  -9.210  15.018  0.00  0.00    -0.270 OA
ATOM      4  O   UNL     1     -11.710 -12.556  20.772  0.00  0.00    -0.276 OA
ATOM      6  N   UNL     1      -9.216 -10.398  16.928  0.00  0.00    -0.283 N 
ATOM      7  N   UNL     1     -11.071 -11.158  19.029  0.00  0.00    -0.298 N 
ATOM      8  N   UNL     1      -6.708 -10.435  18.495  0.00  0.00    -0.283 N 
ATOM      9  C   UNL     1      -8.869 -11.448  17.875  0.00  0.00    +0.180 C 
ATOM     10  C   UNL     1     -10.101 -12.119  18.495  0.00  0.00    +0.139 C 
ATOM     11  C   UNL     1     -10.606  -9.940  16.915  0.00  0.00    +0.128 C 
ATOM     12  C   UNL     1     -11.200  -9.885  18.316  0.00  0.00    +0.127 C 
ATOM     13  C   UNL     1      -7.972 -10.791  18.913  0.00  0.00    +0.239 C 
ATOM     14  C   UNL     1      -8.344  -9.954  15.940  0.00  0.00    +0.249 C 
ATOM     15  C   UNL     1      -6.915 -10.366  16.002  0.00  0.00    +0.059 A 
ATOM     16  C   UNL     1      -6.175 -10.478  17.190  0.00  0.00    +0.046 A 
ATOM     17  C   UNL     1     -11.811 -11.488  20.165  0.00  0.00    +0.213 C 
ATOM     18  C   UNL     1      -6.253 -10.468  14.765  0.00  0.00    +0.023 A 
ATOM     19  C   UNL     1      -4.779 -10.619  17.110  0.00  0.00    +0.024 A 
ATOM     20  C   UNL     1      -4.873 -10.658  14.704  0.00  0.00    -0.014 A 
ATOM     21  C   UNL     1     -12.791 -10.446  20.646  0.00  0.00    +0.109 C 
ATOM     22  C   UNL     1      -4.133 -10.720  15.878  0.00  0.00    +0.010 A 
ATOM     30  H   UNL     1      -6.051 -10.207  19.238  0.00  0.00    +0.155 HD
ENDROOT
BRANCH  20  23
ATOM      1 CL   UNL     1      -4.411  -8.928   9.872  0.00  0.00    -0.084 Cl
ATOM     23  C   UNL     1      -4.210 -10.766  13.423  0.00  0.00    +0.025 A 
ATOM     24  C   UNL     1      -3.210 -11.716  13.210  0.00  0.00    +0.128 A 
ATOM     25  C   UNL     1      -4.581  -9.904  12.390  0.00  0.00    +0.032 A 
ATOM     26  C   UNL     1      -2.583 -11.804  11.967  0.00  0.00    +0.047 A 
ATOM     27  C   UNL     1      -3.953  -9.992  11.146  0.00  0.00    +0.042 A 
ATOM     28  C   UNL     1      -2.955 -10.943  10.935  0.00  0.00    +0.023 A 
BRANCH  24   5
ATOM      5  O   UNL     1      -2.827 -12.572  14.201  0.00  0.00    -0.495 OA
ATOM     29  C   UNL     1      -2.832 -13.963  13.893  0.00  0.00    +0.277 C 
ENDBRANCH  24   5
ENDBRANCH  20  23
TORSDOF 2
ENDMDL
