MODEL 1
REMARK VINA RESULT:      -6.6      0.000      0.000
REMARK  Name = 11912395
REMARK  7 active torsions:
REMARK  status: ('A' for Active; 'I' for Inactive)
REMARK    1  A    between atoms: N_7  and  C_12
REMARK    2  A    between atoms: N_8  and  C_22
REMARK    3  A    between atoms: C_9  and  C_14
REMARK    4  A    between atoms: C_10  and  C_18
REMARK    5  A    between atoms: C_14  and  C_19
REMARK    6  A    between atoms: C_18  and  C_20
REMARK    7  A    between atoms: C_25  and  C_28
REMARK                            x       y       z     vdW  Elec       q    Type
REMARK                         _______ _______ _______ _____ _____    ______ ____
ROOT
ATOM      5  O   UNL     1      18.984  10.654  21.229  0.00  0.00    -0.252 OA
ATOM      6  N   UNL     1      16.763  10.037  21.400  0.00  0.00    -0.285 N 
ATOM      8  N   UNL     1      18.440   8.770  22.469  0.00  0.00    -0.269 N 
ATOM      9  C   UNL     1      14.385   9.700  19.786  0.00  0.00    +0.004 C 
ATOM     10  C   UNL     1      14.874   8.576  20.736  0.00  0.00    +0.010 C 
ATOM     11  C   UNL     1      15.538  10.623  19.350  0.00  0.00    +0.023 C 
ATOM     13  C   UNL     1      15.665   9.196  21.900  0.00  0.00    +0.113 C 
ATOM     17  C   UNL     1      16.320  11.148  20.554  0.00  0.00    +0.109 C 
ATOM     21  C   UNL     1      18.137   9.879  21.679  0.00  0.00    +0.306 C 
ATOM     30  H   UNL     1      17.745   8.444  23.131  0.00  0.00    +0.156 HD
ENDROOT
BRANCH   8  22
ATOM     22  C   UNL     1      19.632   8.004  22.453  0.00  0.00    +0.035 A 
ATOM     23  C   UNL     1      19.729   6.881  21.631  0.00  0.00    +0.035 A 
ATOM     24  C   UNL     1      20.708   8.373  23.260  0.00  0.00    +0.023 A 
ATOM     25  C   UNL     1      20.904   6.128  21.617  0.00  0.00    +0.057 A 
ATOM     26  C   UNL     1      21.882   7.621  23.245  0.00  0.00    +0.002 A 
ATOM     27  C   UNL     1      21.980   6.497  22.423  0.00  0.00    +0.012 A 
BRANCH  25  28
ATOM      1  F   UNL     1      22.032   4.996  19.836  0.00  0.00    -0.166 F 
ATOM      2  F   UNL     1      21.218   3.765  21.425  0.00  0.00    -0.166 F 
ATOM      3  F   UNL     1      19.882   4.718  19.998  0.00  0.00    -0.166 F 
ATOM     28  C   UNL     1      21.009   4.927  20.738  0.00  0.00    +0.417 C 
ENDBRANCH  25  28
ENDBRANCH   8  22
BRANCH  10  18
ATOM     18  C   UNL     1      15.701   7.488  20.044  0.00  0.00    +0.002 C 
ATOM     20  C   UNL     1      16.090   6.394  21.017  0.00  0.00    +0.004 C 
ENDBRANCH  10  18
BRANCH   9  14
ATOM     14  C   UNL     1      13.631   9.169  18.567  0.00  0.00    +0.099 C 
BRANCH  14  19
ATOM      4  O   UNL     1      11.876   7.533  18.240  0.00  0.00    -0.276 OA
ATOM      7  N   UNL     1      11.937   8.757  20.211  0.00  0.00    -0.312 N 
ATOM     19  C   UNL     1      12.396   8.385  18.956  0.00  0.00    +0.214 C 
ATOM     29  H   UNL     1      12.426   9.479  20.735  0.00  0.00    +0.149 HD
BRANCH   7  12
ATOM     12  C   UNL     1      10.778   8.165  20.816  0.00  0.00    +0.073 C 
ATOM     15  C   UNL     1      10.581   8.189  22.303  0.00  0.00    +0.024 C 
ATOM     16  C   UNL     1      10.878   6.894  21.606  0.00  0.00    +0.024 C 
ENDBRANCH   7  12
ENDBRANCH  14  19
ENDBRANCH   9  14
TORSDOF 6
ENDMDL
MODEL 2
REMARK VINA RESULT:      -6.5     28.020     30.242
REMARK  Name = 11912395
REMARK  7 active torsions:
REMARK  status: ('A' for Active; 'I' for Inactive)
REMARK    1  A    between atoms: N_7  and  C_12
REMARK    2  A    between atoms: N_8  and  C_22
REMARK    3  A    between atoms: C_9  and  C_14
REMARK    4  A    between atoms: C_10  and  C_18
REMARK    5  A    between atoms: C_14  and  C_19
REMARK    6  A    between atoms: C_18  and  C_20
REMARK    7  A    between atoms: C_25  and  C_28
REMARK                            x       y       z     vdW  Elec       q    Type
REMARK                         _______ _______ _______ _____ _____    ______ ____
ROOT
ATOM      5  O   UNL     1      -2.210 -10.874  15.733  0.00  0.00    -0.252 OA
ATOM      6  N   UNL     1      -4.286 -11.718  16.299  0.00  0.00    -0.285 N 
ATOM      8  N   UNL     1      -3.648 -11.535  14.037  0.00  0.00    -0.269 N 
ATOM      9  C   UNL     1      -6.534 -11.193  18.044  0.00  0.00    +0.004 C 
ATOM     10  C   UNL     1      -6.738 -11.438  16.526  0.00  0.00    +0.010 C 
ATOM     11  C   UNL     1      -5.125 -10.656  18.353  0.00  0.00    +0.023 C 
ATOM     13  C   UNL     1      -5.594 -12.313  15.989  0.00  0.00    +0.113 C 
ATOM     17  C   UNL     1      -4.042 -11.539  17.732  0.00  0.00    +0.109 C 
ATOM     21  C   UNL     1      -3.290 -11.348  15.371  0.00  0.00    +0.306 C 
ATOM     30  H   UNL     1      -4.303 -12.275  13.812  0.00  0.00    +0.156 HD
ENDROOT
BRANCH   8  22
ATOM     22  C   UNL     1      -3.208 -10.788  12.916  0.00  0.00    +0.035 A 
ATOM     23  C   UNL     1      -4.140 -10.229  12.041  0.00  0.00    +0.035 A 
ATOM     24  C   UNL     1      -1.844 -10.612  12.688  0.00  0.00    +0.023 A 
ATOM     25  C   UNL     1      -3.705  -9.494  10.938  0.00  0.00    +0.057 A 
ATOM     26  C   UNL     1      -1.409  -9.876  11.585  0.00  0.00    +0.002 A 
ATOM     27  C   UNL     1      -2.341  -9.317  10.710  0.00  0.00    +0.012 A 
BRANCH  25  28
ATOM      1  F   UNL     1      -5.119  -7.648  10.369  0.00  0.00    -0.166 F 
ATOM      2  F   UNL     1      -4.233  -8.752   8.725  0.00  0.00    -0.166 F 
ATOM      3  F   UNL     1      -5.836  -9.645   9.893  0.00  0.00    -0.166 F 
ATOM     28  C   UNL     1      -4.701  -8.895  10.001  0.00  0.00    +0.417 C 
ENDBRANCH  25  28
ENDBRANCH   8  22
BRANCH  10  18
ATOM     18  C   UNL     1      -6.867 -10.155  15.698  0.00  0.00    +0.002 C 
ATOM     20  C   UNL     1      -7.164 -10.468  14.246  0.00  0.00    +0.004 C 
ENDBRANCH  10  18
BRANCH   9  14
ATOM     14  C   UNL     1      -7.602 -10.284  18.653  0.00  0.00    +0.099 C 
BRANCH  14  19
ATOM      4  O   UNL     1      -8.798 -12.292  19.287  0.00  0.00    -0.276 OA
ATOM      7  N   UNL     1      -9.819 -10.225  19.560  0.00  0.00    -0.312 N 
ATOM     19  C   UNL     1      -8.779 -11.067  19.193  0.00  0.00    +0.214 C 
ATOM     29  H   UNL     1      -9.720  -9.220  19.442  0.00  0.00    +0.149 HD
BRANCH   7  12
ATOM     12  C   UNL     1     -11.054 -10.715  20.102  0.00  0.00    +0.073 C 
ATOM     15  C   UNL     1     -12.326 -10.661  19.306  0.00  0.00    +0.024 C 
ATOM     16  C   UNL     1     -12.152  -9.775  20.505  0.00  0.00    +0.024 C 
ENDBRANCH   7  12
ENDBRANCH  14  19
ENDBRANCH   9  14
TORSDOF 6
ENDMDL
MODEL 3
REMARK VINA RESULT:      -6.4      3.534      4.231
REMARK  Name = 11912395
REMARK  7 active torsions:
REMARK  status: ('A' for Active; 'I' for Inactive)
REMARK    1  A    between atoms: N_7  and  C_12
REMARK    2  A    between atoms: N_8  and  C_22
REMARK    3  A    between atoms: C_9  and  C_14
REMARK    4  A    between atoms: C_10  and  C_18
REMARK    5  A    between atoms: C_14  and  C_19
REMARK    6  A    between atoms: C_18  and  C_20
REMARK    7  A    between atoms: C_25  and  C_28
REMARK                            x       y       z     vdW  Elec       q    Type
REMARK                         _______ _______ _______ _____ _____    ______ ____
ROOT
ATOM      5  O   UNL     1      17.633  10.374  20.779  0.00  0.00    -0.252 OA
ATOM      6  N   UNL     1      15.701  10.491  22.044  0.00  0.00    -0.285 N 
ATOM      8  N   UNL     1      16.829   8.438  21.773  0.00  0.00    -0.269 N 
ATOM      9  C   UNL     1      13.032  11.606  21.987  0.00  0.00    +0.004 C 
ATOM     10  C   UNL     1      13.266  10.106  22.302  0.00  0.00    +0.010 C 
ATOM     11  C   UNL     1      14.178  12.201  21.149  0.00  0.00    +0.023 C 
ATOM     13  C   UNL     1      14.664   9.922  22.917  0.00  0.00    +0.113 C 
ATOM     17  C   UNL     1      15.540  11.923  21.787  0.00  0.00    +0.109 C 
ATOM     21  C   UNL     1      16.798   9.802  21.484  0.00  0.00    +0.306 C 
ATOM     30  H   UNL     1      16.418   8.118  22.642  0.00  0.00    +0.156 HD
ENDROOT
BRANCH   8  22
ATOM     22  C   UNL     1      17.369   7.402  20.971  0.00  0.00    +0.035 A 
ATOM     23  C   UNL     1      18.638   6.892  21.251  0.00  0.00    +0.035 A 
ATOM     24  C   UNL     1      16.634   6.893  19.901  0.00  0.00    +0.023 A 
ATOM     25  C   UNL     1      19.168   5.872  20.461  0.00  0.00    +0.057 A 
ATOM     26  C   UNL     1      17.164   5.873  19.111  0.00  0.00    +0.002 A 
ATOM     27  C   UNL     1      18.432   5.363  19.391  0.00  0.00    +0.012 A 
BRANCH  25  28
ATOM      1  F   UNL     1      20.667   4.007  20.434  0.00  0.00    -0.166 F 
ATOM      2  F   UNL     1      21.530   5.968  20.094  0.00  0.00    -0.166 F 
ATOM      3  F   UNL     1      20.846   5.414  22.083  0.00  0.00    -0.166 F 
ATOM     28  C   UNL     1      20.524   5.326  20.759  0.00  0.00    +0.417 C 
ENDBRANCH  25  28
ENDBRANCH   8  22
BRANCH  10  18
ATOM     18  C   UNL     1      13.085   9.178  21.095  0.00  0.00    +0.002 C 
ATOM     20  C   UNL     1      13.291   7.728  21.483  0.00  0.00    +0.004 C 
ENDBRANCH  10  18
BRANCH   9  14
ATOM     14  C   UNL     1      11.683  11.875  21.321  0.00  0.00    +0.099 C 
BRANCH  14  19
ATOM      4  O   UNL     1      11.225  14.086  20.445  0.00  0.00    -0.276 OA
ATOM      7  N   UNL     1      10.987  13.692  22.720  0.00  0.00    -0.312 N 
ATOM     19  C   UNL     1      11.280  13.332  21.413  0.00  0.00    +0.214 C 
ATOM     29  H   UNL     1      11.065  13.003  23.464  0.00  0.00    +0.149 HD
BRANCH   7  12
ATOM     12  C   UNL     1      10.580  15.019  23.081  0.00  0.00    +0.073 C 
ATOM     15  C   UNL     1      10.228  15.365  24.499  0.00  0.00    +0.024 C 
ATOM     16  C   UNL     1       9.157  15.321  23.450  0.00  0.00    +0.024 C 
ENDBRANCH   7  12
ENDBRANCH  14  19
ENDBRANCH   9  14
TORSDOF 6
ENDMDL
MODEL 4
REMARK VINA RESULT:      -6.3     14.375     17.759
REMARK  Name = 11912395
REMARK  7 active torsions:
REMARK  status: ('A' for Active; 'I' for Inactive)
REMARK    1  A    between atoms: N_7  and  C_12
REMARK    2  A    between atoms: N_8  and  C_22
REMARK    3  A    between atoms: C_9  and  C_14
REMARK    4  A    between atoms: C_10  and  C_18
REMARK    5  A    between atoms: C_14  and  C_19
REMARK    6  A    between atoms: C_18  and  C_20
REMARK    7  A    between atoms: C_25  and  C_28
REMARK                            x       y       z     vdW  Elec       q    Type
REMARK                         _______ _______ _______ _____ _____    ______ ____
ROOT
ATOM      5  O   UNL     1       8.598   7.607   8.279  0.00  0.00    -0.252 OA
ATOM      6  N   UNL     1      10.228   7.005   6.754  0.00  0.00    -0.285 N 
ATOM      8  N   UNL     1      10.358   9.068   7.889  0.00  0.00    -0.269 N 
ATOM      9  C   UNL     1      10.534   5.881   4.105  0.00  0.00    +0.004 C 
ATOM     10  C   UNL     1      11.253   7.195   4.505  0.00  0.00    +0.010 C 
ATOM     11  C   UNL     1       9.267   5.642   4.947  0.00  0.00    +0.023 C 
ATOM     13  C   UNL     1      11.488   7.211   6.025  0.00  0.00    +0.113 C 
ATOM     17  C   UNL     1       9.564   5.737   6.444  0.00  0.00    +0.109 C 
ATOM     21  C   UNL     1       9.653   7.880   7.700  0.00  0.00    +0.306 C 
ATOM     30  H   UNL     1      11.361   9.062   7.746  0.00  0.00    +0.156 HD
ENDROOT
BRANCH   8  22
ATOM     22  C   UNL     1       9.830  10.331   8.255  0.00  0.00    +0.035 A 
ATOM     23  C   UNL     1       9.787  10.706   9.598  0.00  0.00    +0.035 A 
ATOM     24  C   UNL     1       9.355  11.199   7.273  0.00  0.00    +0.023 A 
ATOM     25  C   UNL     1       9.267  11.950   9.957  0.00  0.00    +0.057 A 
ATOM     26  C   UNL     1       8.836  12.443   7.632  0.00  0.00    +0.002 A 
ATOM     27  C   UNL     1       8.792  12.818   8.975  0.00  0.00    +0.012 A 
BRANCH  25  28
ATOM      1  F   UNL     1      10.108  11.676  12.181  0.00  0.00    -0.166 F 
ATOM      2  F   UNL     1       9.495  13.674  11.600  0.00  0.00    -0.166 F 
ATOM      3  F   UNL     1       7.996  12.140  11.958  0.00  0.00    -0.166 F 
ATOM     28  C   UNL     1       9.220  12.352  11.393  0.00  0.00    +0.417 C 
ENDBRANCH  25  28
ENDBRANCH   8  22
BRANCH  10  18
ATOM     18  C   UNL     1      10.521   8.467   4.063  0.00  0.00    +0.002 C 
ATOM     20  C   UNL     1      11.310   9.708   4.426  0.00  0.00    +0.004 C 
ENDBRANCH  10  18
BRANCH   9  14
ATOM     14  C   UNL     1      10.211   5.803   2.613  0.00  0.00    +0.099 C 
BRANCH  14  19
ATOM      4  O   UNL     1      10.143   3.778   1.288  0.00  0.00    -0.276 OA
ATOM      7  N   UNL     1      12.152   4.450   2.236  0.00  0.00    -0.312 N 
ATOM     19  C   UNL     1      10.797   4.567   1.964  0.00  0.00    +0.214 C 
ATOM     29  H   UNL     1      12.615   5.148   2.813  0.00  0.00    +0.149 HD
BRANCH   7  12
ATOM     12  C   UNL     1      12.947   3.364   1.739  0.00  0.00    +0.073 C 
ATOM     15  C   UNL     1      14.442   3.469   1.661  0.00  0.00    +0.024 C 
ATOM     16  C   UNL     1      13.625   3.446   0.403  0.00  0.00    +0.024 C 
ENDBRANCH   7  12
ENDBRANCH  14  19
ENDBRANCH   9  14
TORSDOF 6
ENDMDL
MODEL 5
REMARK VINA RESULT:      -6.3     27.959     30.446
REMARK  Name = 11912395
REMARK  7 active torsions:
REMARK  status: ('A' for Active; 'I' for Inactive)
REMARK    1  A    between atoms: N_7  and  C_12
REMARK    2  A    between atoms: N_8  and  C_22
REMARK    3  A    between atoms: C_9  and  C_14
REMARK    4  A    between atoms: C_10  and  C_18
REMARK    5  A    between atoms: C_14  and  C_19
REMARK    6  A    between atoms: C_18  and  C_20
REMARK    7  A    between atoms: C_25  and  C_28
REMARK                            x       y       z     vdW  Elec       q    Type
REMARK                         _______ _______ _______ _____ _____    ______ ____
ROOT
ATOM      5  O   UNL     1      -3.071 -12.903  11.641  0.00  0.00    -0.252 OA
ATOM      6  N   UNL     1      -3.647 -11.297  10.080  0.00  0.00    -0.285 N 
ATOM      8  N   UNL     1      -2.845 -10.664  12.205  0.00  0.00    -0.269 N 
ATOM      9  C   UNL     1      -5.732 -10.641   8.184  0.00  0.00    +0.004 C 
ATOM     10  C   UNL     1      -5.234  -9.599   9.220  0.00  0.00    +0.010 C 
ATOM     11  C   UNL     1      -5.499 -12.084   8.667  0.00  0.00    +0.023 C 
ATOM     13  C   UNL     1      -3.778  -9.912   9.604  0.00  0.00    +0.113 C 
ATOM     17  C   UNL     1      -4.048 -12.303   9.095  0.00  0.00    +0.109 C 
ATOM     21  C   UNL     1      -3.166 -11.710  11.341  0.00  0.00    +0.306 C 
ATOM     30  H   UNL     1      -2.537  -9.784  11.807  0.00  0.00    +0.156 HD
ENDROOT
BRANCH   8  22
ATOM     22  C   UNL     1      -2.910 -10.668  13.621  0.00  0.00    +0.035 A 
ATOM     23  C   UNL     1      -4.145 -10.575  14.263  0.00  0.00    +0.035 A 
ATOM     24  C   UNL     1      -1.739 -10.766  14.372  0.00  0.00    +0.023 A 
ATOM     25  C   UNL     1      -4.207 -10.580  15.657  0.00  0.00    +0.057 A 
ATOM     26  C   UNL     1      -1.801 -10.771  15.766  0.00  0.00    +0.002 A 
ATOM     27  C   UNL     1      -3.036 -10.678  16.408  0.00  0.00    +0.012 A 
BRANCH  25  28
ATOM      1  F   UNL     1      -6.276  -9.412  15.942  0.00  0.00    -0.166 F 
ATOM      2  F   UNL     1      -6.329 -11.570  16.149  0.00  0.00    -0.166 F 
ATOM      3  F   UNL     1      -5.406 -10.354  17.698  0.00  0.00    -0.166 F 
ATOM     28  C   UNL     1      -5.527 -10.481  16.345  0.00  0.00    +0.417 C 
ENDBRANCH  25  28
ENDBRANCH   8  22
BRANCH  10  18
ATOM     18  C   UNL     1      -6.110  -9.495  10.473  0.00  0.00    +0.002 C 
ATOM     20  C   UNL     1      -5.575  -8.449  11.430  0.00  0.00    +0.004 C 
ENDBRANCH  10  18
BRANCH   9  14
ATOM     14  C   UNL     1      -7.193 -10.437   7.784  0.00  0.00    +0.099 C 
BRANCH  14  19
ATOM      4  O   UNL     1      -6.884  -8.882   5.953  0.00  0.00    -0.276 OA
ATOM      7  N   UNL     1      -8.253  -8.288   7.731  0.00  0.00    -0.312 N 
ATOM     19  C   UNL     1      -7.404  -9.138   7.036  0.00  0.00    +0.214 C 
ATOM     29  H   UNL     1      -8.636  -8.579   8.627  0.00  0.00    +0.149 HD
BRANCH   7  12
ATOM     12  C   UNL     1      -8.617  -6.990   7.240  0.00  0.00    +0.073 C 
ATOM     15  C   UNL     1      -8.950  -5.870   8.182  0.00  0.00    +0.024 C 
ATOM     16  C   UNL     1     -10.028  -6.490   7.342  0.00  0.00    +0.024 C 
ENDBRANCH   7  12
ENDBRANCH  14  19
ENDBRANCH   9  14
TORSDOF 6
ENDMDL
MODEL 6
REMARK VINA RESULT:      -6.2     28.351     30.057
REMARK  Name = 11912395
REMARK  7 active torsions:
REMARK  status: ('A' for Active; 'I' for Inactive)
REMARK    1  A    between atoms: N_7  and  C_12
REMARK    2  A    between atoms: N_8  and  C_22
REMARK    3  A    between atoms: C_9  and  C_14
REMARK    4  A    between atoms: C_10  and  C_18
REMARK    5  A    between atoms: C_14  and  C_19
REMARK    6  A    between atoms: C_18  and  C_20
REMARK    7  A    between atoms: C_25  and  C_28
REMARK                            x       y       z     vdW  Elec       q    Type
REMARK                         _______ _______ _______ _____ _____    ______ ____
ROOT
ATOM      5  O   UNL     1     -13.311  12.350  22.282  0.00  0.00    -0.252 OA
ATOM      6  N   UNL     1     -13.708  10.626  20.794  0.00  0.00    -0.285 N 
ATOM      8  N   UNL     1     -14.419  10.456  23.036  0.00  0.00    -0.269 N 
ATOM      9  C   UNL     1     -12.390   9.075  18.737  0.00  0.00    +0.004 C 
ATOM     10  C   UNL     1     -13.153   8.383  19.896  0.00  0.00    +0.010 C 
ATOM     11  C   UNL     1     -11.902  10.481  19.131  0.00  0.00    +0.023 C 
ATOM     13  C   UNL     1     -14.260   9.318  20.413  0.00  0.00    +0.113 C 
ATOM     17  C   UNL     1     -13.040  11.330  19.697  0.00  0.00    +0.109 C 
ATOM     21  C   UNL     1     -13.789  11.234  22.065  0.00  0.00    +0.306 C 
ATOM     30  H   UNL     1     -15.130   9.798  22.741  0.00  0.00    +0.156 HD
ENDROOT
BRANCH   8  22
ATOM     22  C   UNL     1     -14.173  10.459  24.431  0.00  0.00    +0.035 A 
ATOM     23  C   UNL     1     -12.862  10.451  24.909  0.00  0.00    +0.035 A 
ATOM     24  C   UNL     1     -15.241  10.470  25.327  0.00  0.00    +0.023 A 
ATOM     25  C   UNL     1     -12.621  10.454  26.283  0.00  0.00    +0.057 A 
ATOM     26  C   UNL     1     -15.001  10.474  26.701  0.00  0.00    +0.002 A 
ATOM     27  C   UNL     1     -13.690  10.465  27.179  0.00  0.00    +0.012 A 
BRANCH  25  28
ATOM      1  F   UNL     1     -10.961  11.435  27.700  0.00  0.00    -0.166 F 
ATOM      2  F   UNL     1     -10.877   9.284  27.429  0.00  0.00    -0.166 F 
ATOM      3  F   UNL     1     -10.297  10.606  25.802  0.00  0.00    -0.166 F 
ATOM     28  C   UNL     1     -11.220  10.445  26.795  0.00  0.00    +0.417 C 
ENDBRANCH  25  28
ENDBRANCH   8  22
BRANCH  10  18
ATOM     18  C   UNL     1     -12.255   7.926  21.051  0.00  0.00    +0.002 C 
ATOM     20  C   UNL     1     -12.205   6.414  21.140  0.00  0.00    +0.004 C 
ENDBRANCH  10  18
BRANCH   9  14
ATOM     14  C   UNL     1     -11.233   8.236  18.195  0.00  0.00    +0.099 C 
BRANCH  14  19
ATOM      4  O   UNL     1      -9.868   9.486  16.635  0.00  0.00    -0.276 OA
ATOM      7  N   UNL     1     -11.549   8.106  15.823  0.00  0.00    -0.312 N 
ATOM     19  C   UNL     1     -10.787   8.694  16.823  0.00  0.00    +0.214 C 
ATOM     29  H   UNL     1     -12.297   7.464  16.070  0.00  0.00    +0.149 HD
BRANCH   7  12
ATOM     12  C   UNL     1     -11.331   8.373  14.431  0.00  0.00    +0.073 C 
ATOM     15  C   UNL     1     -11.898   7.474  13.371  0.00  0.00    +0.024 C 
ATOM     16  C   UNL     1     -10.417   7.512  13.609  0.00  0.00    +0.024 C 
ENDBRANCH   7  12
ENDBRANCH  14  19
ENDBRANCH   9  14
TORSDOF 6
ENDMDL
MODEL 7
REMARK VINA RESULT:      -6.1     17.879     20.610
REMARK  Name = 11912395
REMARK  7 active torsions:
REMARK  status: ('A' for Active; 'I' for Inactive)
REMARK    1  A    between atoms: N_7  and  C_12
REMARK    2  A    between atoms: N_8  and  C_22
REMARK    3  A    between atoms: C_9  and  C_14
REMARK    4  A    between atoms: C_10  and  C_18
REMARK    5  A    between atoms: C_14  and  C_19
REMARK    6  A    between atoms: C_18  and  C_20
REMARK    7  A    between atoms: C_25  and  C_28
REMARK                            x       y       z     vdW  Elec       q    Type
REMARK                         _______ _______ _______ _____ _____    ______ ____
ROOT
ATOM      5  O   UNL     1       9.566   7.350   3.215  0.00  0.00    -0.252 OA
ATOM      6  N   UNL     1      10.073   5.585   1.810  0.00  0.00    -0.285 N 
ATOM      8  N   UNL     1      10.106   5.297   4.150  0.00  0.00    -0.269 N 
ATOM      9  C   UNL     1      11.626   4.954  -0.548  0.00  0.00    +0.004 C 
ATOM     10  C   UNL     1      11.735   4.093   0.737  0.00  0.00    +0.010 C 
ATOM     11  C   UNL     1      11.170   6.391  -0.237  0.00  0.00    +0.023 C 
ATOM     13  C   UNL     1      10.421   4.184   1.530  0.00  0.00    +0.113 C 
ATOM     17  C   UNL     1       9.897   6.404   0.609  0.00  0.00    +0.109 C 
ATOM     21  C   UNL     1       9.881   6.165   3.082  0.00  0.00    +0.306 C 
ATOM     30  H   UNL     1       9.939   4.307   4.012  0.00  0.00    +0.156 HD
ENDROOT
BRANCH   8  22
ATOM     22  C   UNL     1      10.569   5.632   5.447  0.00  0.00    +0.035 A 
ATOM     23  C   UNL     1       9.886   5.172   6.573  0.00  0.00    +0.035 A 
ATOM     24  C   UNL     1      11.707   6.424   5.598  0.00  0.00    +0.023 A 
ATOM     25  C   UNL     1      10.343   5.502   7.849  0.00  0.00    +0.057 A 
ATOM     26  C   UNL     1      12.164   6.754   6.874  0.00  0.00    +0.002 A 
ATOM     27  C   UNL     1      11.481   6.294   8.000  0.00  0.00    +0.012 A 
BRANCH  25  28
ATOM      1  F   UNL     1      10.368   5.015  10.192  0.00  0.00    -0.166 F 
ATOM      2  F   UNL     1       8.503   5.747   9.359  0.00  0.00    -0.166 F 
ATOM      3  F   UNL     1       9.172   3.726   8.912  0.00  0.00    -0.166 F 
ATOM     28  C   UNL     1       9.613   5.010   9.053  0.00  0.00    +0.417 C 
ENDBRANCH  25  28
ENDBRANCH   8  22
BRANCH  10  18
ATOM     18  C   UNL     1      12.928   4.452   1.630  0.00  0.00    +0.002 C 
ATOM     20  C   UNL     1      13.942   3.328   1.669  0.00  0.00    +0.004 C 
ENDBRANCH  10  18
BRANCH   9  14
ATOM     14  C   UNL     1      12.911   4.964  -1.375  0.00  0.00    +0.099 C 
BRANCH  14  19
ATOM      4  O   UNL     1      13.535   4.619  -3.689  0.00  0.00    -0.276 OA
ATOM      7  N   UNL     1      11.289   4.614  -3.104  0.00  0.00    -0.312 N 
ATOM     19  C   UNL     1      12.648   4.715  -2.845  0.00  0.00    +0.214 C 
ATOM     29  H   UNL     1      10.621   4.713  -2.343  0.00  0.00    +0.149 HD
BRANCH   7  12
ATOM     12  C   UNL     1      10.769   4.381  -4.420  0.00  0.00    +0.073 C 
ATOM     15  C   UNL     1       9.476   3.648  -4.625  0.00  0.00    +0.024 C 
ATOM     16  C   UNL     1      10.772   3.007  -5.023  0.00  0.00    +0.024 C 
ENDBRANCH   7  12
ENDBRANCH  14  19
ENDBRANCH   9  14
TORSDOF 6
ENDMDL
MODEL 8
REMARK VINA RESULT:      -6.1     14.849     17.797
REMARK  Name = 11912395
REMARK  7 active torsions:
REMARK  status: ('A' for Active; 'I' for Inactive)
REMARK    1  A    between atoms: N_7  and  C_12
REMARK    2  A    between atoms: N_8  and  C_22
REMARK    3  A    between atoms: C_9  and  C_14
REMARK    4  A    between atoms: C_10  and  C_18
REMARK    5  A    between atoms: C_14  and  C_19
REMARK    6  A    between atoms: C_18  and  C_20
REMARK    7  A    between atoms: C_25  and  C_28
REMARK                            x       y       z     vdW  Elec       q    Type
REMARK                         _______ _______ _______ _____ _____    ______ ____
ROOT
ATOM      5  O   UNL     1      13.472   7.954   7.215  0.00  0.00    -0.252 OA
ATOM      6  N   UNL     1      14.075   8.819   5.158  0.00  0.00    -0.285 N 
ATOM      8  N   UNL     1      12.001   7.732   5.435  0.00  0.00    -0.269 N 
ATOM      9  C   UNL     1      16.316   8.941   3.332  0.00  0.00    +0.004 C 
ATOM     10  C   UNL     1      14.910   8.501   2.846  0.00  0.00    +0.010 C 
ATOM     11  C   UNL     1      16.509   8.682   4.837  0.00  0.00    +0.023 C 
ATOM     13  C   UNL     1      13.835   9.138   3.743  0.00  0.00    +0.113 C 
ATOM     17  C   UNL     1      15.370   9.285   5.659  0.00  0.00    +0.109 C 
ATOM     21  C   UNL     1      13.188   8.155   6.032  0.00  0.00    +0.306 C 
ATOM     30  H   UNL     1      11.640   8.260   4.649  0.00  0.00    +0.156 HD
ENDROOT
BRANCH   8  22
ATOM     22  C   UNL     1      11.213   6.609   5.790  0.00  0.00    +0.035 A 
ATOM     23  C   UNL     1      10.790   6.443   7.110  0.00  0.00    +0.035 A 
ATOM     24  C   UNL     1      10.861   5.670   4.822  0.00  0.00    +0.023 A 
ATOM     25  C   UNL     1      10.015   5.337   7.458  0.00  0.00    +0.057 A 
ATOM     26  C   UNL     1      10.085   4.564   5.171  0.00  0.00    +0.002 A 
ATOM     27  C   UNL     1       9.662   4.398   6.490  0.00  0.00    +0.012 A 
BRANCH  25  28
ATOM      1  F   UNL     1       8.552   6.004   9.231  0.00  0.00    -0.166 F 
ATOM      2  F   UNL     1       9.091   3.905   9.137  0.00  0.00    -0.166 F 
ATOM      3  F   UNL     1      10.562   5.375   9.772  0.00  0.00    -0.166 F 
ATOM     28  C   UNL     1       9.562   5.159   8.869  0.00  0.00    +0.417 C 
ENDBRANCH  25  28
ENDBRANCH   8  22
BRANCH  10  18
ATOM     18  C   UNL     1      14.720   6.982   2.776  0.00  0.00    +0.002 C 
ATOM     20  C   UNL     1      13.359   6.626   2.213  0.00  0.00    +0.004 C 
ENDBRANCH  10  18
BRANCH   9  14
ATOM     14  C   UNL     1      17.452   8.311   2.527  0.00  0.00    +0.099 C 
BRANCH  14  19
ATOM      4  O   UNL     1      19.208   9.836   3.200  0.00  0.00    -0.276 OA
ATOM      7  N   UNL     1      19.546   7.549   3.410  0.00  0.00    -0.312 N 
ATOM     19  C   UNL     1      18.815   8.680   3.075  0.00  0.00    +0.214 C 
ATOM     29  H   UNL     1      19.144   6.626   3.267  0.00  0.00    +0.149 HD
BRANCH   7  12
ATOM     12  C   UNL     1      20.873   7.622   3.951  0.00  0.00    +0.073 C 
ATOM     15  C   UNL     1      21.484   6.452   4.666  0.00  0.00    +0.024 C 
ATOM     16  C   UNL     1      21.104   7.684   5.432  0.00  0.00    +0.024 C 
ENDBRANCH   7  12
ENDBRANCH  14  19
ENDBRANCH   9  14
TORSDOF 6
ENDMDL
MODEL 9
REMARK VINA RESULT:      -6.1     28.789     31.986
REMARK  Name = 11912395
REMARK  7 active torsions:
REMARK  status: ('A' for Active; 'I' for Inactive)
REMARK    1  A    between atoms: N_7  and  C_12
REMARK    2  A    between atoms: N_8  and  C_22
REMARK    3  A    between atoms: C_9  and  C_14
REMARK    4  A    between atoms: C_10  and  C_18
REMARK    5  A    between atoms: C_14  and  C_19
REMARK    6  A    between atoms: C_18  and  C_20
REMARK    7  A    between atoms: C_25  and  C_28
REMARK                            x       y       z     vdW  Elec       q    Type
REMARK                         _______ _______ _______ _____ _____    ______ ____
ROOT
ATOM      5  O   UNL     1      -8.062 -14.284  17.015  0.00  0.00    -0.252 OA
ATOM      6  N   UNL     1      -5.946 -13.485  17.490  0.00  0.00    -0.285 N 
ATOM      8  N   UNL     1      -7.657 -13.366  19.107  0.00  0.00    -0.269 N 
ATOM      9  C   UNL     1      -3.832 -11.876  16.341  0.00  0.00    +0.004 C 
ATOM     10  C   UNL     1      -4.367 -11.594  17.769  0.00  0.00    +0.010 C 
ATOM     11  C   UNL     1      -4.883 -12.582  15.465  0.00  0.00    +0.023 C 
ATOM     13  C   UNL     1      -4.930 -12.891  18.373  0.00  0.00    +0.113 C 
ATOM     17  C   UNL     1      -5.446 -13.824  16.156  0.00  0.00    +0.109 C 
ATOM     21  C   UNL     1      -7.289 -13.761  17.821  0.00  0.00    +0.306 C 
ATOM     30  H   UNL     1      -6.948 -13.352  19.830  0.00  0.00    +0.156 HD
ENDROOT
BRANCH   8  22
ATOM     22  C   UNL     1      -8.941 -12.954  19.545  0.00  0.00    +0.035 A 
ATOM     23  C   UNL     1      -9.488 -11.760  19.074  0.00  0.00    +0.035 A 
ATOM     24  C   UNL     1      -9.657 -13.742  20.445  0.00  0.00    +0.023 A 
ATOM     25  C   UNL     1     -10.752 -11.355  19.506  0.00  0.00    +0.057 A 
ATOM     26  C   UNL     1     -10.920 -13.338  20.876  0.00  0.00    +0.002 A 
ATOM     27  C   UNL     1     -11.467 -12.143  20.406  0.00  0.00    +0.012 A 
BRANCH  25  28
ATOM      1  F   UNL     1     -12.159 -10.240  17.924  0.00  0.00    -0.166 F 
ATOM      2  F   UNL     1     -12.095  -9.422  19.932  0.00  0.00    -0.166 F 
ATOM      3  F   UNL     1     -10.386  -9.184  18.609  0.00  0.00    -0.166 F 
ATOM     28  C   UNL     1     -11.338 -10.079  19.003  0.00  0.00    +0.417 C 
ENDBRANCH  25  28
ENDBRANCH   8  22
BRANCH  10  18
ATOM     18  C   UNL     1      -5.412 -10.474  17.834  0.00  0.00    +0.002 C 
ATOM     20  C   UNL     1      -5.998 -10.353  19.226  0.00  0.00    +0.004 C 
ENDBRANCH  10  18
BRANCH   9  14
ATOM     14  C   UNL     1      -3.299 -10.626  15.642  0.00  0.00    +0.099 C 
BRANCH  14  19
ATOM      4  O   UNL     1      -1.420 -11.630  14.492  0.00  0.00    -0.276 OA
ATOM      7  N   UNL     1      -2.985 -10.423  13.275  0.00  0.00    -0.312 N 
ATOM     19  C   UNL     1      -2.450 -10.963  14.435  0.00  0.00    +0.214 C 
ATOM     29  H   UNL     1      -3.842  -9.876  13.321  0.00  0.00    +0.149 HD
BRANCH   7  12
ATOM     12  C   UNL     1      -2.372 -10.594  11.990  0.00  0.00    +0.073 C 
ATOM     15  C   UNL     1      -2.708  -9.687  10.842  0.00  0.00    +0.024 C 
ATOM     16  C   UNL     1      -3.153 -11.120  10.821  0.00  0.00    +0.024 C 
ENDBRANCH   7  12
ENDBRANCH  14  19
ENDBRANCH   9  14
TORSDOF 6
ENDMDL
MODEL 10
REMARK VINA RESULT:      -6.0     27.993     30.398
REMARK  Name = 11912395
REMARK  7 active torsions:
REMARK  status: ('A' for Active; 'I' for Inactive)
REMARK    1  A    between atoms: N_7  and  C_12
REMARK    2  A    between atoms: N_8  and  C_22
REMARK    3  A    between atoms: C_9  and  C_14
REMARK    4  A    between atoms: C_10  and  C_18
REMARK    5  A    between atoms: C_14  and  C_19
REMARK    6  A    between atoms: C_18  and  C_20
REMARK    7  A    between atoms: C_25  and  C_28
REMARK                            x       y       z     vdW  Elec       q    Type
REMARK                         _______ _______ _______ _____ _____    ______ ____
ROOT
ATOM      5  O   UNL     1      -6.944 -10.911  13.651  0.00  0.00    -0.252 OA
ATOM      6  N   UNL     1      -6.630 -10.799  11.364  0.00  0.00    -0.285 N 
ATOM      8  N   UNL     1      -4.841 -11.375  12.788  0.00  0.00    -0.269 N 
ATOM      9  C   UNL     1      -7.229  -9.120   9.085  0.00  0.00    +0.004 C 
ATOM     10  C   UNL     1      -5.784  -9.611   9.359  0.00  0.00    +0.010 C 
ATOM     11  C   UNL     1      -8.072  -9.072  10.372  0.00  0.00    +0.023 C 
ATOM     13  C   UNL     1      -5.831 -10.937  10.137  0.00  0.00    +0.113 C 
ATOM     17  C   UNL     1      -8.019 -10.401  11.125  0.00  0.00    +0.109 C 
ATOM     21  C   UNL     1      -6.189 -11.032  12.684  0.00  0.00    +0.306 C 
ATOM     30  H   UNL     1      -4.404 -11.860  12.013  0.00  0.00    +0.156 HD
ENDROOT
BRANCH   8  22
ATOM     22  C   UNL     1      -3.969 -11.110  13.873  0.00  0.00    +0.035 A 
ATOM     23  C   UNL     1      -4.384 -11.367  15.180  0.00  0.00    +0.035 A 
ATOM     24  C   UNL     1      -2.696 -10.593  13.635  0.00  0.00    +0.023 A 
ATOM     25  C   UNL     1      -3.524 -11.106  16.248  0.00  0.00    +0.057 A 
ATOM     26  C   UNL     1      -1.836 -10.332  14.702  0.00  0.00    +0.002 A 
ATOM     27  C   UNL     1      -2.251 -10.589  16.009  0.00  0.00    +0.012 A 
BRANCH  25  28
ATOM      1  F   UNL     1      -4.750 -10.394  18.175  0.00  0.00    -0.166 F 
ATOM      2  F   UNL     1      -4.701 -12.525  17.772  0.00  0.00    -0.166 F 
ATOM      3  F   UNL     1      -2.920 -11.520  18.510  0.00  0.00    -0.166 F 
ATOM     28  C   UNL     1      -3.967 -11.380  17.646  0.00  0.00    +0.417 C 
ENDBRANCH  25  28
ENDBRANCH   8  22
BRANCH  10  18
ATOM     18  C   UNL     1      -4.906  -8.591  10.092  0.00  0.00    +0.002 C 
ATOM     20  C   UNL     1      -3.478  -9.084  10.212  0.00  0.00    +0.004 C 
ENDBRANCH  10  18
BRANCH   9  14
ATOM     14  C   UNL     1      -7.278  -7.775   8.359  0.00  0.00    +0.099 C 
BRANCH  14  19
ATOM      4  O   UNL     1      -9.518  -8.039   7.480  0.00  0.00    -0.276 OA
ATOM      7  N   UNL     1      -8.934  -6.052   8.527  0.00  0.00    -0.312 N 
ATOM     19  C   UNL     1      -8.696  -7.337   8.061  0.00  0.00    +0.214 C 
ATOM     29  H   UNL     1      -8.191  -5.538   8.994  0.00  0.00    +0.149 HD
BRANCH   7  12
ATOM     12  C   UNL     1     -10.202  -5.398   8.372  0.00  0.00    +0.073 C 
ATOM     15  C   UNL     1     -10.477  -4.074   9.023  0.00  0.00    +0.024 C 
ATOM     16  C   UNL     1     -11.175  -5.310   9.510  0.00  0.00    +0.024 C 
ENDBRANCH   7  12
ENDBRANCH  14  19
ENDBRANCH   9  14
TORSDOF 6
ENDMDL
