MODEL 1
REMARK VINA RESULT:      -5.2      0.000      0.000
REMARK  Name = 75536844
REMARK  5 active torsions:
REMARK  status: ('A' for Active; 'I' for Inactive)
REMARK    1  A    between atoms: O_2  and  C_7
REMARK    2  A    between atoms: O_3  and  C_10
REMARK    3  A    between atoms: N_5  and  C_6
REMARK    4  A    between atoms: C_8  and  C_10
REMARK    5  A    between atoms: C_11  and  C_12
REMARK                            x       y       z     vdW  Elec       q    Type
REMARK                         _______ _______ _______ _____ _____    ______ ____
ROOT
ATOM      1  O   UNL     1      -0.980   2.312  23.775  0.00  0.00    -0.370 OA
ATOM      6  C   UNL     1      -3.181   1.619  24.285  0.00  0.00    +0.130 C 
ATOM      7  C   UNL     1      -2.879   2.844  25.125  0.00  0.00    +0.168 C 
ATOM      8  C   UNL     1      -1.388   3.095  24.912  0.00  0.00    +0.174 C 
ATOM      9  C   UNL     1      -2.138   1.705  23.189  0.00  0.00    +0.185 C 
ENDROOT
BRANCH   6   5
ATOM      4  O   UNL     1      -4.269  -0.990  23.622  0.00  0.00    -0.276 OA
ATOM      5  N   UNL     1      -3.053   0.399  25.041  0.00  0.00    -0.308 N 
ATOM     11  C   UNL     1      -3.611  -0.806  24.642  0.00  0.00    +0.210 C 
ATOM     12  C   UNL     1      -3.304  -1.925  25.602  0.00  0.00    +0.109 C 
ATOM     13  H   UNL     1      -2.561   0.438  25.929  0.00  0.00    +0.149 HD
ENDBRANCH   6   5
BRANCH   7   2
ATOM      2  O   UNL     1      -3.622   3.938  24.586  0.00  0.00    -0.387 OA
ATOM     14  H   UNL     1      -4.531   3.627  24.437  0.00  0.00    +0.210 HD
ENDBRANCH   7   2
BRANCH   8  10
ATOM     10  C   UNL     1      -0.533   2.676  26.098  0.00  0.00    +0.190 C 
BRANCH  10   3
ATOM      3  O   UNL     1       0.584   1.946  25.618  0.00  0.00    -0.392 OA
ATOM     15  H   UNL     1       1.274   1.997  26.302  0.00  0.00    +0.210 HD
ENDBRANCH  10   3
ENDBRANCH   8  10
TORSDOF 4
ENDMDL
MODEL 2
REMARK VINA RESULT:      -5.2     16.129     17.923
REMARK  Name = 75536844
REMARK  5 active torsions:
REMARK  status: ('A' for Active; 'I' for Inactive)
REMARK    1  A    between atoms: O_2  and  C_7
REMARK    2  A    between atoms: O_3  and  C_10
REMARK    3  A    between atoms: N_5  and  C_6
REMARK    4  A    between atoms: C_8  and  C_10
REMARK    5  A    between atoms: C_11  and  C_12
REMARK                            x       y       z     vdW  Elec       q    Type
REMARK                         _______ _______ _______ _____ _____    ______ ____
ROOT
ATOM      1  O   UNL     1      11.996   8.994  20.286  0.00  0.00    -0.370 OA
ATOM      6  C   UNL     1      13.787   7.915  19.183  0.00  0.00    +0.130 C 
ATOM      7  C   UNL     1      12.601   6.972  19.164  0.00  0.00    +0.168 C 
ATOM      8  C   UNL     1      11.570   7.635  20.076  0.00  0.00    +0.174 C 
ATOM      9  C   UNL     1      13.137   9.256  19.461  0.00  0.00    +0.185 C 
ENDROOT
BRANCH   6   5
ATOM      4  O   UNL     1      15.990   6.035  18.983  0.00  0.00    -0.276 OA
ATOM      5  N   UNL     1      14.739   7.568  20.209  0.00  0.00    -0.308 N 
ATOM     11  C   UNL     1      15.763   6.653  20.019  0.00  0.00    +0.210 C 
ATOM     12  C   UNL     1      16.625   6.496  21.244  0.00  0.00    +0.109 C 
ATOM     13  H   UNL     1      14.624   7.989  21.127  0.00  0.00    +0.149 HD
ENDBRANCH   6   5
BRANCH   7   2
ATOM      2  O   UNL     1      12.093   6.935  17.830  0.00  0.00    -0.387 OA
ATOM     14  H   UNL     1      12.582   6.242  17.353  0.00  0.00    +0.210 HD
ENDBRANCH   7   2
BRANCH   8  10
ATOM     10  C   UNL     1      11.455   6.966  21.437  0.00  0.00    +0.190 C 
BRANCH  10   3
ATOM      3  O   UNL     1      12.331   5.852  21.473  0.00  0.00    -0.392 OA
ATOM     15  H   UNL     1      11.982   5.235  22.139  0.00  0.00    +0.210 HD
ENDBRANCH  10   3
ENDBRANCH   8  10
TORSDOF 4
ENDMDL
MODEL 3
REMARK VINA RESULT:      -5.1      1.851      3.353
REMARK  Name = 75536844
REMARK  5 active torsions:
REMARK  status: ('A' for Active; 'I' for Inactive)
REMARK    1  A    between atoms: O_2  and  C_7
REMARK    2  A    between atoms: O_3  and  C_10
REMARK    3  A    between atoms: N_5  and  C_6
REMARK    4  A    between atoms: C_8  and  C_10
REMARK    5  A    between atoms: C_11  and  C_12
REMARK                            x       y       z     vdW  Elec       q    Type
REMARK                         _______ _______ _______ _____ _____    ______ ____
ROOT
ATOM      1  O   UNL     1      -0.764   0.866  23.360  0.00  0.00    -0.370 OA
ATOM      6  C   UNL     1      -1.678   2.324  24.980  0.00  0.00    +0.130 C 
ATOM      7  C   UNL     1      -0.712   1.398  25.690  0.00  0.00    +0.168 C 
ATOM      8  C   UNL     1      -0.338   0.356  24.637  0.00  0.00    +0.174 C 
ATOM      9  C   UNL     1      -1.248   2.203  23.532  0.00  0.00    +0.185 C 
ENDROOT
BRANCH   6   5
ATOM      4  O   UNL     1      -4.065   3.918  24.539  0.00  0.00    -0.276 OA
ATOM      5  N   UNL     1      -3.050   1.917  25.158  0.00  0.00    -0.308 N 
ATOM     11  C   UNL     1      -4.129   2.753  24.921  0.00  0.00    +0.210 C 
ATOM     12  C   UNL     1      -5.449   2.068  25.161  0.00  0.00    +0.109 C 
ATOM     13  H   UNL     1      -3.226   0.981  25.512  0.00  0.00    +0.149 HD
ENDBRANCH   6   5
BRANCH   7   2
ATOM      2  O   UNL     1       0.448   2.156  26.034  0.00  0.00    -0.387 OA
ATOM     14  H   UNL     1       0.197   3.095  26.016  0.00  0.00    +0.210 HD
ENDBRANCH   7   2
BRANCH   8  10
ATOM     10  C   UNL     1      -1.017  -0.987  24.853  0.00  0.00    +0.190 C 
BRANCH  10   3
ATOM      3  O   UNL     1      -1.930  -0.867  25.931  0.00  0.00    -0.392 OA
ATOM     15  H   UNL     1      -2.367  -0.002  25.842  0.00  0.00    +0.210 HD
ENDBRANCH  10   3
ENDBRANCH   8  10
TORSDOF 4
ENDMDL
MODEL 4
REMARK VINA RESULT:      -5.0     15.491     17.299
REMARK  Name = 75536844
REMARK  5 active torsions:
REMARK  status: ('A' for Active; 'I' for Inactive)
REMARK    1  A    between atoms: O_2  and  C_7
REMARK    2  A    between atoms: O_3  and  C_10
REMARK    3  A    between atoms: N_5  and  C_6
REMARK    4  A    between atoms: C_8  and  C_10
REMARK    5  A    between atoms: C_11  and  C_12
REMARK                            x       y       z     vdW  Elec       q    Type
REMARK                         _______ _______ _______ _____ _____    ______ ____
ROOT
ATOM      1  O   UNL     1      11.435   8.146  19.383  0.00  0.00    -0.370 OA
ATOM      6  C   UNL     1      12.951   6.536  20.217  0.00  0.00    +0.130 C 
ATOM      7  C   UNL     1      11.787   6.613  21.183  0.00  0.00    +0.168 C 
ATOM      8  C   UNL     1      10.972   7.813  20.705  0.00  0.00    +0.174 C 
ATOM      9  C   UNL     1      12.378   7.155  18.958  0.00  0.00    +0.185 C 
ENDROOT
BRANCH   6   5
ATOM      4  O   UNL     1      15.740   6.080  19.549  0.00  0.00    -0.276 OA
ATOM      5  N   UNL     1      14.097   7.271  20.690  0.00  0.00    -0.308 N 
ATOM     11  C   UNL     1      15.399   6.978  20.314  0.00  0.00    +0.210 C 
ATOM     12  C   UNL     1      16.400   7.916  20.935  0.00  0.00    +0.109 C 
ATOM     13  H   UNL     1      13.940   8.016  21.364  0.00  0.00    +0.149 HD
ENDBRANCH   6   5
BRANCH   7   2
ATOM      2  O   UNL     1      11.009   5.425  21.026  0.00  0.00    -0.387 OA
ATOM     14  H   UNL     1      11.515   4.693  21.418  0.00  0.00    +0.210 HD
ENDBRANCH   7   2
BRANCH   8  10
ATOM     10  C   UNL     1      11.145   9.043  21.583  0.00  0.00    +0.190 C 
BRANCH  10   3
ATOM      3  O   UNL     1      12.030   8.725  22.644  0.00  0.00    -0.392 OA
ATOM     15  H   UNL     1      12.314   7.803  22.513  0.00  0.00    +0.210 HD
ENDBRANCH  10   3
ENDBRANCH   8  10
TORSDOF 4
ENDMDL
MODEL 5
REMARK VINA RESULT:      -5.0      1.590      3.832
REMARK  Name = 75536844
REMARK  5 active torsions:
REMARK  status: ('A' for Active; 'I' for Inactive)
REMARK    1  A    between atoms: O_2  and  C_7
REMARK    2  A    between atoms: O_3  and  C_10
REMARK    3  A    between atoms: N_5  and  C_6
REMARK    4  A    between atoms: C_8  and  C_10
REMARK    5  A    between atoms: C_11  and  C_12
REMARK                            x       y       z     vdW  Elec       q    Type
REMARK                         _______ _______ _______ _____ _____    ______ ____
ROOT
ATOM      1  O   UNL     1      -4.101   2.765  23.549  0.00  0.00    -0.370 OA
ATOM      6  C   UNL     1      -2.630   1.093  24.342  0.00  0.00    +0.130 C 
ATOM      7  C   UNL     1      -4.008   0.790  24.892  0.00  0.00    +0.168 C 
ATOM      8  C   UNL     1      -4.844   2.016  24.529  0.00  0.00    +0.174 C 
ATOM      9  C   UNL     1      -2.934   2.020  23.181  0.00  0.00    +0.185 C 
ENDROOT
BRANCH   6   5
ATOM      4  O   UNL     1       0.255   1.407  24.245  0.00  0.00    -0.276 OA
ATOM      5  N   UNL     1      -1.785   1.733  25.319  0.00  0.00    -0.308 N 
ATOM     11  C   UNL     1      -0.409   1.835  25.185  0.00  0.00    +0.210 C 
ATOM     12  C   UNL     1       0.226   2.571  26.336  0.00  0.00    +0.109 C 
ATOM     13  H   UNL     1      -2.221   2.091  26.164  0.00  0.00    +0.149 HD
ENDBRANCH   6   5
BRANCH   7   2
ATOM      2  O   UNL     1      -4.517  -0.348  24.196  0.00  0.00    -0.387 OA
ATOM     14  H   UNL     1      -3.819  -0.655  23.592  0.00  0.00    +0.210 HD
ENDBRANCH   7   2
BRANCH   8  10
ATOM     10  C   UNL     1      -5.110   2.933  25.713  0.00  0.00    +0.190 C 
BRANCH  10   3
ATOM      3  O   UNL     1      -4.019   3.828  25.850  0.00  0.00    -0.392 OA
ATOM     15  H   UNL     1      -4.389   4.727  25.886  0.00  0.00    +0.210 HD
ENDBRANCH  10   3
ENDBRANCH   8  10
TORSDOF 4
ENDMDL
MODEL 6
REMARK VINA RESULT:      -5.0      1.999      2.336
REMARK  Name = 75536844
REMARK  5 active torsions:
REMARK  status: ('A' for Active; 'I' for Inactive)
REMARK    1  A    between atoms: O_2  and  C_7
REMARK    2  A    between atoms: O_3  and  C_10
REMARK    3  A    between atoms: N_5  and  C_6
REMARK    4  A    between atoms: C_8  and  C_10
REMARK    5  A    between atoms: C_11  and  C_12
REMARK                            x       y       z     vdW  Elec       q    Type
REMARK                         _______ _______ _______ _____ _____    ______ ____
ROOT
ATOM      1  O   UNL     1      -3.616   3.795  24.026  0.00  0.00    -0.370 OA
ATOM      6  C   UNL     1      -4.076   1.499  24.349  0.00  0.00    +0.130 C 
ATOM      7  C   UNL     1      -4.753   2.265  25.467  0.00  0.00    +0.168 C 
ATOM      8  C   UNL     1      -4.233   3.694  25.323  0.00  0.00    +0.174 C 
ATOM      9  C   UNL     1      -3.839   2.575  23.309  0.00  0.00    +0.185 C 
ENDROOT
BRANCH   6   5
ATOM      4  O   UNL     1      -3.710  -1.105  25.579  0.00  0.00    -0.276 OA
ATOM      5  N   UNL     1      -2.837   0.898  24.777  0.00  0.00    -0.308 N 
ATOM     11  C   UNL     1      -2.761  -0.358  25.358  0.00  0.00    +0.210 C 
ATOM     12  C   UNL     1      -1.346  -0.753  25.686  0.00  0.00    +0.109 C 
ATOM     13  H   UNL     1      -1.985   1.443  24.681  0.00  0.00    +0.149 HD
ENDBRANCH   6   5
BRANCH   7   2
ATOM      2  O   UNL     1      -6.159   2.249  25.219  0.00  0.00    -0.387 OA
ATOM     14  H   UNL     1      -6.589   1.870  26.005  0.00  0.00    +0.210 HD
ENDBRANCH   7   2
BRANCH   8  10
ATOM     10  C   UNL     1      -3.189   4.061  26.366  0.00  0.00    +0.190 C 
BRANCH  10   3
ATOM      3  O   UNL     1      -1.913   3.665  25.893  0.00  0.00    -0.392 OA
ATOM     15  H   UNL     1      -2.030   2.816  25.432  0.00  0.00    +0.210 HD
ENDBRANCH  10   3
ENDBRANCH   8  10
TORSDOF 4
ENDMDL
MODEL 7
REMARK VINA RESULT:      -4.9      1.977      2.544
REMARK  Name = 75536844
REMARK  5 active torsions:
REMARK  status: ('A' for Active; 'I' for Inactive)
REMARK    1  A    between atoms: O_2  and  C_7
REMARK    2  A    between atoms: O_3  and  C_10
REMARK    3  A    between atoms: N_5  and  C_6
REMARK    4  A    between atoms: C_8  and  C_10
REMARK    5  A    between atoms: C_11  and  C_12
REMARK                            x       y       z     vdW  Elec       q    Type
REMARK                         _______ _______ _______ _____ _____    ______ ____
ROOT
ATOM      1  O   UNL     1      -0.892   2.050  23.308  0.00  0.00    -0.370 OA
ATOM      6  C   UNL     1      -2.220   0.988  24.951  0.00  0.00    +0.130 C 
ATOM      7  C   UNL     1      -0.769   0.687  25.268  0.00  0.00    +0.168 C 
ATOM      8  C   UNL     1       0.003   1.208  24.057  0.00  0.00    +0.174 C 
ATOM      9  C   UNL     1      -2.115   2.196  24.040  0.00  0.00    +0.185 C 
ENDROOT
BRANCH   6   5
ATOM      4  O   UNL     1      -3.537  -1.283  26.189  0.00  0.00    -0.276 OA
ATOM      5  N   UNL     1      -2.870  -0.115  24.289  0.00  0.00    -0.308 N 
ATOM     11  C   UNL     1      -3.476  -1.160  24.969  0.00  0.00    +0.210 C 
ATOM     12  C   UNL     1      -4.100  -2.165  24.037  0.00  0.00    +0.109 C 
ATOM     13  H   UNL     1      -2.847  -0.142  23.274  0.00  0.00    +0.149 HD
ENDBRANCH   6   5
BRANCH   7   2
ATOM      2  O   UNL     1      -0.406   1.449  26.420  0.00  0.00    -0.387 OA
ATOM     14  H   UNL     1      -0.973   2.239  26.436  0.00  0.00    +0.210 HD
ENDBRANCH   7   2
BRANCH   8  10
ATOM     10  C   UNL     1       0.487   0.101  23.133  0.00  0.00    +0.190 C 
BRANCH  10   3
ATOM      3  O   UNL     1       1.902   0.159  23.056  0.00  0.00    -0.392 OA
ATOM     15  H   UNL     1       2.125   0.764  22.327  0.00  0.00    +0.210 HD
ENDBRANCH  10   3
ENDBRANCH   8  10
TORSDOF 4
ENDMDL
MODEL 8
REMARK VINA RESULT:      -4.9      2.150      3.531
REMARK  Name = 75536844
REMARK  5 active torsions:
REMARK  status: ('A' for Active; 'I' for Inactive)
REMARK    1  A    between atoms: O_2  and  C_7
REMARK    2  A    between atoms: O_3  and  C_10
REMARK    3  A    between atoms: N_5  and  C_6
REMARK    4  A    between atoms: C_8  and  C_10
REMARK    5  A    between atoms: C_11  and  C_12
REMARK                            x       y       z     vdW  Elec       q    Type
REMARK                         _______ _______ _______ _____ _____    ______ ____
ROOT
ATOM      1  O   UNL     1      -3.902   3.603  25.909  0.00  0.00    -0.370 OA
ATOM      6  C   UNL     1      -2.422   2.437  24.482  0.00  0.00    +0.130 C 
ATOM      7  C   UNL     1      -3.787   2.437  23.826  0.00  0.00    +0.168 C 
ATOM      8  C   UNL     1      -4.724   3.001  24.892  0.00  0.00    +0.174 C 
ATOM      9  C   UNL     1      -2.536   3.571  25.481  0.00  0.00    +0.185 C 
ENDROOT
BRANCH   6   5
ATOM      4  O   UNL     1      -0.404   0.482  23.749  0.00  0.00    -0.276 OA
ATOM      5  N   UNL     1      -2.135   1.185  25.137  0.00  0.00    -0.308 N 
ATOM     11  C   UNL     1      -1.146   0.312  24.712  0.00  0.00    +0.210 C 
ATOM     12  C   UNL     1      -1.043  -0.908  25.589  0.00  0.00    +0.109 C 
ATOM     13  H   UNL     1      -2.717   0.917  25.926  0.00  0.00    +0.149 HD
ENDBRANCH   6   5
BRANCH   7   2
ATOM      2  O   UNL     1      -3.740   3.336  22.718  0.00  0.00    -0.387 OA
ATOM     14  H   UNL     1      -4.147   4.172  23.005  0.00  0.00    +0.210 HD
ENDBRANCH   7   2
BRANCH   8  10
ATOM     10  C   UNL     1      -5.587   1.939  25.556  0.00  0.00    +0.190 C 
BRANCH  10   3
ATOM      3  O   UNL     1      -6.285   2.532  26.639  0.00  0.00    -0.392 OA
ATOM     15  H   UNL     1      -5.871   3.396  26.807  0.00  0.00    +0.210 HD
ENDBRANCH  10   3
ENDBRANCH   8  10
TORSDOF 4
ENDMDL
MODEL 9
REMARK VINA RESULT:      -4.7      1.787      3.020
REMARK  Name = 75536844
REMARK  5 active torsions:
REMARK  status: ('A' for Active; 'I' for Inactive)
REMARK    1  A    between atoms: O_2  and  C_7
REMARK    2  A    between atoms: O_3  and  C_10
REMARK    3  A    between atoms: N_5  and  C_6
REMARK    4  A    between atoms: C_8  and  C_10
REMARK    5  A    between atoms: C_11  and  C_12
REMARK                            x       y       z     vdW  Elec       q    Type
REMARK                         _______ _______ _______ _____ _____    ______ ____
ROOT
ATOM      1  O   UNL     1      -1.020   0.131  25.775  0.00  0.00    -0.370 OA
ATOM      6  C   UNL     1      -2.667   0.823  24.228  0.00  0.00    +0.130 C 
ATOM      7  C   UNL     1      -1.421   1.646  23.971  0.00  0.00    +0.168 C 
ATOM      8  C   UNL     1      -0.492   1.307  25.135  0.00  0.00    +0.174 C 
ATOM      9  C   UNL     1      -2.127  -0.358  25.009  0.00  0.00    +0.185 C 
ENDROOT
BRANCH   6   5
ATOM      4  O   UNL     1      -4.087   3.227  23.430  0.00  0.00    -0.276 OA
ATOM      5  N   UNL     1      -3.650   1.553  24.988  0.00  0.00    -0.308 N 
ATOM     11  C   UNL     1      -4.278   2.697  24.521  0.00  0.00    +0.210 C 
ATOM     12  C   UNL     1      -5.279   3.244  25.505  0.00  0.00    +0.109 C 
ATOM     13  H   UNL     1      -3.862   1.229  25.928  0.00  0.00    +0.149 HD
ENDBRANCH   6   5
BRANCH   7   2
ATOM      2  O   UNL     1      -0.835   1.185  22.753  0.00  0.00    -0.387 OA
ATOM     14  H   UNL     1      -1.311   1.614  22.022  0.00  0.00    +0.210 HD
ENDBRANCH   7   2
BRANCH   8  10
ATOM     10  C   UNL     1      -0.410   2.410  26.179  0.00  0.00    +0.190 C 
BRANCH  10   3
ATOM      3  O   UNL     1       0.885   2.393  26.758  0.00  0.00    -0.392 OA
ATOM     15  H   UNL     1       1.525   2.381  26.026  0.00  0.00    +0.210 HD
ENDBRANCH  10   3
ENDBRANCH   8  10
TORSDOF 4
ENDMDL
MODEL 10
REMARK VINA RESULT:      -4.6     15.233     16.842
REMARK  Name = 75536844
REMARK  5 active torsions:
REMARK  status: ('A' for Active; 'I' for Inactive)
REMARK    1  A    between atoms: O_2  and  C_7
REMARK    2  A    between atoms: O_3  and  C_10
REMARK    3  A    between atoms: N_5  and  C_6
REMARK    4  A    between atoms: C_8  and  C_10
REMARK    5  A    between atoms: C_11  and  C_12
REMARK                            x       y       z     vdW  Elec       q    Type
REMARK                         _______ _______ _______ _____ _____    ______ ____
ROOT
ATOM      1  O   UNL     1      11.738   6.411  21.263  0.00  0.00    -0.370 OA
ATOM      6  C   UNL     1      11.022   8.658  21.430  0.00  0.00    +0.130 C 
ATOM      7  C   UNL     1      11.576   8.455  20.034  0.00  0.00    +0.168 C 
ATOM      8  C   UNL     1      12.214   7.067  20.074  0.00  0.00    +0.174 C 
ATOM      9  C   UNL     1      10.748   7.238  21.886  0.00  0.00    +0.185 C 
ENDROOT
BRANCH   6   5
ATOM      4  O   UNL     1      11.318  11.511  21.873  0.00  0.00    -0.276 OA
ATOM      5  N   UNL     1      11.967   9.316  22.297  0.00  0.00    -0.308 N 
ATOM     11  C   UNL     1      12.033  10.693  22.444  0.00  0.00    +0.210 C 
ATOM     12  C   UNL     1      13.092  11.114  23.429  0.00  0.00    +0.109 C 
ATOM     13  H   UNL     1      12.640   8.739  22.793  0.00  0.00    +0.149 HD
ENDBRANCH   6   5
BRANCH   7   2
ATOM      2  O   UNL     1      10.475   8.439  19.125  0.00  0.00    -0.387 OA
ATOM     14  H   UNL     1       9.862   7.745  19.423  0.00  0.00    +0.210 HD
ENDBRANCH   7   2
BRANCH   8  10
ATOM     10  C   UNL     1      13.733   7.107  20.139  0.00  0.00    +0.190 C 
BRANCH  10   3
ATOM      3  O   UNL     1      14.171   6.175  21.113  0.00  0.00    -0.392 OA
ATOM     15  H   UNL     1      14.984   5.764  20.771  0.00  0.00    +0.210 HD
ENDBRANCH  10   3
ENDBRANCH   8  10
TORSDOF 4
ENDMDL
