MODEL 1
REMARK VINA RESULT:      -7.5      0.000      0.000
REMARK  Name = 9424526
REMARK  3 active torsions:
REMARK  status: ('A' for Active; 'I' for Inactive)
REMARK    1  A    between atoms: S_1  and  N_6
REMARK    2  A    between atoms: S_1  and  C_19
REMARK    3  A    between atoms: C_15  and  C_20
REMARK                            x       y       z     vdW  Elec       q    Type
REMARK                         _______ _______ _______ _____ _____    ______ ____
ROOT
ATOM      5  O   UNL     1      17.331   7.848  20.838  0.00  0.00    -0.268 OA
ATOM      6  N   UNL     1      13.691  11.168  21.342  0.00  0.00    -0.176 NA
ATOM      7  N   UNL     1      15.869   9.414  19.892  0.00  0.00    -0.311 N 
ATOM      8  C   UNL     1      15.941  11.891  20.556  0.00  0.00    +0.025 C 
ATOM      9  C   UNL     1      14.282  11.106  18.925  0.00  0.00    +0.053 C 
ATOM     10  C   UNL     1      15.391  12.130  19.160  0.00  0.00    +0.017 C 
ATOM     11  C   UNL     1      14.843  12.072  21.615  0.00  0.00    +0.114 C 
ATOM     12  C   UNL     1      13.158  11.324  19.957  0.00  0.00    +0.119 C 
ATOM     13  C   UNL     1      16.568  10.495  20.602  0.00  0.00    +0.130 C 
ATOM     14  C   UNL     1      14.813   9.673  18.996  0.00  0.00    +0.034 A 
ATOM     15  C   UNL     1      14.295   8.660  18.253  0.00  0.00    +0.005 A 
ATOM     16  C   UNL     1      16.402   8.126  20.081  0.00  0.00    +0.252 A 
ATOM     17  C   UNL     1      14.816   7.318  18.422  0.00  0.00    +0.015 A 
ATOM     18  C   UNL     1      15.794   7.037  19.283  0.00  0.00    +0.071 A 
ENDROOT
BRANCH  15  20
ATOM      2  F   UNL     1      11.609   7.976  18.798  0.00  0.00    -0.205 F 
ATOM     20  C   UNL     1      13.200   8.887  17.283  0.00  0.00    +0.019 A 
ATOM     23  C   UNL     1      11.896   8.530  17.611  0.00  0.00    +0.131 A 
ATOM     24  C   UNL     1      13.486   9.459  16.047  0.00  0.00    +0.011 A 
ATOM     27  C   UNL     1      10.867   8.746  16.693  0.00  0.00    +0.039 A 
ATOM     28  C   UNL     1      12.458   9.677  15.130  0.00  0.00    +0.001 A 
ATOM     30  C   UNL     1      11.148   9.321  15.453  0.00  0.00    +0.003 A 
ENDBRANCH  15  20
BRANCH   6   1
ATOM      1  S   UNL     1      12.515  11.067  22.580  0.00  0.00    +0.061 S 
ATOM      3  O   UNL     1      11.433  11.981  22.280  0.00  0.00    -0.153 OA
ATOM      4  O   UNL     1      13.180  11.096  23.866  0.00  0.00    -0.153 OA
BRANCH   1  19
ATOM     19  C   UNL     1      11.923   9.425  22.312  0.00  0.00    +0.105 A 
ATOM     21  C   UNL     1      10.574   9.156  22.479  0.00  0.00    +0.028 A 
ATOM     22  C   UNL     1      12.816   8.434  21.941  0.00  0.00    +0.028 A 
ATOM     25  C   UNL     1      10.106   7.859  22.268  0.00  0.00    +0.002 A 
ATOM     26  C   UNL     1      12.348   7.137  21.730  0.00  0.00    +0.002 A 
ATOM     29  C   UNL     1      10.993   6.850  21.894  0.00  0.00    +0.000 A 
ENDBRANCH   1  19
ENDBRANCH   6   1
TORSDOF 3
ENDMDL
MODEL 2
REMARK VINA RESULT:      -6.9     26.651     29.227
REMARK  Name = 9424526
REMARK  3 active torsions:
REMARK  status: ('A' for Active; 'I' for Inactive)
REMARK    1  A    between atoms: S_1  and  N_6
REMARK    2  A    between atoms: S_1  and  C_19
REMARK    3  A    between atoms: C_15  and  C_20
REMARK                            x       y       z     vdW  Elec       q    Type
REMARK                         _______ _______ _______ _____ _____    ______ ____
ROOT
ATOM      5  O   UNL     1      -3.732 -12.942  19.208  0.00  0.00    -0.268 OA
ATOM      6  N   UNL     1      -5.879 -12.125  14.821  0.00  0.00    -0.176 NA
ATOM      7  N   UNL     1      -5.666 -12.740  17.902  0.00  0.00    -0.311 N 
ATOM      8  C   UNL     1      -6.138 -14.331  15.947  0.00  0.00    +0.025 C 
ATOM      9  C   UNL     1      -7.711 -12.518  16.459  0.00  0.00    +0.053 C 
ATOM     10  C   UNL     1      -7.597 -14.025  16.241  0.00  0.00    +0.017 C 
ATOM     11  C   UNL     1      -5.668 -13.593  14.685  0.00  0.00    +0.114 C 
ATOM     12  C   UNL     1      -7.288 -11.782  15.173  0.00  0.00    +0.119 C 
ATOM     13  C   UNL     1      -5.305 -13.967  17.177  0.00  0.00    +0.130 C 
ATOM     14  C   UNL     1      -6.871 -12.055  17.651  0.00  0.00    +0.034 A 
ATOM     15  C   UNL     1      -7.233 -11.012  18.444  0.00  0.00    +0.005 A 
ATOM     16  C   UNL     1      -4.788 -12.371  18.936  0.00  0.00    +0.252 A 
ATOM     17  C   UNL     1      -6.351 -10.599  19.518  0.00  0.00    +0.015 A 
ATOM     18  C   UNL     1      -5.192 -11.210  19.762  0.00  0.00    +0.071 A 
ENDROOT
BRANCH  15  20
ATOM      2  F   UNL     1      -7.432  -8.791  16.710  0.00  0.00    -0.205 F 
ATOM     20  C   UNL     1      -8.498 -10.275  18.232  0.00  0.00    +0.019 A 
ATOM     23  C   UNL     1      -8.533  -9.189  17.363  0.00  0.00    +0.131 A 
ATOM     24  C   UNL     1      -9.648 -10.678  18.905  0.00  0.00    +0.011 A 
ATOM     27  C   UNL     1      -9.730  -8.497  17.166  0.00  0.00    +0.039 A 
ATOM     28  C   UNL     1     -10.844  -9.988  18.708  0.00  0.00    +0.001 A 
ATOM     30  C   UNL     1     -10.885  -8.898  17.838  0.00  0.00    +0.003 A 
ENDBRANCH  15  20
BRANCH   6   1
ATOM      1  S   UNL     1      -5.161 -11.156  13.608  0.00  0.00    +0.061 S 
ATOM      3  O   UNL     1      -5.901  -9.916  13.495  0.00  0.00    -0.153 OA
ATOM      4  O   UNL     1      -4.896 -11.974  12.444  0.00  0.00    -0.153 OA
BRANCH   1  19
ATOM     19  C   UNL     1      -3.615 -10.790  14.379  0.00  0.00    +0.105 A 
ATOM     21  C   UNL     1      -3.483 -10.960  15.748  0.00  0.00    +0.028 A 
ATOM     22  C   UNL     1      -2.559 -10.340  13.603  0.00  0.00    +0.028 A 
ATOM     25  C   UNL     1      -2.263 -10.671  16.357  0.00  0.00    +0.002 A 
ATOM     26  C   UNL     1      -1.338 -10.052  14.212  0.00  0.00    +0.002 A 
ATOM     29  C   UNL     1      -1.190 -10.216  15.590  0.00  0.00    +0.000 A 
ENDBRANCH   1  19
ENDBRANCH   6   1
TORSDOF 3
ENDMDL
MODEL 3
REMARK VINA RESULT:      -6.8     26.510     28.878
REMARK  Name = 9424526
REMARK  3 active torsions:
REMARK  status: ('A' for Active; 'I' for Inactive)
REMARK    1  A    between atoms: S_1  and  N_6
REMARK    2  A    between atoms: S_1  and  C_19
REMARK    3  A    between atoms: C_15  and  C_20
REMARK                            x       y       z     vdW  Elec       q    Type
REMARK                         _______ _______ _______ _____ _____    ______ ____
ROOT
ATOM      5  O   UNL     1      -0.847 -12.406  13.695  0.00  0.00    -0.268 OA
ATOM      6  N   UNL     1      -5.749 -12.466  12.987  0.00  0.00    -0.176 NA
ATOM      7  N   UNL     1      -3.010 -12.780  14.511  0.00  0.00    -0.311 N 
ATOM      8  C   UNL     1      -4.535 -14.579  13.501  0.00  0.00    +0.025 C 
ATOM      9  C   UNL     1      -5.351 -13.172  15.339  0.00  0.00    +0.053 C 
ATOM     10  C   UNL     1      -5.161 -14.617  14.885  0.00  0.00    +0.017 C 
ATOM     11  C   UNL     1      -5.447 -13.844  12.508  0.00  0.00    +0.114 C 
ATOM     12  C   UNL     1      -6.308 -12.452  14.370  0.00  0.00    +0.119 C 
ATOM     13  C   UNL     1      -3.152 -13.932  13.608  0.00  0.00    +0.130 C 
ATOM     14  C   UNL     1      -4.015 -12.430  15.435  0.00  0.00    +0.034 A 
ATOM     15  C   UNL     1      -3.782 -11.452  16.348  0.00  0.00    +0.005 A 
ATOM     16  C   UNL     1      -1.764 -12.131  14.469  0.00  0.00    +0.252 A 
ATOM     17  C   UNL     1      -2.509 -10.758  16.334  0.00  0.00    +0.015 A 
ATOM     18  C   UNL     1      -1.551 -11.047  15.454  0.00  0.00    +0.071 A 
ENDROOT
BRANCH  15  20
ATOM      2  F   UNL     1      -5.796  -9.545  15.819  0.00  0.00    -0.205 F 
ATOM     20  C   UNL     1      -4.798 -11.065  17.351  0.00  0.00    +0.019 A 
ATOM     23  C   UNL     1      -5.768 -10.119  17.030  0.00  0.00    +0.131 A 
ATOM     24  C   UNL     1      -4.777 -11.653  18.612  0.00  0.00    +0.011 A 
ATOM     27  C   UNL     1      -6.724  -9.758  17.980  0.00  0.00    +0.039 A 
ATOM     28  C   UNL     1      -5.734 -11.293  19.561  0.00  0.00    +0.001 A 
ATOM     30  C   UNL     1      -6.707 -10.345  19.245  0.00  0.00    +0.003 A 
ENDBRANCH  15  20
BRANCH   6   1
ATOM      1  S   UNL     1      -6.531 -11.442  11.861  0.00  0.00    +0.061 S 
ATOM      3  O   UNL     1      -7.363 -10.499  12.579  0.00  0.00    -0.153 OA
ATOM      4  O   UNL     1      -7.074 -12.248  10.788  0.00  0.00    -0.153 OA
BRANCH   1  19
ATOM     19  C   UNL     1      -5.139 -10.559  11.227  0.00  0.00    +0.105 A 
ATOM     21  C   UNL     1      -3.932 -10.620  11.903  0.00  0.00    +0.028 A 
ATOM     22  C   UNL     1      -5.279  -9.819  10.064  0.00  0.00    +0.028 A 
ATOM     25  C   UNL     1      -2.833  -9.922  11.403  0.00  0.00    +0.002 A 
ATOM     26  C   UNL     1      -4.180  -9.121   9.563  0.00  0.00    +0.002 A 
ATOM     29  C   UNL     1      -2.957  -9.172  10.233  0.00  0.00    +0.000 A 
ENDBRANCH   1  19
ENDBRANCH   6   1
TORSDOF 3
ENDMDL
MODEL 4
REMARK VINA RESULT:      -6.7     13.936     16.709
REMARK  Name = 9424526
REMARK  3 active torsions:
REMARK  status: ('A' for Active; 'I' for Inactive)
REMARK    1  A    between atoms: S_1  and  N_6
REMARK    2  A    between atoms: S_1  and  C_19
REMARK    3  A    between atoms: C_15  and  C_20
REMARK                            x       y       z     vdW  Elec       q    Type
REMARK                         _______ _______ _______ _____ _____    ______ ____
ROOT
ATOM      5  O   UNL     1       8.508  10.405   2.931  0.00  0.00    -0.268 OA
ATOM      6  N   UNL     1      12.818   8.178   3.928  0.00  0.00    -0.176 NA
ATOM      7  N   UNL     1       9.967   9.404   4.466  0.00  0.00    -0.311 N 
ATOM      8  C   UNL     1      12.286  10.386   4.951  0.00  0.00    +0.025 C 
ATOM      9  C   UNL     1      11.568   8.325   6.075  0.00  0.00    +0.053 C 
ATOM     10  C   UNL     1      12.118   9.730   6.311  0.00  0.00    +0.017 C 
ATOM     11  C   UNL     1      13.268   9.590   4.078  0.00  0.00    +0.114 C 
ATOM     12  C   UNL     1      12.579   7.513   5.242  0.00  0.00    +0.119 C 
ATOM     13  C   UNL     1      10.908  10.521   4.300  0.00  0.00    +0.130 C 
ATOM     14  C   UNL     1      10.202   8.362   5.385  0.00  0.00    +0.034 A 
ATOM     15  C   UNL     1       9.239   7.430   5.611  0.00  0.00    +0.005 A 
ATOM     16  C   UNL     1       8.771   9.510   3.734  0.00  0.00    +0.252 A 
ATOM     17  C   UNL     1       7.994   7.504   4.872  0.00  0.00    +0.015 A 
ATOM     18  C   UNL     1       7.754   8.461   3.976  0.00  0.00    +0.071 A 
ENDROOT
BRANCH  15  20
ATOM      2  F   UNL     1       9.997   4.824   4.831  0.00  0.00    -0.205 F 
ATOM     20  C   UNL     1       9.433   6.330   6.582  0.00  0.00    +0.019 A 
ATOM     23  C   UNL     1       9.809   5.067   6.136  0.00  0.00    +0.131 A 
ATOM     24  C   UNL     1       9.238   6.571   7.939  0.00  0.00    +0.011 A 
ATOM     27  C   UNL     1       9.990   4.033   7.056  0.00  0.00    +0.039 A 
ATOM     28  C   UNL     1       9.421   5.539   8.859  0.00  0.00    +0.001 A 
ATOM     30  C   UNL     1       9.796   4.270   8.417  0.00  0.00    +0.003 A 
ENDBRANCH  15  20
BRANCH   6   1
ATOM      1  S   UNL     1      13.665   7.247   2.770  0.00  0.00    +0.061 S 
ATOM      3  O   UNL     1      14.668   6.450   3.446  0.00  0.00    -0.153 OA
ATOM      4  O   UNL     1      14.017   8.094   1.650  0.00  0.00    -0.153 OA
BRANCH   1  19
ATOM     19  C   UNL     1      12.377   6.159   2.245  0.00  0.00    +0.105 A 
ATOM     21  C   UNL     1      11.092   6.654   2.091  0.00  0.00    +0.028 A 
ATOM     22  C   UNL     1      12.672   4.829   1.996  0.00  0.00    +0.028 A 
ATOM     25  C   UNL     1      10.075   5.795   1.677  0.00  0.00    +0.002 A 
ATOM     26  C   UNL     1      11.655   3.969   1.582  0.00  0.00    +0.002 A 
ATOM     29  C   UNL     1      10.356   4.453   1.423  0.00  0.00    +0.000 A 
ENDBRANCH   1  19
ENDBRANCH   6   1
TORSDOF 3
ENDMDL
MODEL 5
REMARK VINA RESULT:      -6.6     14.412     16.547
REMARK  Name = 9424526
REMARK  3 active torsions:
REMARK  status: ('A' for Active; 'I' for Inactive)
REMARK    1  A    between atoms: S_1  and  N_6
REMARK    2  A    between atoms: S_1  and  C_19
REMARK    3  A    between atoms: C_15  and  C_20
REMARK                            x       y       z     vdW  Elec       q    Type
REMARK                         _______ _______ _______ _____ _____    ______ ____
ROOT
ATOM      5  O   UNL     1      22.205  -7.174  23.379  0.00  0.00    -0.268 OA
ATOM      6  N   UNL     1      19.966  -4.952  27.196  0.00  0.00    -0.176 NA
ATOM      7  N   UNL     1      21.163  -5.292  24.303  0.00  0.00    -0.311 N 
ATOM      8  C   UNL     1      22.138  -4.083  26.344  0.00  0.00    +0.025 C 
ATOM      9  C   UNL     1      20.041  -3.296  25.341  0.00  0.00    +0.053 C 
ATOM     10  C   UNL     1      21.440  -2.861  25.771  0.00  0.00    +0.017 C 
ATOM     11  C   UNL     1      21.374  -4.631  27.559  0.00  0.00    +0.114 C 
ATOM     12  C   UNL     1      19.260  -3.796  26.570  0.00  0.00    +0.119 C 
ATOM     13  C   UNL     1      22.289  -5.125  25.234  0.00  0.00    +0.130 C 
ATOM     14  C   UNL     1      20.095  -4.374  24.256  0.00  0.00    +0.034 A 
ATOM     15  C   UNL     1      19.153  -4.484  23.283  0.00  0.00    +0.005 A 
ATOM     16  C   UNL     1      21.287  -6.355  23.391  0.00  0.00    +0.252 A 
ATOM     17  C   UNL     1      19.245  -5.571  22.327  0.00  0.00    +0.015 A 
ATOM     18  C   UNL     1      20.227  -6.470  22.364  0.00  0.00    +0.071 A 
ENDROOT
BRANCH  15  20
ATOM      2  F   UNL     1      16.679  -4.907  24.578  0.00  0.00    -0.205 F 
ATOM     20  C   UNL     1      18.024  -3.533  23.180  0.00  0.00    +0.019 A 
ATOM     23  C   UNL     1      16.830  -3.796  23.844  0.00  0.00    +0.131 A 
ATOM     24  C   UNL     1      18.169  -2.376  22.418  0.00  0.00    +0.011 A 
ATOM     27  C   UNL     1      15.769  -2.894  23.743  0.00  0.00    +0.039 A 
ATOM     28  C   UNL     1      17.109  -1.475  22.319  0.00  0.00    +0.001 A 
ATOM     30  C   UNL     1      15.909  -1.734  22.982  0.00  0.00    +0.003 A 
ENDBRANCH  15  20
BRANCH   6   1
ATOM      1  S   UNL     1      19.074  -5.816  28.373  0.00  0.00    +0.061 S 
ATOM      3  O   UNL     1      18.345  -4.875  29.198  0.00  0.00    -0.153 OA
ATOM      4  O   UNL     1      19.927  -6.823  28.967  0.00  0.00    -0.153 OA
BRANCH   1  19
ATOM     19  C   UNL     1      17.906  -6.638  27.334  0.00  0.00    +0.105 A 
ATOM     21  C   UNL     1      18.358  -7.344  26.232  0.00  0.00    +0.028 A 
ATOM     22  C   UNL     1      16.556  -6.563  27.639  0.00  0.00    +0.028 A 
ATOM     25  C   UNL     1      17.436  -7.993  25.411  0.00  0.00    +0.002 A 
ATOM     26  C   UNL     1      15.634  -7.212  26.819  0.00  0.00    +0.002 A 
ATOM     29  C   UNL     1      16.074  -7.926  25.704  0.00  0.00    +0.000 A 
ENDBRANCH   1  19
ENDBRANCH   6   1
TORSDOF 3
ENDMDL
MODEL 6
REMARK VINA RESULT:      -6.4     13.712     16.735
REMARK  Name = 9424526
REMARK  3 active torsions:
REMARK  status: ('A' for Active; 'I' for Inactive)
REMARK    1  A    between atoms: S_1  and  N_6
REMARK    2  A    between atoms: S_1  and  C_19
REMARK    3  A    between atoms: C_15  and  C_20
REMARK                            x       y       z     vdW  Elec       q    Type
REMARK                         _______ _______ _______ _____ _____    ______ ____
ROOT
ATOM      5  O   UNL     1      13.240   3.377   2.058  0.00  0.00    -0.268 OA
ATOM      6  N   UNL     1      13.209   7.437   4.894  0.00  0.00    -0.176 NA
ATOM      7  N   UNL     1      12.788   5.660   2.329  0.00  0.00    -0.311 N 
ATOM      8  C   UNL     1      14.648   7.343   2.864  0.00  0.00    +0.025 C 
ATOM      9  C   UNL     1      12.324   8.107   2.667  0.00  0.00    +0.053 C 
ATOM     10  C   UNL     1      13.745   8.342   2.161  0.00  0.00    +0.017 C 
ATOM     11  C   UNL     1      14.605   7.543   4.386  0.00  0.00    +0.114 C 
ATOM     12  C   UNL     1      12.273   8.359   4.186  0.00  0.00    +0.119 C 
ATOM     13  C   UNL     1      14.228   5.930   2.452  0.00  0.00    +0.130 C 
ATOM     14  C   UNL     1      11.833   6.695   2.334  0.00  0.00    +0.034 A 
ATOM     15  C   UNL     1      10.530   6.414   2.071  0.00  0.00    +0.005 A 
ATOM     16  C   UNL     1      12.445   4.317   2.089  0.00  0.00    +0.252 A 
ATOM     17  C   UNL     1      10.138   5.040   1.822  0.00  0.00    +0.015 A 
ATOM     18  C   UNL     1      11.013   4.036   1.839  0.00  0.00    +0.071 A 
ENDROOT
BRANCH  15  20
ATOM      2  F   UNL     1      10.004   7.978  -0.222  0.00  0.00    -0.205 F 
ATOM     20  C   UNL     1       9.495   7.471   2.045  0.00  0.00    +0.019 A 
ATOM     23  C   UNL     1       9.281   8.207   0.884  0.00  0.00    +0.131 A 
ATOM     24  C   UNL     1       8.739   7.719   3.187  0.00  0.00    +0.011 A 
ATOM     27  C   UNL     1       8.303   9.203   0.865  0.00  0.00    +0.039 A 
ATOM     28  C   UNL     1       7.761   8.713   3.169  0.00  0.00    +0.001 A 
ATOM     30  C   UNL     1       7.543   9.455   2.007  0.00  0.00    +0.003 A 
ENDBRANCH  15  20
BRANCH   6   1
ATOM      1  S   UNL     1      13.039   7.374   6.595  0.00  0.00    +0.061 S 
ATOM      3  O   UNL     1      13.179   8.710   7.135  0.00  0.00    -0.153 OA
ATOM      4  O   UNL     1      13.833   6.277   7.108  0.00  0.00    -0.153 OA
BRANCH   1  19
ATOM     19  C   UNL     1      11.337   6.918   6.720  0.00  0.00    +0.105 A 
ATOM     21  C   UNL     1      10.870   5.837   5.990  0.00  0.00    +0.028 A 
ATOM     22  C   UNL     1      10.498   7.649   7.545  0.00  0.00    +0.028 A 
ATOM     25  C   UNL     1       9.526   5.477   6.089  0.00  0.00    +0.002 A 
ATOM     26  C   UNL     1       9.155   7.289   7.643  0.00  0.00    +0.002 A 
ATOM     29  C   UNL     1       8.668   6.204   6.914  0.00  0.00    +0.000 A 
ENDBRANCH   1  19
ENDBRANCH   6   1
TORSDOF 3
ENDMDL
MODEL 7
REMARK VINA RESULT:      -6.4     14.177     17.123
REMARK  Name = 9424526
REMARK  3 active torsions:
REMARK  status: ('A' for Active; 'I' for Inactive)
REMARK    1  A    between atoms: S_1  and  N_6
REMARK    2  A    between atoms: S_1  and  C_19
REMARK    3  A    between atoms: C_15  and  C_20
REMARK                            x       y       z     vdW  Elec       q    Type
REMARK                         _______ _______ _______ _____ _____    ______ ____
ROOT
ATOM      5  O   UNL     1       7.667   8.805   2.563  0.00  0.00    -0.268 OA
ATOM      6  N   UNL     1      11.043   7.586   5.975  0.00  0.00    -0.176 NA
ATOM      7  N   UNL     1       9.080   7.213   3.540  0.00  0.00    -0.311 N 
ATOM      8  C   UNL     1       8.805   6.494   5.987  0.00  0.00    +0.025 C 
ATOM      9  C   UNL     1      10.611   5.541   4.625  0.00  0.00    +0.053 C 
ATOM     10  C   UNL     1       9.425   5.188   5.520  0.00  0.00    +0.017 C 
ATOM     11  C   UNL     1       9.819   7.327   6.784  0.00  0.00    +0.114 C 
ATOM     12  C   UNL     1      11.651   6.332   5.442  0.00  0.00    +0.119 C 
ATOM     13  C   UNL     1       8.269   7.244   4.765  0.00  0.00    +0.130 C 
ATOM     14  C   UNL     1      10.172   6.334   3.392  0.00  0.00    +0.034 A 
ATOM     15  C   UNL     1      10.801   6.235   2.192  0.00  0.00    +0.005 A 
ATOM     16  C   UNL     1       8.622   8.032   2.492  0.00  0.00    +0.252 A 
ATOM     17  C   UNL     1      10.359   7.066   1.089  0.00  0.00    +0.015 A 
ATOM     18  C   UNL     1       9.349   7.927   1.207  0.00  0.00    +0.071 A 
ENDROOT
BRANCH  15  20
ATOM      2  F   UNL     1      13.493   7.085   2.277  0.00  0.00    -0.205 F 
ATOM     20  C   UNL     1      11.938   5.311   1.983  0.00  0.00    +0.019 A 
ATOM     23  C   UNL     1      13.243   5.790   2.039  0.00  0.00    +0.131 A 
ATOM     24  C   UNL     1      11.690   3.964   1.733  0.00  0.00    +0.011 A 
ATOM     27  C   UNL     1      14.311   4.914   1.841  0.00  0.00    +0.039 A 
ATOM     28  C   UNL     1      12.757   3.088   1.537  0.00  0.00    +0.001 A 
ATOM     30  C   UNL     1      14.068   3.563   1.591  0.00  0.00    +0.003 A 
ENDBRANCH  15  20
BRANCH   6   1
ATOM      1  S   UNL     1      12.142   8.720   6.633  0.00  0.00    +0.061 S 
ATOM      3  O   UNL     1      13.254   8.010   7.230  0.00  0.00    -0.153 OA
ATOM      4  O   UNL     1      11.403   9.714   7.383  0.00  0.00    -0.153 OA
BRANCH   1  19
ATOM     19  C   UNL     1      12.724   9.482   5.149  0.00  0.00    +0.105 A 
ATOM     21  C   UNL     1      11.855   9.642   4.083  0.00  0.00    +0.028 A 
ATOM     22  C   UNL     1      14.041   9.907   5.077  0.00  0.00    +0.028 A 
ATOM     25  C   UNL     1      12.315  10.243   2.912  0.00  0.00    +0.002 A 
ATOM     26  C   UNL     1      14.501  10.508   3.906  0.00  0.00    +0.002 A 
ATOM     29  C   UNL     1      13.638  10.675   2.822  0.00  0.00    +0.000 A 
ENDBRANCH   1  19
ENDBRANCH   6   1
TORSDOF 3
ENDMDL
MODEL 8
REMARK VINA RESULT:      -6.1     13.877     16.032
REMARK  Name = 9424526
REMARK  3 active torsions:
REMARK  status: ('A' for Active; 'I' for Inactive)
REMARK    1  A    between atoms: S_1  and  N_6
REMARK    2  A    between atoms: S_1  and  C_19
REMARK    3  A    between atoms: C_15  and  C_20
REMARK                            x       y       z     vdW  Elec       q    Type
REMARK                         _______ _______ _______ _____ _____    ______ ____
ROOT
ATOM      5  O   UNL     1      18.799  -7.556  27.761  0.00  0.00    -0.268 OA
ATOM      6  N   UNL     1      20.895  -3.076  28.003  0.00  0.00    -0.176 NA
ATOM      7  N   UNL     1      19.621  -5.641  26.693  0.00  0.00    -0.311 N 
ATOM      8  C   UNL     1      22.085  -4.952  26.878  0.00  0.00    +0.025 C 
ATOM      9  C   UNL     1      20.518  -3.567  25.593  0.00  0.00    +0.053 C 
ATOM     10  C   UNL     1      21.854  -4.304  25.523  0.00  0.00    +0.017 C 
ATOM     11  C   UNL     1      22.140  -3.893  27.989  0.00  0.00    +0.114 C 
ATOM     12  C   UNL     1      20.595  -2.470  26.673  0.00  0.00    +0.119 C 
ATOM     13  C   UNL     1      20.984  -5.988  27.118  0.00  0.00    +0.130 C 
ATOM     14  C   UNL     1      19.358  -4.525  25.873  0.00  0.00    +0.034 A 
ATOM     15  C   UNL     1      18.106  -4.326  25.385  0.00  0.00    +0.005 A 
ATOM     16  C   UNL     1      18.622  -6.559  27.061  0.00  0.00    +0.252 A 
ATOM     17  C   UNL     1      17.049  -5.250  25.746  0.00  0.00    +0.015 A 
ATOM     18  C   UNL     1      17.260  -6.297  26.542  0.00  0.00    +0.071 A 
ENDROOT
BRANCH  15  20
ATOM      2  F   UNL     1      17.086  -1.883  26.368  0.00  0.00    -0.205 F 
ATOM     20  C   UNL     1      17.787  -3.180  24.504  0.00  0.00    +0.019 A 
ATOM     23  C   UNL     1      17.288  -2.001  25.049  0.00  0.00    +0.131 A 
ATOM     24  C   UNL     1      17.992  -3.292  23.131  0.00  0.00    +0.011 A 
ATOM     27  C   UNL     1      16.990  -0.924  24.213  0.00  0.00    +0.039 A 
ATOM     28  C   UNL     1      17.695  -2.216  22.296  0.00  0.00    +0.001 A 
ATOM     30  C   UNL     1      17.194  -1.031  22.837  0.00  0.00    +0.003 A 
ENDBRANCH  15  20
BRANCH   6   1
ATOM      1  S   UNL     1      20.702  -2.038  29.349  0.00  0.00    +0.061 S 
ATOM      3  O   UNL     1      20.828  -0.664  28.910  0.00  0.00    -0.153 OA
ATOM      4  O   UNL     1      21.493  -2.543  30.452  0.00  0.00    -0.153 OA
BRANCH   1  19
ATOM     19  C   UNL     1      19.001  -2.329  29.723  0.00  0.00    +0.105 A 
ATOM     21  C   UNL     1      18.409  -3.512  29.312  0.00  0.00    +0.028 A 
ATOM     22  C   UNL     1      18.286  -1.369  30.421  0.00  0.00    +0.028 A 
ATOM     25  C   UNL     1      17.065  -3.742  29.606  0.00  0.00    +0.002 A 
ATOM     26  C   UNL     1      16.942  -1.598  30.716  0.00  0.00    +0.002 A 
ATOM     29  C   UNL     1      16.332  -2.785  30.308  0.00  0.00    +0.000 A 
ENDBRANCH   1  19
ENDBRANCH   6   1
TORSDOF 3
ENDMDL
MODEL 9
REMARK VINA RESULT:      -6.1      2.351      3.984
REMARK  Name = 9424526
REMARK  3 active torsions:
REMARK  status: ('A' for Active; 'I' for Inactive)
REMARK    1  A    between atoms: S_1  and  N_6
REMARK    2  A    between atoms: S_1  and  C_19
REMARK    3  A    between atoms: C_15  and  C_20
REMARK                            x       y       z     vdW  Elec       q    Type
REMARK                         _______ _______ _______ _____ _____    ______ ____
ROOT
ATOM      5  O   UNL     1      17.787  10.830  20.510  0.00  0.00    -0.268 OA
ATOM      6  N   UNL     1      13.252  12.785  20.134  0.00  0.00    -0.176 NA
ATOM      7  N   UNL     1      15.524  10.611  19.948  0.00  0.00    -0.311 N 
ATOM      8  C   UNL     1      14.458  12.025  18.092  0.00  0.00    +0.025 C 
ATOM      9  C   UNL     1      13.088  10.427  19.355  0.00  0.00    +0.053 C 
ATOM     10  C   UNL     1      13.503  10.852  17.948  0.00  0.00    +0.017 C 
ATOM     11  C   UNL     1      13.775  13.202  18.803  0.00  0.00    +0.114 C 
ATOM     12  C   UNL     1      12.357  11.594  20.047  0.00  0.00    +0.119 C 
ATOM     13  C   UNL     1      15.710  11.547  18.830  0.00  0.00    +0.130 C 
ATOM     14  C   UNL     1      14.291   9.971  20.185  0.00  0.00    +0.034 A 
ATOM     15  C   UNL     1      14.203   9.005  21.136  0.00  0.00    +0.005 A 
ATOM     16  C   UNL     1      16.683  10.313  20.685  0.00  0.00    +0.252 A 
ATOM     17  C   UNL     1      15.377   8.673  21.919  0.00  0.00    +0.015 A 
ATOM     18  C   UNL     1      16.549   9.281  21.738  0.00  0.00    +0.071 A 
ENDROOT
BRANCH  15  20
ATOM      2  F   UNL     1      13.613   6.473  20.032  0.00  0.00    -0.205 F 
ATOM     20  C   UNL     1      12.935   8.291  21.407  0.00  0.00    +0.019 A 
ATOM     23  C   UNL     1      12.703   7.044  20.834  0.00  0.00    +0.131 A 
ATOM     24  C   UNL     1      11.983   8.876  22.237  0.00  0.00    +0.011 A 
ATOM     27  C   UNL     1      11.506   6.376  21.093  0.00  0.00    +0.039 A 
ATOM     28  C   UNL     1      10.787   8.207  22.496  0.00  0.00    +0.001 A 
ATOM     30  C   UNL     1      10.548   6.957  21.925  0.00  0.00    +0.003 A 
ENDBRANCH  15  20
BRANCH   6   1
ATOM      1  S   UNL     1      12.706  14.050  21.147  0.00  0.00    +0.061 S 
ATOM      3  O   UNL     1      11.481  14.598  20.602  0.00  0.00    -0.153 OA
ATOM      4  O   UNL     1      13.824  14.908  21.476  0.00  0.00    -0.153 OA
BRANCH   1  19
ATOM     19  C   UNL     1      12.285  13.128  22.594  0.00  0.00    +0.105 A 
ATOM     21  C   UNL     1      10.963  13.079  23.005  0.00  0.00    +0.028 A 
ATOM     22  C   UNL     1      13.283  12.469  23.292  0.00  0.00    +0.028 A 
ATOM     25  C   UNL     1      10.630  12.351  24.148  0.00  0.00    +0.002 A 
ATOM     26  C   UNL     1      12.951  11.741  24.435  0.00  0.00    +0.002 A 
ATOM     29  C   UNL     1      11.624  11.683  24.863  0.00  0.00    +0.000 A 
ENDBRANCH   1  19
ENDBRANCH   6   1
TORSDOF 3
ENDMDL
MODEL 10
REMARK VINA RESULT:      -6.1     26.862     28.938
REMARK  Name = 9424526
REMARK  3 active torsions:
REMARK  status: ('A' for Active; 'I' for Inactive)
REMARK    1  A    between atoms: S_1  and  N_6
REMARK    2  A    between atoms: S_1  and  C_19
REMARK    3  A    between atoms: C_15  and  C_20
REMARK                            x       y       z     vdW  Elec       q    Type
REMARK                         _______ _______ _______ _____ _____    ______ ____
ROOT
ATOM      5  O   UNL     1      -1.913 -10.670  16.620  0.00  0.00    -0.268 OA
ATOM      6  N   UNL     1      -5.693 -13.131  14.576  0.00  0.00    -0.176 NA
ATOM      7  N   UNL     1      -3.706 -10.748  15.116  0.00  0.00    -0.311 N 
ATOM      8  C   UNL     1      -6.120 -11.078  15.920  0.00  0.00    +0.025 C 
ATOM      9  C   UNL     1      -5.644 -10.878  13.520  0.00  0.00    +0.053 C 
ATOM     10  C   UNL     1      -6.489 -10.314  14.660  0.00  0.00    +0.017 C 
ATOM     11  C   UNL     1      -6.413 -12.577  15.756  0.00  0.00    +0.114 C 
ATOM     12  C   UNL     1      -5.978 -12.370  13.325  0.00  0.00    +0.119 C 
ATOM     13  C   UNL     1      -4.649 -10.806  16.243  0.00  0.00    +0.130 C 
ATOM     14  C   UNL     1      -4.147 -10.687  13.779  0.00  0.00    +0.034 A 
ATOM     15  C   UNL     1      -3.249 -10.486  12.780  0.00  0.00    +0.005 A 
ATOM     16  C   UNL     1      -2.350 -10.639  15.470  0.00  0.00    +0.252 A 
ATOM     17  C   UNL     1      -1.840 -10.373  13.106  0.00  0.00    +0.015 A 
ATOM     18  C   UNL     1      -1.390 -10.455  14.358  0.00  0.00    +0.071 A 
ENDROOT
BRANCH  15  20
ATOM      2  F   UNL     1      -3.329 -12.729  11.066  0.00  0.00    -0.205 F 
ATOM     20  C   UNL     1      -3.666 -10.395  11.364  0.00  0.00    +0.019 A 
ATOM     23  C   UNL     1      -3.687 -11.537  10.569  0.00  0.00    +0.131 A 
ATOM     24  C   UNL     1      -4.039  -9.161  10.837  0.00  0.00    +0.011 A 
ATOM     27  C   UNL     1      -4.082 -11.444   9.234  0.00  0.00    +0.039 A 
ATOM     28  C   UNL     1      -4.435  -9.069   9.503  0.00  0.00    +0.001 A 
ATOM     30  C   UNL     1      -4.457 -10.211   8.701  0.00  0.00    +0.003 A 
ENDBRANCH  15  20
BRANCH   6   1
ATOM      1  S   UNL     1      -5.712 -14.835  14.426  0.00  0.00    +0.061 S 
ATOM      3  O   UNL     1      -6.632 -15.207  13.372  0.00  0.00    -0.153 OA
ATOM      4  O   UNL     1      -5.813 -15.424  15.745  0.00  0.00    -0.153 OA
BRANCH   1  19
ATOM     19  C   UNL     1      -4.072 -15.112  13.832  0.00  0.00    +0.105 A 
ATOM     21  C   UNL     1      -3.066 -14.227  14.182  0.00  0.00    +0.028 A 
ATOM     22  C   UNL     1      -3.820 -16.209  13.024  0.00  0.00    +0.028 A 
ATOM     25  C   UNL     1      -1.771 -14.445  13.712  0.00  0.00    +0.002 A 
ATOM     26  C   UNL     1      -2.525 -16.428  12.554  0.00  0.00    +0.002 A 
ATOM     29  C   UNL     1      -1.501 -15.545  12.898  0.00  0.00    +0.000 A 
ENDBRANCH   1  19
ENDBRANCH   6   1
TORSDOF 3
ENDMDL
