MODEL 1
REMARK VINA RESULT:      -6.3      0.000      0.000
REMARK  Name = 75368527
REMARK  6 active torsions:
REMARK  status: ('A' for Active; 'I' for Inactive)
REMARK    1  A    between atoms: O_2  and  C_16
REMARK    2  A    between atoms: O_2  and  C_19
REMARK    3  A    between atoms: N_5  and  C_14
REMARK    4  A    between atoms: N_7  and  C_17
REMARK    5  A    between atoms: C_14  and  C_16
REMARK    6  A    between atoms: C_17  and  C_18
REMARK                            x       y       z     vdW  Elec       q    Type
REMARK                         _______ _______ _______ _____ _____    ______ ____
ROOT
ATOM      1  O   UNL     1      16.523   5.685  18.343  0.00  0.00    -0.252 OA
ATOM      3  O   UNL     1      10.930   9.037  20.644  0.00  0.00    -0.253 OA
ATOM      4  N   UNL     1      15.129   6.892  19.798  0.00  0.00    -0.278 N 
ATOM      5  N   UNL     1      17.272   6.576  20.393  0.00  0.00    -0.281 N 
ATOM      6  N   UNL     1      13.231   8.766  20.587  0.00  0.00    -0.282 N 
ATOM      7  N   UNL     1      12.133   9.555  22.526  0.00  0.00    -0.295 N 
ATOM      8  C   UNL     1      15.224   7.449  21.138  0.00  0.00    +0.112 C 
ATOM      9  C   UNL     1      16.721   7.428  21.434  0.00  0.00    +0.133 C 
ATOM     10  C   UNL     1      14.583   8.833  21.180  0.00  0.00    +0.133 C 
ATOM     11  C   UNL     1      13.855   6.900  19.099  0.00  0.00    +0.128 C 
ATOM     12  C   UNL     1      13.213   8.284  19.197  0.00  0.00    +0.128 C 
ATOM     13  C   UNL     1      16.331   6.302  19.382  0.00  0.00    +0.305 C 
ATOM     15  C   UNL     1      12.024   9.116  21.213  0.00  0.00    +0.303 C 
ATOM     25  H   UNL     1      13.027   9.590  22.994  0.00  0.00    +0.151 HD
ENDROOT
BRANCH   5  14
ATOM     14  C   UNL     1      18.670   6.202  20.371  0.00  0.00    +0.137 C 
BRANCH  14  16
ATOM     16  C   UNL     1      19.506   7.121  21.242  0.00  0.00    +0.178 C 
BRANCH  16   2
ATOM      2  O   UNL     1      20.143   6.358  22.259  0.00  0.00    -0.381 OA
ATOM     19  C   UNL     1      20.273   7.100  23.463  0.00  0.00    +0.194 C 
ENDBRANCH  16   2
ENDBRANCH  14  16
ENDBRANCH   5  14
BRANCH   7  17
ATOM     17  C   UNL     1      10.978   9.945  23.304  0.00  0.00    +0.141 C 
BRANCH  17  18
ATOM     18  C   UNL     1      11.012  11.402  23.670  0.00  0.00    -0.030 A 
ATOM     20  C   UNL     1      10.969  11.785  25.010  0.00  0.00    +0.005 A 
ATOM     21  C   UNL     1      11.088  12.369  22.668  0.00  0.00    +0.005 A 
ATOM     22  C   UNL     1      11.001  13.138  25.349  0.00  0.00    +0.000 A 
ATOM     23  C   UNL     1      11.119  13.722  23.008  0.00  0.00    +0.000 A 
ATOM     24  C   UNL     1      11.077  14.107  24.348  0.00  0.00    +0.000 A 
ENDBRANCH  17  18
ENDBRANCH   7  17
TORSDOF 5
ENDMDL
MODEL 2
REMARK VINA RESULT:      -6.1     27.652     29.333
REMARK  Name = 75368527
REMARK  6 active torsions:
REMARK  status: ('A' for Active; 'I' for Inactive)
REMARK    1  A    between atoms: O_2  and  C_16
REMARK    2  A    between atoms: O_2  and  C_19
REMARK    3  A    between atoms: N_5  and  C_14
REMARK    4  A    between atoms: N_7  and  C_17
REMARK    5  A    between atoms: C_14  and  C_16
REMARK    6  A    between atoms: C_17  and  C_18
REMARK                            x       y       z     vdW  Elec       q    Type
REMARK                         _______ _______ _______ _____ _____    ______ ____
ROOT
ATOM      1  O   UNL     1      -3.568 -11.953  19.215  0.00  0.00    -0.252 OA
ATOM      3  O   UNL     1     -10.355 -10.787  19.837  0.00  0.00    -0.253 OA
ATOM      4  N   UNL     1      -5.715 -11.143  18.708  0.00  0.00    -0.278 N 
ATOM      5  N   UNL     1      -4.095 -10.908  17.168  0.00  0.00    -0.281 N 
ATOM      6  N   UNL     1      -8.489 -11.140  18.510  0.00  0.00    -0.282 N 
ATOM      7  N   UNL     1     -10.271  -9.766  17.786  0.00  0.00    -0.295 N 
ATOM      8  C   UNL     1      -6.330 -10.368  17.642  0.00  0.00    +0.112 C 
ATOM      9  C   UNL     1      -5.296 -10.410  16.520  0.00  0.00    +0.133 C 
ATOM     10  C   UNL     1      -7.690 -10.957  17.280  0.00  0.00    +0.133 C 
ATOM     11  C   UNL     1      -6.478 -11.468  19.900  0.00  0.00    +0.128 C 
ATOM     12  C   UNL     1      -7.852 -12.011  19.510  0.00  0.00    +0.128 C 
ATOM     13  C   UNL     1      -4.358 -11.400  18.461  0.00  0.00    +0.305 C 
ATOM     15  C   UNL     1      -9.747 -10.580  18.782  0.00  0.00    +0.303 C 
ATOM     25  H   UNL     1      -9.755  -9.579  16.938  0.00  0.00    +0.151 HD
ENDROOT
BRANCH   5  14
ATOM     14  C   UNL     1      -2.830 -10.999  16.471  0.00  0.00    +0.137 C 
BRANCH  14  16
ATOM     16  C   UNL     1      -3.009 -10.853  14.972  0.00  0.00    +0.178 C 
BRANCH  16   2
ATOM      2  O   UNL     1      -1.877 -10.193  14.422  0.00  0.00    -0.381 OA
ATOM     19  C   UNL     1      -0.896  -9.926  15.413  0.00  0.00    +0.194 C 
ENDBRANCH  16   2
ENDBRANCH  14  16
ENDBRANCH   5  14
BRANCH   7  17
ATOM     17  C   UNL     1     -11.555  -9.114  17.922  0.00  0.00    +0.141 C 
BRANCH  17  18
ATOM     18  C   UNL     1     -11.721  -7.988  16.942  0.00  0.00    -0.030 A 
ATOM     20  C   UNL     1     -12.957  -7.770  16.333  0.00  0.00    +0.005 A 
ATOM     21  C   UNL     1     -10.639  -7.161  16.643  0.00  0.00    +0.005 A 
ATOM     22  C   UNL     1     -13.109  -6.724  15.423  0.00  0.00    +0.000 A 
ATOM     23  C   UNL     1     -10.792  -6.115  15.732  0.00  0.00    +0.000 A 
ATOM     24  C   UNL     1     -12.027  -5.896  15.123  0.00  0.00    +0.000 A 
ENDBRANCH  17  18
ENDBRANCH   7  17
TORSDOF 5
ENDMDL
MODEL 3
REMARK VINA RESULT:      -6.0     27.217     29.233
REMARK  Name = 75368527
REMARK  6 active torsions:
REMARK  status: ('A' for Active; 'I' for Inactive)
REMARK    1  A    between atoms: O_2  and  C_16
REMARK    2  A    between atoms: O_2  and  C_19
REMARK    3  A    between atoms: N_5  and  C_14
REMARK    4  A    between atoms: N_7  and  C_17
REMARK    5  A    between atoms: C_14  and  C_16
REMARK    6  A    between atoms: C_17  and  C_18
REMARK                            x       y       z     vdW  Elec       q    Type
REMARK                         _______ _______ _______ _____ _____    ______ ____
ROOT
ATOM      1  O   UNL     1      -4.830  -9.018   8.081  0.00  0.00    -0.252 OA
ATOM      3  O   UNL     1      -1.947 -10.885  14.082  0.00  0.00    -0.253 OA
ATOM      4  N   UNL     1      -4.611  -9.403  10.389  0.00  0.00    -0.278 N 
ATOM      5  N   UNL     1      -6.638  -8.859   9.586  0.00  0.00    -0.281 N 
ATOM      6  N   UNL     1      -3.814 -10.685  12.724  0.00  0.00    -0.282 N 
ATOM      7  N   UNL     1      -3.973 -10.477  15.073  0.00  0.00    -0.295 N 
ATOM      8  C   UNL     1      -5.451  -9.274  11.569  0.00  0.00    +0.112 C 
ATOM      9  C   UNL     1      -6.859  -9.127  10.997  0.00  0.00    +0.133 C 
ATOM     10  C   UNL     1      -5.258 -10.477  12.487  0.00  0.00    +0.133 C 
ATOM     11  C   UNL     1      -3.203  -9.728  10.535  0.00  0.00    +0.128 C 
ATOM     12  C   UNL     1      -3.034 -10.904  11.496  0.00  0.00    +0.128 C 
ATOM     13  C   UNL     1      -5.299  -9.081   9.210  0.00  0.00    +0.305 C 
ATOM     15  C   UNL     1      -3.163 -10.697  13.968  0.00  0.00    +0.303 C 
ATOM     25  H   UNL     1      -4.961 -10.296  14.970  0.00  0.00    +0.151 HD
ENDROOT
BRANCH   5  14
ATOM     14  C   UNL     1      -7.728  -8.546   8.686  0.00  0.00    +0.137 C 
BRANCH  14  16
ATOM     16  C   UNL     1      -7.794  -7.060   8.387  0.00  0.00    +0.178 C 
BRANCH  16   2
ATOM      2  O   UNL     1      -8.093  -6.867   7.011  0.00  0.00    -0.381 OA
ATOM     19  C   UNL     1      -9.494  -6.837   6.781  0.00  0.00    +0.194 C 
ENDBRANCH  16   2
ENDBRANCH  14  16
ENDBRANCH   5  14
BRANCH   7  17
ATOM     17  C   UNL     1      -3.447 -10.454  16.420  0.00  0.00    +0.141 C 
BRANCH  17  18
ATOM     18  C   UNL     1      -4.516 -10.704  17.446  0.00  0.00    -0.030 A 
ATOM     20  C   UNL     1      -4.239 -11.490  18.565  0.00  0.00    +0.005 A 
ATOM     21  C   UNL     1      -5.784 -10.148  17.279  0.00  0.00    +0.005 A 
ATOM     22  C   UNL     1      -5.232 -11.720  19.517  0.00  0.00    +0.000 A 
ATOM     23  C   UNL     1      -6.777 -10.380  18.231  0.00  0.00    +0.000 A 
ATOM     24  C   UNL     1      -6.502 -11.165  19.350  0.00  0.00    +0.000 A 
ENDBRANCH  17  18
ENDBRANCH   7  17
TORSDOF 5
ENDMDL
MODEL 4
REMARK VINA RESULT:      -6.0      3.778     10.226
REMARK  Name = 75368527
REMARK  6 active torsions:
REMARK  status: ('A' for Active; 'I' for Inactive)
REMARK    1  A    between atoms: O_2  and  C_16
REMARK    2  A    between atoms: O_2  and  C_19
REMARK    3  A    between atoms: N_5  and  C_14
REMARK    4  A    between atoms: N_7  and  C_17
REMARK    5  A    between atoms: C_14  and  C_16
REMARK    6  A    between atoms: C_17  and  C_18
REMARK                            x       y       z     vdW  Elec       q    Type
REMARK                         _______ _______ _______ _____ _____    ______ ____
ROOT
ATOM      1  O   UNL     1      15.383   9.589  20.528  0.00  0.00    -0.252 OA
ATOM      3  O   UNL     1      21.455   7.215  22.830  0.00  0.00    -0.253 OA
ATOM      4  N   UNL     1      17.135   8.083  20.953  0.00  0.00    -0.278 N 
ATOM      5  N   UNL     1      15.470   7.425  19.595  0.00  0.00    -0.281 N 
ATOM      6  N   UNL     1      19.752   7.192  21.258  0.00  0.00    -0.282 N 
ATOM      7  N   UNL     1      20.972   5.236  21.779  0.00  0.00    -0.295 N 
ATOM      8  C   UNL     1      17.430   6.690  20.658  0.00  0.00    +0.112 C 
ATOM      9  C   UNL     1      16.423   6.328  19.569  0.00  0.00    +0.133 C 
ATOM     10  C   UNL     1      18.892   6.534  20.253  0.00  0.00    +0.133 C 
ATOM     11  C   UNL     1      18.006   8.835  21.839  0.00  0.00    +0.128 C 
ATOM     12  C   UNL     1      19.467   8.624  21.441  0.00  0.00    +0.128 C 
ATOM     13  C   UNL     1      15.925   8.501  20.381  0.00  0.00    +0.305 C 
ATOM     15  C   UNL     1      20.774   6.591  22.010  0.00  0.00    +0.303 C 
ATOM     25  H   UNL     1      20.392   4.726  21.128  0.00  0.00    +0.151 HD
ENDROOT
BRANCH   5  14
ATOM     14  C   UNL     1      14.276   7.421  18.777  0.00  0.00    +0.137 C 
BRANCH  14  16
ATOM     16  C   UNL     1      13.053   7.018  19.579  0.00  0.00    +0.178 C 
BRANCH  16   2
ATOM      2  O   UNL     1      11.879   7.398  18.873  0.00  0.00    -0.381 OA
ATOM     19  C   UNL     1      11.216   8.482  19.508  0.00  0.00    +0.194 C 
ENDBRANCH  16   2
ENDBRANCH  14  16
ENDBRANCH   5  14
BRANCH   7  17
ATOM     17  C   UNL     1      21.983   4.476  22.481  0.00  0.00    +0.141 C 
BRANCH  17  18
ATOM     18  C   UNL     1      23.007   3.903  21.543  0.00  0.00    -0.030 A 
ATOM     20  C   UNL     1      23.252   2.529  21.533  0.00  0.00    +0.005 A 
ATOM     21  C   UNL     1      23.711   4.744  20.683  0.00  0.00    +0.005 A 
ATOM     22  C   UNL     1      24.203   1.998  20.662  0.00  0.00    +0.000 A 
ATOM     23  C   UNL     1      24.663   4.212  19.812  0.00  0.00    +0.000 A 
ATOM     24  C   UNL     1      24.909   2.839  19.801  0.00  0.00    +0.000 A 
ENDBRANCH  17  18
ENDBRANCH   7  17
TORSDOF 5
ENDMDL
MODEL 5
REMARK VINA RESULT:      -5.9      2.630      8.091
REMARK  Name = 75368527
REMARK  6 active torsions:
REMARK  status: ('A' for Active; 'I' for Inactive)
REMARK    1  A    between atoms: O_2  and  C_16
REMARK    2  A    between atoms: O_2  and  C_19
REMARK    3  A    between atoms: N_5  and  C_14
REMARK    4  A    between atoms: N_7  and  C_17
REMARK    5  A    between atoms: C_14  and  C_16
REMARK    6  A    between atoms: C_17  and  C_18
REMARK                            x       y       z     vdW  Elec       q    Type
REMARK                         _______ _______ _______ _____ _____    ______ ____
ROOT
ATOM      1  O   UNL     1      10.032  12.517  24.156  0.00  0.00    -0.252 OA
ATOM      3  O   UNL     1      12.255   7.037  20.574  0.00  0.00    -0.253 OA
ATOM      4  N   UNL     1      11.474  11.146  22.907  0.00  0.00    -0.278 N 
ATOM      5  N   UNL     1      12.316  13.008  23.842  0.00  0.00    -0.281 N 
ATOM      6  N   UNL     1      12.673   8.799  22.020  0.00  0.00    -0.282 N 
ATOM      7  N   UNL     1      14.312   8.044  20.493  0.00  0.00    -0.295 N 
ATOM      8  C   UNL     1      12.845  11.209  22.428  0.00  0.00    +0.112 C 
ATOM      9  C   UNL     1      13.461  12.345  23.241  0.00  0.00    +0.133 C 
ATOM     10  C   UNL     1      13.527   9.856  22.600  0.00  0.00    +0.133 C 
ATOM     11  C   UNL     1      10.606  10.064  22.477  0.00  0.00    +0.128 C 
ATOM     12  C   UNL     1      11.329   8.725  22.614  0.00  0.00    +0.128 C 
ATOM     13  C   UNL     1      11.133  12.259  23.690  0.00  0.00    +0.305 C 
ATOM     15  C   UNL     1      13.028   7.900  21.002  0.00  0.00    +0.303 C 
ATOM     25  H   UNL     1      14.929   8.770  20.828  0.00  0.00    +0.151 HD
ENDROOT
BRANCH   5  14
ATOM     14  C   UNL     1      12.455  14.221  24.618  0.00  0.00    +0.137 C 
BRANCH  14  16
ATOM     16  C   UNL     1      12.372  13.941  26.107  0.00  0.00    +0.178 C 
BRANCH  16   2
ATOM      2  O   UNL     1      13.658  14.106  26.691  0.00  0.00    -0.381 OA
ATOM     19  C   UNL     1      14.291  12.855  26.920  0.00  0.00    +0.194 C 
ENDBRANCH  16   2
ENDBRANCH  14  16
ENDBRANCH   5  14
BRANCH   7  17
ATOM     17  C   UNL     1      14.821   7.196  19.438  0.00  0.00    +0.141 C 
BRANCH  17  18
ATOM     18  C   UNL     1      16.219   6.725  19.719  0.00  0.00    -0.030 A 
ATOM     20  C   UNL     1      16.853   5.852  18.834  0.00  0.00    +0.005 A 
ATOM     21  C   UNL     1      16.883   7.162  20.865  0.00  0.00    +0.005 A 
ATOM     22  C   UNL     1      18.151   5.416  19.097  0.00  0.00    +0.000 A 
ATOM     23  C   UNL     1      18.182   6.724  21.127  0.00  0.00    +0.000 A 
ATOM     24  C   UNL     1      18.816   5.852  20.243  0.00  0.00    +0.000 A 
ENDBRANCH  17  18
ENDBRANCH   7  17
TORSDOF 5
ENDMDL
MODEL 6
REMARK VINA RESULT:      -5.9     27.650     29.828
REMARK  Name = 75368527
REMARK  6 active torsions:
REMARK  status: ('A' for Active; 'I' for Inactive)
REMARK    1  A    between atoms: O_2  and  C_16
REMARK    2  A    between atoms: O_2  and  C_19
REMARK    3  A    between atoms: N_5  and  C_14
REMARK    4  A    between atoms: N_7  and  C_17
REMARK    5  A    between atoms: C_14  and  C_16
REMARK    6  A    between atoms: C_17  and  C_18
REMARK                            x       y       z     vdW  Elec       q    Type
REMARK                         _______ _______ _______ _____ _____    ______ ____
ROOT
ATOM      1  O   UNL     1      -7.553 -12.261  20.061  0.00  0.00    -0.252 OA
ATOM      3  O   UNL     1      -2.372 -11.615  15.528  0.00  0.00    -0.253 OA
ATOM      4  N   UNL     1      -6.416 -11.664  18.094  0.00  0.00    -0.278 N 
ATOM      5  N   UNL     1      -8.497 -10.876  18.403  0.00  0.00    -0.281 N 
ATOM      6  N   UNL     1      -4.313 -10.796  16.494  0.00  0.00    -0.282 N 
ATOM      7  N   UNL     1      -3.791 -10.370  14.228  0.00  0.00    -0.295 N 
ATOM      8  C   UNL     1      -6.731 -10.964  16.859  0.00  0.00    +0.112 C 
ATOM      9  C   UNL     1      -8.046 -10.254  17.170  0.00  0.00    +0.133 C 
ATOM     10  C   UNL     1      -5.582 -10.039  16.470  0.00  0.00    +0.133 C 
ATOM     11  C   UNL     1      -5.134 -12.332  18.241  0.00  0.00    +0.128 C 
ATOM     12  C   UNL     1      -4.005 -11.402  17.799  0.00  0.00    +0.128 C 
ATOM     13  C   UNL     1      -7.497 -11.678  18.987  0.00  0.00    +0.305 C 
ATOM     15  C   UNL     1      -3.420 -10.969  15.425  0.00  0.00    +0.303 C 
ATOM     25  H   UNL     1      -4.663  -9.867  14.144  0.00  0.00    +0.151 HD
ENDROOT
BRANCH   5  14
ATOM     14  C   UNL     1      -9.780 -10.562  18.994  0.00  0.00    +0.137 C 
BRANCH  14  16
ATOM     16  C   UNL     1     -10.837 -10.318  17.934  0.00  0.00    +0.178 C 
BRANCH  16   2
ATOM      2  O   UNL     1     -11.378  -9.014  18.096  0.00  0.00    -0.381 OA
ATOM     19  C   UNL     1     -11.189  -8.222  16.932  0.00  0.00    +0.194 C 
ENDBRANCH  16   2
ENDBRANCH  14  16
ENDBRANCH   5  14
BRANCH   7  17
ATOM     17  C   UNL     1      -2.978 -10.464  13.036  0.00  0.00    +0.141 C 
BRANCH  17  18
ATOM     18  C   UNL     1      -3.706  -9.972  11.818  0.00  0.00    -0.030 A 
ATOM     20  C   UNL     1      -2.989  -9.581  10.687  0.00  0.00    +0.005 A 
ATOM     21  C   UNL     1      -5.099  -9.907  11.819  0.00  0.00    +0.005 A 
ATOM     22  C   UNL     1      -3.666  -9.125   9.556  0.00  0.00    +0.000 A 
ATOM     23  C   UNL     1      -5.776  -9.449  10.688  0.00  0.00    +0.000 A 
ATOM     24  C   UNL     1      -5.060  -9.059   9.556  0.00  0.00    +0.000 A 
ENDBRANCH  17  18
ENDBRANCH   7  17
TORSDOF 5
ENDMDL
MODEL 7
REMARK VINA RESULT:      -5.8     27.468     29.189
REMARK  Name = 75368527
REMARK  6 active torsions:
REMARK  status: ('A' for Active; 'I' for Inactive)
REMARK    1  A    between atoms: O_2  and  C_16
REMARK    2  A    between atoms: O_2  and  C_19
REMARK    3  A    between atoms: N_5  and  C_14
REMARK    4  A    between atoms: N_7  and  C_17
REMARK    5  A    between atoms: C_14  and  C_16
REMARK    6  A    between atoms: C_17  and  C_18
REMARK                            x       y       z     vdW  Elec       q    Type
REMARK                         _______ _______ _______ _____ _____    ______ ____
ROOT
ATOM      1  O   UNL     1      -2.160 -11.043  16.612  0.00  0.00    -0.252 OA
ATOM      3  O   UNL     1      -8.324 -10.872  19.741  0.00  0.00    -0.253 OA
ATOM      4  N   UNL     1      -4.467 -10.706  16.907  0.00  0.00    -0.278 N 
ATOM      5  N   UNL     1      -3.620 -10.534  14.832  0.00  0.00    -0.281 N 
ATOM      6  N   UNL     1      -7.044 -11.186  17.834  0.00  0.00    -0.282 N 
ATOM      7  N   UNL     1      -9.229 -10.291  17.716  0.00  0.00    -0.295 N 
ATOM      8  C   UNL     1      -5.587 -10.274  16.087  0.00  0.00    +0.112 C 
ATOM      9  C   UNL     1      -5.054 -10.377  14.660  0.00  0.00    +0.133 C 
ATOM     10  C   UNL     1      -6.814 -11.133  16.375  0.00  0.00    +0.133 C 
ATOM     11  C   UNL     1      -4.646 -10.899  18.335  0.00  0.00    +0.128 C 
ATOM     12  C   UNL     1      -5.907 -11.722  18.598  0.00  0.00    +0.128 C 
ATOM     13  C   UNL     1      -3.274 -10.789  16.174  0.00  0.00    +0.305 C 
ATOM     15  C   UNL     1      -8.208 -10.791  18.513  0.00  0.00    +0.303 C 
ATOM     25  H   UNL     1      -9.116 -10.201  16.716  0.00  0.00    +0.151 HD
ENDROOT
BRANCH   5  14
ATOM     14  C   UNL     1      -2.713 -10.563  13.706  0.00  0.00    +0.137 C 
BRANCH  14  16
ATOM     16  C   UNL     1      -2.721 -11.915  13.018  0.00  0.00    +0.178 C 
BRANCH  16   2
ATOM      2  O   UNL     1      -1.647 -12.704  13.513  0.00  0.00    -0.381 OA
ATOM     19  C   UNL     1      -2.110 -13.930  14.061  0.00  0.00    +0.194 C 
ENDBRANCH  16   2
ENDBRANCH  14  16
ENDBRANCH   5  14
BRANCH   7  17
ATOM     17  C   UNL     1     -10.486  -9.839  18.270  0.00  0.00    +0.141 C 
BRANCH  17  18
ATOM     18  C   UNL     1     -11.099  -8.740  17.450  0.00  0.00    -0.030 A 
ATOM     20  C   UNL     1     -10.335  -7.630  17.089  0.00  0.00    +0.005 A 
ATOM     21  C   UNL     1     -12.432  -8.831  17.050  0.00  0.00    +0.005 A 
ATOM     22  C   UNL     1     -10.906  -6.610  16.327  0.00  0.00    +0.000 A 
ATOM     23  C   UNL     1     -13.002  -7.810  16.288  0.00  0.00    +0.000 A 
ATOM     24  C   UNL     1     -12.239  -6.700  15.926  0.00  0.00    +0.000 A 
ENDBRANCH  17  18
ENDBRANCH   7  17
TORSDOF 5
ENDMDL
MODEL 8
REMARK VINA RESULT:      -5.8     27.341     29.708
REMARK  Name = 75368527
REMARK  6 active torsions:
REMARK  status: ('A' for Active; 'I' for Inactive)
REMARK    1  A    between atoms: O_2  and  C_16
REMARK    2  A    between atoms: O_2  and  C_19
REMARK    3  A    between atoms: N_5  and  C_14
REMARK    4  A    between atoms: N_7  and  C_17
REMARK    5  A    between atoms: C_14  and  C_16
REMARK    6  A    between atoms: C_17  and  C_18
REMARK                            x       y       z     vdW  Elec       q    Type
REMARK                         _______ _______ _______ _____ _____    ______ ____
ROOT
ATOM      1  O   UNL     1      -8.097 -11.665  19.124  0.00  0.00    -0.252 OA
ATOM      3  O   UNL     1      -2.239 -11.841  15.454  0.00  0.00    -0.253 OA
ATOM      4  N   UNL     1      -6.576 -11.219  17.389  0.00  0.00    -0.278 N 
ATOM      5  N   UNL     1      -8.502 -10.062  17.442  0.00  0.00    -0.281 N 
ATOM      6  N   UNL     1      -4.126 -10.706  16.177  0.00  0.00    -0.282 N 
ATOM      7  N   UNL     1      -3.186 -10.299  14.047  0.00  0.00    -0.295 N 
ATOM      8  C   UNL     1      -6.560 -10.424  16.172  0.00  0.00    +0.112 C 
ATOM      9  C   UNL     1      -7.756  -9.490  16.334  0.00  0.00    +0.133 C 
ATOM     10  C   UNL     1      -5.216  -9.721  16.019  0.00  0.00    +0.133 C 
ATOM     11  C   UNL     1      -5.476 -12.124  17.677  0.00  0.00    +0.128 C 
ATOM     12  C   UNL     1      -4.142 -11.410  17.470  0.00  0.00    +0.128 C 
ATOM     13  C   UNL     1      -7.768 -11.062  18.111  0.00  0.00    +0.305 C 
ATOM     15  C   UNL     1      -3.123 -11.004  15.242  0.00  0.00    +0.303 C 
ATOM     25  H   UNL     1      -3.928  -9.637  13.869  0.00  0.00    +0.151 HD
ENDROOT
BRANCH   5  14
ATOM     14  C   UNL     1      -9.782  -9.533  17.859  0.00  0.00    +0.137 C 
BRANCH  14  16
ATOM     16  C   UNL     1     -10.443  -8.738  16.749  0.00  0.00    +0.178 C 
BRANCH  16   2
ATOM      2  O   UNL     1     -10.446  -7.358  17.093  0.00  0.00    -0.381 OA
ATOM     19  C   UNL     1     -10.512  -6.532  15.939  0.00  0.00    +0.194 C 
ENDBRANCH  16   2
ENDBRANCH  14  16
ENDBRANCH   5  14
BRANCH   7  17
ATOM     17  C   UNL     1      -2.227 -10.499  12.984  0.00  0.00    +0.141 C 
BRANCH  17  18
ATOM     18  C   UNL     1      -2.894 -10.658  11.647  0.00  0.00    -0.030 A 
ATOM     20  C   UNL     1      -3.317 -11.918  11.224  0.00  0.00    +0.005 A 
ATOM     21  C   UNL     1      -3.089  -9.545  10.830  0.00  0.00    +0.005 A 
ATOM     22  C   UNL     1      -3.937 -12.064   9.983  0.00  0.00    +0.000 A 
ATOM     23  C   UNL     1      -3.708  -9.692   9.588  0.00  0.00    +0.000 A 
ATOM     24  C   UNL     1      -4.132 -10.951   9.165  0.00  0.00    +0.000 A 
ENDBRANCH  17  18
ENDBRANCH   7  17
TORSDOF 5
ENDMDL
MODEL 9
REMARK VINA RESULT:      -5.8      2.073      8.242
REMARK  Name = 75368527
REMARK  6 active torsions:
REMARK  status: ('A' for Active; 'I' for Inactive)
REMARK    1  A    between atoms: O_2  and  C_16
REMARK    2  A    between atoms: O_2  and  C_19
REMARK    3  A    between atoms: N_5  and  C_14
REMARK    4  A    between atoms: N_7  and  C_17
REMARK    5  A    between atoms: C_14  and  C_16
REMARK    6  A    between atoms: C_17  and  C_18
REMARK                            x       y       z     vdW  Elec       q    Type
REMARK                         _______ _______ _______ _____ _____    ______ ____
ROOT
ATOM      1  O   UNL     1      11.690  10.444  20.861  0.00  0.00    -0.252 OA
ATOM      3  O   UNL     1      16.264   5.778  18.600  0.00  0.00    -0.253 OA
ATOM      4  N   UNL     1      13.683   9.206  20.726  0.00  0.00    -0.278 N 
ATOM      5  N   UNL     1      13.394  10.573  22.486  0.00  0.00    -0.281 N 
ATOM      6  N   UNL     1      15.322   6.994  20.333  0.00  0.00    -0.282 N 
ATOM      7  N   UNL     1      17.603   6.377  20.361  0.00  0.00    -0.295 N 
ATOM      8  C   UNL     1      14.941   9.141  21.452  0.00  0.00    +0.112 C 
ATOM      9  C   UNL     1      14.651   9.892  22.749  0.00  0.00    +0.133 C 
ATOM     10  C   UNL     1      15.368   7.688  21.636  0.00  0.00    +0.133 C 
ATOM     11  C   UNL     1      13.517   8.452  19.496  0.00  0.00    +0.128 C 
ATOM     12  C   UNL     1      13.996   7.014  19.694  0.00  0.00    +0.128 C 
ATOM     13  C   UNL     1      12.786  10.119  21.300  0.00  0.00    +0.305 C 
ATOM     15  C   UNL     1      16.387   6.343  19.692  0.00  0.00    +0.303 C 
ATOM     25  H   UNL     1      17.703   6.866  21.240  0.00  0.00    +0.151 HD
ENDROOT
BRANCH   5  14
ATOM     14  C   UNL     1      12.810  11.495  23.436  0.00  0.00    +0.137 C 
BRANCH  14  16
ATOM     16  C   UNL     1      13.799  11.877  24.521  0.00  0.00    +0.178 C 
BRANCH  16   2
ATOM      2  O   UNL     1      13.114  12.011  25.759  0.00  0.00    -0.381 OA
ATOM     19  C   UNL     1      13.754  12.950  26.612  0.00  0.00    +0.194 C 
ENDBRANCH  16   2
ENDBRANCH  14  16
ENDBRANCH   5  14
BRANCH   7  17
ATOM     17  C   UNL     1      18.794   5.756  19.825  0.00  0.00    +0.141 C 
BRANCH  17  18
ATOM     18  C   UNL     1      19.893   5.672  20.846  0.00  0.00    -0.030 A 
ATOM     20  C   UNL     1      20.958   4.792  20.653  0.00  0.00    +0.005 A 
ATOM     21  C   UNL     1      19.847   6.474  21.986  0.00  0.00    +0.005 A 
ATOM     22  C   UNL     1      21.978   4.714  21.602  0.00  0.00    +0.000 A 
ATOM     23  C   UNL     1      20.867   6.395  22.934  0.00  0.00    +0.000 A 
ATOM     24  C   UNL     1      21.932   5.516  22.743  0.00  0.00    +0.000 A 
ENDBRANCH  17  18
ENDBRANCH   7  17
TORSDOF 5
ENDMDL
MODEL 10
REMARK VINA RESULT:      -5.7      3.748      7.393
REMARK  Name = 75368527
REMARK  6 active torsions:
REMARK  status: ('A' for Active; 'I' for Inactive)
REMARK    1  A    between atoms: O_2  and  C_16
REMARK    2  A    between atoms: O_2  and  C_19
REMARK    3  A    between atoms: N_5  and  C_14
REMARK    4  A    between atoms: N_7  and  C_17
REMARK    5  A    between atoms: C_14  and  C_16
REMARK    6  A    between atoms: C_17  and  C_18
REMARK                            x       y       z     vdW  Elec       q    Type
REMARK                         _______ _______ _______ _____ _____    ______ ____
ROOT
ATOM      1  O   UNL     1      10.544  11.923  25.194  0.00  0.00    -0.252 OA
ATOM      3  O   UNL     1      11.292   7.164  20.234  0.00  0.00    -0.253 OA
ATOM      4  N   UNL     1      11.512  10.746  23.406  0.00  0.00    -0.278 N 
ATOM      5  N   UNL     1      12.743  12.316  24.440  0.00  0.00    -0.281 N 
ATOM      6  N   UNL     1      12.215   8.558  21.839  0.00  0.00    -0.282 N 
ATOM      7  N   UNL     1      13.381   8.028  19.852  0.00  0.00    -0.295 N 
ATOM      8  C   UNL     1      12.742  10.817  22.633  0.00  0.00    +0.112 C 
ATOM      9  C   UNL     1      13.646  11.717  23.471  0.00  0.00    +0.133 C 
ATOM     10  C   UNL     1      13.289   9.415  22.384  0.00  0.00    +0.133 C 
ATOM     11  C   UNL     1      10.454   9.836  23.002  0.00  0.00    +0.128 C 
ATOM     12  C   UNL     1      11.036   8.453  22.713  0.00  0.00    +0.128 C 
ATOM     13  C   UNL     1      11.480  11.694  24.439  0.00  0.00    +0.305 C 
ATOM     15  C   UNL     1      12.233   7.867  20.617  0.00  0.00    +0.303 C 
ATOM     25  H   UNL     1      14.134   8.628  20.159  0.00  0.00    +0.151 HD
ENDROOT
BRANCH   5  14
ATOM     14  C   UNL     1      13.185  13.331  25.372  0.00  0.00    +0.137 C 
BRANCH  14  16
ATOM     16  C   UNL     1      14.509  12.960  26.013  0.00  0.00    +0.178 C 
BRANCH  16   2
ATOM      2  O   UNL     1      14.268  12.219  27.202  0.00  0.00    -0.381 OA
ATOM     19  C   UNL     1      14.671  12.939  28.357  0.00  0.00    +0.194 C 
ENDBRANCH  16   2
ENDBRANCH  14  16
ENDBRANCH   5  14
BRANCH   7  17
ATOM     17  C   UNL     1      13.546   7.384  18.568  0.00  0.00    +0.141 C 
BRANCH  17  18
ATOM     18  C   UNL     1      13.149   8.285  17.433  0.00  0.00    -0.030 A 
ATOM     20  C   UNL     1      14.117   9.038  16.769  0.00  0.00    +0.005 A 
ATOM     21  C   UNL     1      11.812   8.367  17.044  0.00  0.00    +0.005 A 
ATOM     22  C   UNL     1      13.748   9.873  15.715  0.00  0.00    +0.000 A 
ATOM     23  C   UNL     1      11.443   9.203  15.990  0.00  0.00    +0.000 A 
ATOM     24  C   UNL     1      12.411   9.956  15.325  0.00  0.00    +0.000 A 
ENDBRANCH  17  18
ENDBRANCH   7  17
TORSDOF 5
ENDMDL
