MODEL 1
REMARK VINA RESULT:      -6.9      0.000      0.000
REMARK  Name = 51137305
REMARK  6 active torsions:
REMARK  status: ('A' for Active; 'I' for Inactive)
REMARK    1  A    between atoms: O_2  and  C_14
REMARK    2  A    between atoms: O_2  and  C_23
REMARK    3  A    between atoms: N_3  and  C_11
REMARK    4  A    between atoms: C_7  and  C_12
REMARK    5  A    between atoms: C_11  and  C_13
REMARK    6  A    between atoms: C_16  and  C_19
REMARK                            x       y       z     vdW  Elec       q    Type
REMARK                         _______ _______ _______ _____ _____    ______ ____
ROOT
ATOM      3  N   UNL     1      11.042  10.616  22.241  0.00  0.00    -0.297 NA
ATOM      7  C   UNL     1      11.203   8.882  20.671  0.00  0.00    +0.092 C 
ATOM      8  C   UNL     1      10.638   8.330  21.992  0.00  0.00    +0.029 C 
ATOM      9  C   UNL     1      11.798  10.246  21.043  0.00  0.00    +0.097 C 
ATOM     10  C   UNL     1      10.968   9.390  23.035  0.00  0.00    +0.085 C 
ENDROOT
BRANCH   7  12
ATOM      1  O   UNL     1      13.453   7.933  20.491  0.00  0.00    -0.420 OA
ATOM      4  N   UNL     1      12.027   7.205  18.927  0.00  0.00    -0.112 NA
ATOM      5  N   UNL     1      13.250   6.595  18.710  0.00  0.00    -0.107 NA
ATOM     12  C   UNL     1      12.193   7.977  19.976  0.00  0.00    +0.222 A 
ATOM     16  C   UNL     1      14.050   7.049  19.644  0.00  0.00    +0.248 A 
BRANCH  16  19
ATOM      6  N   UNL     1      18.121   6.204  20.421  0.00  0.00    -0.263 NA
ATOM     19  C   UNL     1      15.430   6.763  19.908  0.00  0.00    +0.041 A 
ATOM     21  C   UNL     1      15.973   7.031  21.159  0.00  0.00    +0.033 A 
ATOM     22  C   UNL     1      16.232   6.216  18.912  0.00  0.00    +0.033 A 
ATOM     24  C   UNL     1      17.311   6.736  21.364  0.00  0.00    +0.111 A 
ATOM     25  C   UNL     1      17.559   5.957  19.217  0.00  0.00    +0.111 A 
ENDBRANCH  16  19
ENDBRANCH   7  12
BRANCH   3  11
ATOM     11  C   UNL     1      11.659  11.713  22.972  0.00  0.00    +0.123 C 
BRANCH  11  13
ATOM     13  C   UNL     1      10.875  12.990  22.835  0.00  0.00    +0.008 A 
ATOM     14  C   UNL     1      10.374  13.644  23.960  0.00  0.00    +0.124 A 
ATOM     15  C   UNL     1      10.651  13.520  21.564  0.00  0.00    +0.008 A 
ATOM     17  C   UNL     1       9.649  14.827  23.816  0.00  0.00    +0.046 A 
ATOM     18  C   UNL     1       9.927  14.703  21.419  0.00  0.00    +0.001 A 
ATOM     20  C   UNL     1       9.425  15.356  22.545  0.00  0.00    +0.004 A 
BRANCH  14   2
ATOM      2  O   UNL     1      10.582  13.140  25.210  0.00  0.00    -0.495 OA
ATOM     23  C   UNL     1      10.669  14.078  26.280  0.00  0.00    +0.277 C 
ENDBRANCH  14   2
ENDBRANCH  11  13
ENDBRANCH   3  11
TORSDOF 5
ENDMDL
MODEL 2
REMARK VINA RESULT:      -6.6      5.199      9.681
REMARK  Name = 51137305
REMARK  6 active torsions:
REMARK  status: ('A' for Active; 'I' for Inactive)
REMARK    1  A    between atoms: O_2  and  C_14
REMARK    2  A    between atoms: O_2  and  C_23
REMARK    3  A    between atoms: N_3  and  C_11
REMARK    4  A    between atoms: C_7  and  C_12
REMARK    5  A    between atoms: C_11  and  C_13
REMARK    6  A    between atoms: C_16  and  C_19
REMARK                            x       y       z     vdW  Elec       q    Type
REMARK                         _______ _______ _______ _____ _____    ______ ____
ROOT
ATOM      3  N   UNL     1      18.478   6.405  20.645  0.00  0.00    -0.297 NA
ATOM      7  C   UNL     1      16.224   7.021  20.454  0.00  0.00    +0.092 C 
ATOM      8  C   UNL     1      16.547   5.922  19.426  0.00  0.00    +0.029 C 
ATOM      9  C   UNL     1      17.594   7.542  20.908  0.00  0.00    +0.097 C 
ATOM     10  C   UNL     1      18.067   5.901  19.334  0.00  0.00    +0.085 C 
ENDROOT
BRANCH   7  12
ATOM      1  O   UNL     1      14.504   7.808  18.898  0.00  0.00    -0.420 OA
ATOM      4  N   UNL     1      15.180   9.352  20.370  0.00  0.00    -0.112 NA
ATOM      5  N   UNL     1      14.216   9.925  19.560  0.00  0.00    -0.107 NA
ATOM     12  C   UNL     1      15.315   8.117  19.947  0.00  0.00    +0.222 A 
ATOM     16  C   UNL     1      13.852   8.989  18.717  0.00  0.00    +0.248 A 
BRANCH  16  19
ATOM      6  N   UNL     1      11.012   9.072  15.583  0.00  0.00    -0.263 NA
ATOM     19  C   UNL     1      12.889   9.016  17.655  0.00  0.00    +0.041 A 
ATOM     21  C   UNL     1      11.599   8.543  17.868  0.00  0.00    +0.033 A 
ATOM     22  C   UNL     1      13.242   9.518  16.406  0.00  0.00    +0.033 A 
ATOM     24  C   UNL     1      10.706   8.592  16.810  0.00  0.00    +0.111 A 
ATOM     25  C   UNL     1      12.275   9.523  15.413  0.00  0.00    +0.111 A 
ENDBRANCH  16  19
ENDBRANCH   7  12
BRANCH   3  11
ATOM     11  C   UNL     1      19.886   6.776  20.678  0.00  0.00    +0.123 C 
BRANCH  11  13
ATOM     13  C   UNL     1      20.731   5.711  21.323  0.00  0.00    +0.008 A 
ATOM     14  C   UNL     1      21.317   5.924  22.571  0.00  0.00    +0.124 A 
ATOM     15  C   UNL     1      20.927   4.500  20.659  0.00  0.00    +0.008 A 
ATOM     17  C   UNL     1      22.099   4.927  23.155  0.00  0.00    +0.046 A 
ATOM     18  C   UNL     1      21.707   3.503  21.243  0.00  0.00    +0.001 A 
ATOM     20  C   UNL     1      22.294   3.716  22.490  0.00  0.00    +0.004 A 
BRANCH  14   2
ATOM      2  O   UNL     1      21.138   7.102  23.234  0.00  0.00    -0.495 OA
ATOM     23  C   UNL     1      20.913   7.026  24.640  0.00  0.00    +0.277 C 
ENDBRANCH  14   2
ENDBRANCH  11  13
ENDBRANCH   3  11
TORSDOF 5
ENDMDL
MODEL 3
REMARK VINA RESULT:      -6.5     26.451     29.007
REMARK  Name = 51137305
REMARK  6 active torsions:
REMARK  status: ('A' for Active; 'I' for Inactive)
REMARK    1  A    between atoms: O_2  and  C_14
REMARK    2  A    between atoms: O_2  and  C_23
REMARK    3  A    between atoms: N_3  and  C_11
REMARK    4  A    between atoms: C_7  and  C_12
REMARK    5  A    between atoms: C_11  and  C_13
REMARK    6  A    between atoms: C_16  and  C_19
REMARK                            x       y       z     vdW  Elec       q    Type
REMARK                         _______ _______ _______ _____ _____    ______ ____
ROOT
ATOM      3  N   UNL     1      -2.262 -11.011  13.818  0.00  0.00    -0.297 NA
ATOM      7  C   UNL     1      -3.237 -10.258  15.813  0.00  0.00    +0.092 C 
ATOM      8  C   UNL     1      -1.826 -10.800  16.101  0.00  0.00    +0.029 C 
ATOM      9  C   UNL     1      -3.580 -10.794  14.417  0.00  0.00    +0.097 C 
ATOM     10  C   UNL     1      -1.463 -11.628  14.876  0.00  0.00    +0.085 C 
ENDROOT
BRANCH   7  12
ATOM      1  O   UNL     1      -5.515 -10.066  16.691  0.00  0.00    -0.420 OA
ATOM      4  N   UNL     1      -4.173 -11.376  17.912  0.00  0.00    -0.112 NA
ATOM      5  N   UNL     1      -5.418 -11.357  18.516  0.00  0.00    -0.107 NA
ATOM     12  C   UNL     1      -4.277 -10.610  16.851  0.00  0.00    +0.222 A 
ATOM     16  C   UNL     1      -6.167 -10.581  17.769  0.00  0.00    +0.248 A 
BRANCH  16  19
ATOM      6  N   UNL     1     -10.222  -9.453  18.189  0.00  0.00    -0.263 NA
ATOM     19  C   UNL     1      -7.541 -10.198  17.912  0.00  0.00    +0.041 A 
ATOM     21  C   UNL     1      -8.046  -9.124  17.187  0.00  0.00    +0.033 A 
ATOM     22  C   UNL     1      -8.376 -10.900  18.776  0.00  0.00    +0.033 A 
ATOM     24  C   UNL     1      -9.381  -8.794  17.359  0.00  0.00    +0.111 A 
ATOM     25  C   UNL     1      -9.696 -10.491  18.877  0.00  0.00    +0.111 A 
ENDBRANCH  16  19
ENDBRANCH   7  12
BRANCH   3  11
ATOM     11  C   UNL     1      -2.325 -11.835  12.619  0.00  0.00    +0.123 C 
BRANCH  11  13
ATOM     13  C   UNL     1      -2.950 -11.098  11.465  0.00  0.00    +0.008 A 
ATOM     14  C   UNL     1      -3.987 -11.673  10.730  0.00  0.00    +0.124 A 
ATOM     15  C   UNL     1      -2.482  -9.827  11.132  0.00  0.00    +0.008 A 
ATOM     17  C   UNL     1      -4.556 -10.978   9.662  0.00  0.00    +0.046 A 
ATOM     18  C   UNL     1      -3.050  -9.131  10.066  0.00  0.00    +0.001 A 
ATOM     20  C   UNL     1      -4.086  -9.707   9.330  0.00  0.00    +0.004 A 
BRANCH  14   2
ATOM      2  O   UNL     1      -4.457 -12.915  11.039  0.00  0.00    -0.495 OA
ATOM     23  C   UNL     1      -5.702 -12.983  11.730  0.00  0.00    +0.277 C 
ENDBRANCH  14   2
ENDBRANCH  11  13
ENDBRANCH   3  11
TORSDOF 5
ENDMDL
MODEL 4
REMARK VINA RESULT:      -6.5      5.079      8.261
REMARK  Name = 51137305
REMARK  6 active torsions:
REMARK  status: ('A' for Active; 'I' for Inactive)
REMARK    1  A    between atoms: O_2  and  C_14
REMARK    2  A    between atoms: O_2  and  C_23
REMARK    3  A    between atoms: N_3  and  C_11
REMARK    4  A    between atoms: C_7  and  C_12
REMARK    5  A    between atoms: C_11  and  C_13
REMARK    6  A    between atoms: C_16  and  C_19
REMARK                            x       y       z     vdW  Elec       q    Type
REMARK                         _______ _______ _______ _____ _____    ______ ____
ROOT
ATOM      3  N   UNL     1      16.711   6.911  20.283  0.00  0.00    -0.297 NA
ATOM      7  C   UNL     1      18.820   6.567  21.246  0.00  0.00    +0.092 C 
ATOM      8  C   UNL     1      18.330   7.987  21.575  0.00  0.00    +0.029 C 
ATOM      9  C   UNL     1      17.915   6.100  20.098  0.00  0.00    +0.097 C 
ATOM     10  C   UNL     1      17.203   8.255  20.586  0.00  0.00    +0.085 C 
ENDROOT
BRANCH   7  12
ATOM      1  O   UNL     1      20.848   5.222  20.966  0.00  0.00    -0.420 OA
ATOM      4  N   UNL     1      21.140   7.406  20.577  0.00  0.00    -0.112 NA
ATOM      5  N   UNL     1      22.354   6.771  20.385  0.00  0.00    -0.107 NA
ATOM     12  C   UNL     1      20.291   6.464  20.915  0.00  0.00    +0.222 A 
ATOM     16  C   UNL     1      22.136   5.500  20.623  0.00  0.00    +0.248 A 
BRANCH  16  19
ATOM      6  N   UNL     1      24.769   2.191  20.492  0.00  0.00    -0.263 NA
ATOM     19  C   UNL     1      23.028   4.378  20.578  0.00  0.00    +0.041 A 
ATOM     21  C   UNL     1      24.274   4.500  19.972  0.00  0.00    +0.033 A 
ATOM     22  C   UNL     1      22.651   3.163  21.141  0.00  0.00    +0.033 A 
ATOM     24  C   UNL     1      25.100   3.388  19.956  0.00  0.00    +0.111 A 
ATOM     25  C   UNL     1      23.550   2.110  21.072  0.00  0.00    +0.111 A 
ENDBRANCH  16  19
ENDBRANCH   7  12
BRANCH   3  11
ATOM     11  C   UNL     1      15.842   6.890  19.115  0.00  0.00    +0.123 C 
BRANCH  11  13
ATOM     13  C   UNL     1      14.414   7.208  19.472  0.00  0.00    +0.008 A 
ATOM     14  C   UNL     1      13.584   7.872  18.569  0.00  0.00    +0.124 A 
ATOM     15  C   UNL     1      13.923   6.830  20.722  0.00  0.00    +0.008 A 
ATOM     17  C   UNL     1      12.263   8.159  18.915  0.00  0.00    +0.046 A 
ATOM     18  C   UNL     1      12.604   7.117  21.069  0.00  0.00    +0.001 A 
ATOM     20  C   UNL     1      11.774   7.781  20.165  0.00  0.00    +0.004 A 
BRANCH  14   2
ATOM      2  O   UNL     1      14.047   8.248  17.343  0.00  0.00    -0.495 OA
ATOM     23  C   UNL     1      13.147   8.970  16.505  0.00  0.00    +0.277 C 
ENDBRANCH  14   2
ENDBRANCH  11  13
ENDBRANCH   3  11
TORSDOF 5
ENDMDL
MODEL 5
REMARK VINA RESULT:      -6.4     26.224     29.282
REMARK  Name = 51137305
REMARK  6 active torsions:
REMARK  status: ('A' for Active; 'I' for Inactive)
REMARK    1  A    between atoms: O_2  and  C_14
REMARK    2  A    between atoms: O_2  and  C_23
REMARK    3  A    between atoms: N_3  and  C_11
REMARK    4  A    between atoms: C_7  and  C_12
REMARK    5  A    between atoms: C_11  and  C_13
REMARK    6  A    between atoms: C_16  and  C_19
REMARK                            x       y       z     vdW  Elec       q    Type
REMARK                         _______ _______ _______ _____ _____    ______ ____
ROOT
ATOM      3  N   UNL     1      -4.769 -10.679  15.116  0.00  0.00    -0.297 NA
ATOM      7  C   UNL     1      -6.208  -9.534  16.570  0.00  0.00    +0.092 C 
ATOM      8  C   UNL     1      -5.282 -10.456  17.382  0.00  0.00    +0.029 C 
ATOM      9  C   UNL     1      -6.083 -10.034  15.125  0.00  0.00    +0.097 C 
ATOM     10  C   UNL     1      -4.711 -11.436  16.366  0.00  0.00    +0.085 C 
ENDROOT
BRANCH   7  12
ATOM      1  O   UNL     1      -8.477  -8.626  16.410  0.00  0.00    -0.420 OA
ATOM      4  N   UNL     1      -8.217 -10.155  18.023  0.00  0.00    -0.112 NA
ATOM      5  N   UNL     1      -9.533  -9.730  18.044  0.00  0.00    -0.107 NA
ATOM     12  C   UNL     1      -7.639  -9.484  17.054  0.00  0.00    +0.222 A 
ATOM     16  C   UNL     1      -9.638  -8.838  17.088  0.00  0.00    +0.248 A 
BRANCH  16  19
ATOM      6  N   UNL     1     -12.968  -6.567  15.804  0.00  0.00    -0.263 NA
ATOM     19  C   UNL     1     -10.767  -8.068  16.653  0.00  0.00    +0.041 A 
ATOM     21  C   UNL     1     -10.595  -6.758  16.221  0.00  0.00    +0.033 A 
ATOM     22  C   UNL     1     -12.040  -8.629  16.662  0.00  0.00    +0.033 A 
ATOM     24  C   UNL     1     -11.716  -6.056  15.811  0.00  0.00    +0.111 A 
ATOM     25  C   UNL     1     -13.098  -7.844  16.231  0.00  0.00    +0.111 A 
ENDBRANCH  16  19
ENDBRANCH   7  12
BRANCH   3  11
ATOM     11  C   UNL     1      -4.572 -11.524  13.947  0.00  0.00    +0.123 C 
BRANCH  11  13
ATOM     13  C   UNL     1      -3.768 -10.829  12.881  0.00  0.00    +0.008 A 
ATOM     14  C   UNL     1      -2.393 -10.650  13.029  0.00  0.00    +0.124 A 
ATOM     15  C   UNL     1      -4.412 -10.363  11.735  0.00  0.00    +0.008 A 
ATOM     17  C   UNL     1      -1.661 -10.003  12.032  0.00  0.00    +0.046 A 
ATOM     18  C   UNL     1      -3.682  -9.717  10.738  0.00  0.00    +0.001 A 
ATOM     20  C   UNL     1      -2.307  -9.537  10.887  0.00  0.00    +0.004 A 
BRANCH  14   2
ATOM      2  O   UNL     1      -1.746 -11.098  14.142  0.00  0.00    -0.495 OA
ATOM     23  C   UNL     1      -1.231 -10.112  15.033  0.00  0.00    +0.277 C 
ENDBRANCH  14   2
ENDBRANCH  11  13
ENDBRANCH   3  11
TORSDOF 5
ENDMDL
MODEL 6
REMARK VINA RESULT:      -6.4     25.945     28.856
REMARK  Name = 51137305
REMARK  6 active torsions:
REMARK  status: ('A' for Active; 'I' for Inactive)
REMARK    1  A    between atoms: O_2  and  C_14
REMARK    2  A    between atoms: O_2  and  C_23
REMARK    3  A    between atoms: N_3  and  C_11
REMARK    4  A    between atoms: C_7  and  C_12
REMARK    5  A    between atoms: C_11  and  C_13
REMARK    6  A    between atoms: C_16  and  C_19
REMARK                            x       y       z     vdW  Elec       q    Type
REMARK                         _______ _______ _______ _____ _____    ______ ____
ROOT
ATOM      3  N   UNL     1      -3.039 -10.895  14.174  0.00  0.00    -0.297 NA
ATOM      7  C   UNL     1      -3.660 -10.460  16.393  0.00  0.00    +0.092 C 
ATOM      8  C   UNL     1      -2.149 -10.748  16.327  0.00  0.00    +0.029 C 
ATOM      9  C   UNL     1      -4.209 -10.963  15.051  0.00  0.00    +0.097 C 
ATOM     10  C   UNL     1      -1.933 -11.419  14.977  0.00  0.00    +0.085 C 
ENDROOT
BRANCH   7  12
ATOM      1  O   UNL     1      -5.728 -10.963  17.604  0.00  0.00    -0.420 OA
ATOM      4  N   UNL     1      -3.872 -11.681  18.628  0.00  0.00    -0.112 NA
ATOM      5  N   UNL     1      -4.956 -12.027  19.414  0.00  0.00    -0.107 NA
ATOM     12  C   UNL     1      -4.370 -11.062  17.583  0.00  0.00    +0.222 A 
ATOM     16  C   UNL     1      -6.016 -11.589  18.778  0.00  0.00    +0.248 A 
BRANCH  16  19
ATOM      6  N   UNL     1     -10.117 -11.816  19.793  0.00  0.00    -0.263 NA
ATOM     19  C   UNL     1      -7.407 -11.666  19.121  0.00  0.00    +0.041 A 
ATOM     21  C   UNL     1      -7.894 -12.767  19.817  0.00  0.00    +0.033 A 
ATOM     22  C   UNL     1      -8.273 -10.640  18.761  0.00  0.00    +0.033 A 
ATOM     24  C   UNL     1      -9.245 -12.794  20.126  0.00  0.00    +0.111 A 
ATOM     25  C   UNL     1      -9.607 -10.762  19.117  0.00  0.00    +0.111 A 
ENDBRANCH  16  19
ENDBRANCH   7  12
BRANCH   3  11
ATOM     11  C   UNL     1      -3.227 -11.641  12.938  0.00  0.00    +0.123 C 
BRANCH  11  13
ATOM     13  C   UNL     1      -3.597 -10.741  11.790  0.00  0.00    +0.008 A 
ATOM     14  C   UNL     1      -2.632  -9.957  11.158  0.00  0.00    +0.124 A 
ATOM     15  C   UNL     1      -4.923 -10.695  11.359  0.00  0.00    +0.008 A 
ATOM     17  C   UNL     1      -2.991  -9.127  10.096  0.00  0.00    +0.046 A 
ATOM     18  C   UNL     1      -5.283  -9.866  10.297  0.00  0.00    +0.001 A 
ATOM     20  C   UNL     1      -4.317  -9.082   9.666  0.00  0.00    +0.004 A 
BRANCH  14   2
ATOM      2  O   UNL     1      -1.331  -9.988  11.567  0.00  0.00    -0.495 OA
ATOM     23  C   UNL     1      -0.519  -8.866  11.230  0.00  0.00    +0.277 C 
ENDBRANCH  14   2
ENDBRANCH  11  13
ENDBRANCH   3  11
TORSDOF 5
ENDMDL
MODEL 7
REMARK VINA RESULT:      -6.4     27.041     29.453
REMARK  Name = 51137305
REMARK  6 active torsions:
REMARK  status: ('A' for Active; 'I' for Inactive)
REMARK    1  A    between atoms: O_2  and  C_14
REMARK    2  A    between atoms: O_2  and  C_23
REMARK    3  A    between atoms: N_3  and  C_11
REMARK    4  A    between atoms: C_7  and  C_12
REMARK    5  A    between atoms: C_11  and  C_13
REMARK    6  A    between atoms: C_16  and  C_19
REMARK                            x       y       z     vdW  Elec       q    Type
REMARK                         _______ _______ _______ _____ _____    ______ ____
ROOT
ATOM      3  N   UNL     1      -4.655 -10.633  14.840  0.00  0.00    -0.297 NA
ATOM      7  C   UNL     1      -6.007  -9.577  16.438  0.00  0.00    +0.092 C 
ATOM      8  C   UNL     1      -5.044 -10.550  17.140  0.00  0.00    +0.029 C 
ATOM      9  C   UNL     1      -5.963  -9.986  14.960  0.00  0.00    +0.097 C 
ATOM     10  C   UNL     1      -4.534 -11.467  16.036  0.00  0.00    +0.085 C 
ENDROOT
BRANCH   7  12
ATOM      1  O   UNL     1      -8.307  -8.738  16.384  0.00  0.00    -0.420 OA
ATOM      4  N   UNL     1      -7.912 -10.214  18.018  0.00  0.00    -0.112 NA
ATOM      5  N   UNL     1      -9.237  -9.825  18.103  0.00  0.00    -0.107 NA
ATOM     12  C   UNL     1      -7.409  -9.554  17.001  0.00  0.00    +0.222 A 
ATOM     16  C   UNL     1      -9.422  -8.964  17.131  0.00  0.00    +0.248 A 
BRANCH  16  19
ATOM      6  N   UNL     1     -12.885  -6.823  15.983  0.00  0.00    -0.263 NA
ATOM     19  C   UNL     1     -10.596  -8.239  16.741  0.00  0.00    +0.041 A 
ATOM     21  C   UNL     1     -11.842  -8.854  16.780  0.00  0.00    +0.033 A 
ATOM     22  C   UNL     1     -10.493  -6.916  16.324  0.00  0.00    +0.033 A 
ATOM     24  C   UNL     1     -12.946  -8.110  16.394  0.00  0.00    +0.111 A 
ATOM     25  C   UNL     1     -11.657  -6.259  15.959  0.00  0.00    +0.111 A 
ENDBRANCH  16  19
ENDBRANCH   7  12
BRANCH   3  11
ATOM     11  C   UNL     1      -4.527 -11.404  13.612  0.00  0.00    +0.123 C 
BRANCH  11  13
ATOM     13  C   UNL     1      -3.738 -10.664  12.565  0.00  0.00    +0.008 A 
ATOM     14  C   UNL     1      -4.376 -10.082  11.470  0.00  0.00    +0.124 A 
ATOM     15  C   UNL     1      -2.352 -10.564  12.698  0.00  0.00    +0.008 A 
ATOM     17  C   UNL     1      -3.630  -9.400  10.508  0.00  0.00    +0.046 A 
ATOM     18  C   UNL     1      -1.607  -9.883  11.737  0.00  0.00    +0.001 A 
ATOM     20  C   UNL     1      -2.246  -9.301  10.642  0.00  0.00    +0.004 A 
BRANCH  14   2
ATOM      2  O   UNL     1      -5.729 -10.171  11.322  0.00  0.00    -0.495 OA
ATOM     23  C   UNL     1      -6.474  -8.963  11.451  0.00  0.00    +0.277 C 
ENDBRANCH  14   2
ENDBRANCH  11  13
ENDBRANCH   3  11
TORSDOF 5
ENDMDL
MODEL 8
REMARK VINA RESULT:      -6.3      3.246      5.942
REMARK  Name = 51137305
REMARK  6 active torsions:
REMARK  status: ('A' for Active; 'I' for Inactive)
REMARK    1  A    between atoms: O_2  and  C_14
REMARK    2  A    between atoms: O_2  and  C_23
REMARK    3  A    between atoms: N_3  and  C_11
REMARK    4  A    between atoms: C_7  and  C_12
REMARK    5  A    between atoms: C_11  and  C_13
REMARK    6  A    between atoms: C_16  and  C_19
REMARK                            x       y       z     vdW  Elec       q    Type
REMARK                         _______ _______ _______ _____ _____    ______ ____
ROOT
ATOM      3  N   UNL     1      15.076   8.751  20.870  0.00  0.00    -0.297 NA
ATOM      7  C   UNL     1      17.041   7.524  21.230  0.00  0.00    +0.092 C 
ATOM      8  C   UNL     1      17.396   8.993  20.941  0.00  0.00    +0.029 C 
ATOM      9  C   UNL     1      15.583   7.381  20.774  0.00  0.00    +0.097 C 
ATOM     10  C   UNL     1      16.141   9.588  20.317  0.00  0.00    +0.085 C 
ENDROOT
BRANCH   7  12
ATOM      1  O   UNL     1      19.192   6.357  21.150  0.00  0.00    -0.420 OA
ATOM      4  N   UNL     1      17.756   5.734  19.551  0.00  0.00    -0.112 NA
ATOM      5  N   UNL     1      18.919   5.003  19.390  0.00  0.00    -0.107 NA
ATOM     12  C   UNL     1      17.961   6.511  20.590  0.00  0.00    +0.222 A 
ATOM     16  C   UNL     1      19.727   5.399  20.344  0.00  0.00    +0.248 A 
BRANCH  16  19
ATOM      6  N   UNL     1      23.668   4.182  21.282  0.00  0.00    -0.263 NA
ATOM     19  C   UNL     1      21.063   4.987  20.663  0.00  0.00    +0.041 A 
ATOM     21  C   UNL     1      21.306   3.695  21.118  0.00  0.00    +0.033 A 
ATOM     22  C   UNL     1      22.122   5.877  20.518  0.00  0.00    +0.033 A 
ATOM     24  C   UNL     1      22.614   3.345  21.411  0.00  0.00    +0.111 A 
ATOM     25  C   UNL     1      23.394   5.429  20.838  0.00  0.00    +0.111 A 
ENDBRANCH  16  19
ENDBRANCH   7  12
BRANCH   3  11
ATOM     11  C   UNL     1      13.813   8.926  20.167  0.00  0.00    +0.123 C 
BRANCH  11  13
ATOM     13  C   UNL     1      12.691   9.274  21.108  0.00  0.00    +0.008 A 
ATOM     14  C   UNL     1      11.979   8.273  21.769  0.00  0.00    +0.124 A 
ATOM     15  C   UNL     1      12.365  10.615  21.317  0.00  0.00    +0.008 A 
ATOM     17  C   UNL     1      10.941   8.612  22.638  0.00  0.00    +0.046 A 
ATOM     18  C   UNL     1      11.329  10.954  22.185  0.00  0.00    +0.001 A 
ATOM     20  C   UNL     1      10.616   9.953  22.845  0.00  0.00    +0.004 A 
BRANCH  14   2
ATOM      2  O   UNL     1      12.282   6.958  21.577  0.00  0.00    -0.495 OA
ATOM     23  C   UNL     1      11.192   6.041  21.539  0.00  0.00    +0.277 C 
ENDBRANCH  14   2
ENDBRANCH  11  13
ENDBRANCH   3  11
TORSDOF 5
ENDMDL
MODEL 9
REMARK VINA RESULT:      -6.3     26.887     29.240
REMARK  Name = 51137305
REMARK  6 active torsions:
REMARK  status: ('A' for Active; 'I' for Inactive)
REMARK    1  A    between atoms: O_2  and  C_14
REMARK    2  A    between atoms: O_2  and  C_23
REMARK    3  A    between atoms: N_3  and  C_11
REMARK    4  A    between atoms: C_7  and  C_12
REMARK    5  A    between atoms: C_11  and  C_13
REMARK    6  A    between atoms: C_16  and  C_19
REMARK                            x       y       z     vdW  Elec       q    Type
REMARK                         _______ _______ _______ _____ _____    ______ ____
ROOT
ATOM      3  N   UNL     1      -3.698 -10.784  14.280  0.00  0.00    -0.297 NA
ATOM      7  C   UNL     1      -4.117 -10.409  16.556  0.00  0.00    +0.092 C 
ATOM      8  C   UNL     1      -2.629 -10.745  16.355  0.00  0.00    +0.029 C 
ATOM      9  C   UNL     1      -4.793 -10.845  15.250  0.00  0.00    +0.097 C 
ATOM     10  C   UNL     1      -2.550 -11.373  14.969  0.00  0.00    +0.085 C 
ENDROOT
BRANCH   7  12
ATOM      1  O   UNL     1      -6.108 -11.031  17.839  0.00  0.00    -0.420 OA
ATOM      4  N   UNL     1      -4.177 -11.581  18.827  0.00  0.00    -0.112 NA
ATOM      5  N   UNL     1      -5.211 -11.986  19.652  0.00  0.00    -0.107 NA
ATOM     12  C   UNL     1      -4.748 -11.029  17.781  0.00  0.00    +0.222 A 
ATOM     16  C   UNL     1      -6.317 -11.645  19.036  0.00  0.00    +0.248 A 
BRANCH  16  19
ATOM      6  N   UNL     1     -10.361 -12.149  20.171  0.00  0.00    -0.263 NA
ATOM     19  C   UNL     1      -7.688 -11.816  19.421  0.00  0.00    +0.041 A 
ATOM     21  C   UNL     1      -8.577 -10.750  19.333  0.00  0.00    +0.033 A 
ATOM     22  C   UNL     1      -8.134 -13.049  19.885  0.00  0.00    +0.033 A 
ATOM     24  C   UNL     1      -9.890 -10.966  19.716  0.00  0.00    +0.111 A 
ATOM     25  C   UNL     1      -9.468 -13.162  20.244  0.00  0.00    +0.111 A 
ENDBRANCH  16  19
ENDBRANCH   7  12
BRANCH   3  11
ATOM     11  C   UNL     1      -4.015 -11.478  13.040  0.00  0.00    +0.123 C 
BRANCH  11  13
ATOM     13  C   UNL     1      -4.098 -10.531  11.873  0.00  0.00    +0.008 A 
ATOM     14  C   UNL     1      -5.331 -10.059  11.424  0.00  0.00    +0.124 A 
ATOM     15  C   UNL     1      -2.923 -10.126  11.238  0.00  0.00    +0.008 A 
ATOM     17  C   UNL     1      -5.391  -9.182  10.341  0.00  0.00    +0.046 A 
ATOM     18  C   UNL     1      -2.983  -9.249  10.155  0.00  0.00    +0.001 A 
ATOM     20  C   UNL     1      -4.217  -8.778   9.706  0.00  0.00    +0.004 A 
BRANCH  14   2
ATOM      2  O   UNL     1      -6.489 -10.445  12.032  0.00  0.00    -0.495 OA
ATOM     23  C   UNL     1      -7.361  -9.410  12.481  0.00  0.00    +0.277 C 
ENDBRANCH  14   2
ENDBRANCH  11  13
ENDBRANCH   3  11
TORSDOF 5
ENDMDL
MODEL 10
REMARK VINA RESULT:      -6.3     18.033     20.512
REMARK  Name = 51137305
REMARK  6 active torsions:
REMARK  status: ('A' for Active; 'I' for Inactive)
REMARK    1  A    between atoms: O_2  and  C_14
REMARK    2  A    between atoms: O_2  and  C_23
REMARK    3  A    between atoms: N_3  and  C_11
REMARK    4  A    between atoms: C_7  and  C_12
REMARK    5  A    between atoms: C_11  and  C_13
REMARK    6  A    between atoms: C_16  and  C_19
REMARK                            x       y       z     vdW  Elec       q    Type
REMARK                         _______ _______ _______ _____ _____    ______ ____
ROOT
ATOM      3  N   UNL     1      10.833   5.428   4.027  0.00  0.00    -0.297 NA
ATOM      7  C   UNL     1      12.359   4.674   2.414  0.00  0.00    +0.092 C 
ATOM      8  C   UNL     1      12.435   6.207   2.518  0.00  0.00    +0.029 C 
ATOM      9  C   UNL     1      11.046   4.302   3.116  0.00  0.00    +0.097 C 
ATOM     10  C   UNL     1      11.158   6.618   3.240  0.00  0.00    +0.085 C 
ENDROOT
BRANCH   7  12
ATOM      1  O   UNL     1      11.356   4.281   0.215  0.00  0.00    -0.420 OA
ATOM      4  N   UNL     1      13.447   3.510   0.416  0.00  0.00    -0.112 NA
ATOM      5  N   UNL     1      13.006   3.224  -0.864  0.00  0.00    -0.107 NA
ATOM     12  C   UNL     1      12.451   4.127   1.009  0.00  0.00    +0.222 A 
ATOM     16  C   UNL     1      11.782   3.691  -0.935  0.00  0.00    +0.248 A 
BRANCH  16  19
ATOM      6  N   UNL     1       9.011   3.650  -4.131  0.00  0.00    -0.263 NA
ATOM     19  C   UNL     1      10.842   3.677  -2.018  0.00  0.00    +0.041 A 
ATOM     21  C   UNL     1      10.051   4.792  -2.271  0.00  0.00    +0.033 A 
ATOM     22  C   UNL     1      10.718   2.547  -2.820  0.00  0.00    +0.033 A 
ATOM     24  C   UNL     1       9.159   4.729  -3.330  0.00  0.00    +0.111 A 
ATOM     25  C   UNL     1       9.796   2.585  -3.854  0.00  0.00    +0.111 A 
ENDBRANCH  16  19
ENDBRANCH   7  12
BRANCH   3  11
ATOM     11  C   UNL     1       9.477   5.467   4.555  0.00  0.00    +0.123 C 
BRANCH  11  13
ATOM     13  C   UNL     1       9.463   5.540   6.059  0.00  0.00    +0.008 A 
ATOM     14  C   UNL     1       9.073   6.709   6.713  0.00  0.00    +0.124 A 
ATOM     15  C   UNL     1       9.845   4.421   6.800  0.00  0.00    +0.008 A 
ATOM     17  C   UNL     1       9.066   6.760   8.107  0.00  0.00    +0.046 A 
ATOM     18  C   UNL     1       9.838   4.472   8.193  0.00  0.00    +0.001 A 
ATOM     20  C   UNL     1       9.449   5.641   8.847  0.00  0.00    +0.004 A 
BRANCH  14   2
ATOM      2  O   UNL     1       8.697   7.812   6.005  0.00  0.00    -0.495 OA
ATOM     23  C   UNL     1       9.438   9.009   6.229  0.00  0.00    +0.277 C 
ENDBRANCH  14   2
ENDBRANCH  11  13
ENDBRANCH   3  11
TORSDOF 5
ENDMDL
