MODEL 1
REMARK VINA RESULT:      -6.5      0.000      0.000
REMARK  Name = 38029418
REMARK  14 active torsions:
REMARK  status: ('A' for Active; 'I' for Inactive)
REMARK    1  A    between atoms: O_3  and  C_22
REMARK    2  A    between atoms: O_3  and  C_26
REMARK    3  A    between atoms: N_4  and  C_14
REMARK    4  A    between atoms: N_5  and  C_21
REMARK    5  A    between atoms: C_7  and  C_11
REMARK    6  A    between atoms: C_8  and  C_14
REMARK    7  A    between atoms: C_10  and  C_15
REMARK    8  A    between atoms: C_11  and  C_16
REMARK    9  A    between atoms: C_11  and  C_17
REMARK   10  A    between atoms: C_12  and  C_18
REMARK   11  A    between atoms: C_15  and  C_19
REMARK   12  A    between atoms: C_20  and  C_22
REMARK   13  A    between atoms: C_21  and  C_23
REMARK   14  A    between atoms: C_29  and  C_30
REMARK                            x       y       z     vdW  Elec       q    Type
REMARK                         _______ _______ _______ _____ _____    ______ ____
ROOT
ATOM      7  C   UNL     1      -5.087 -10.607  10.883  0.00  0.00    +0.000 C 
ATOM      8  C   UNL     1      -4.566  -9.673   9.763  0.00  0.00    +0.032 C 
ATOM      9  C   UNL     1      -4.526 -10.174  12.246  0.00  0.00    +0.012 C 
ATOM     10  C   UNL     1      -2.986 -10.192  12.273  0.00  0.00    +0.023 C 
ATOM     12  C   UNL     1      -2.393  -9.517  11.052  0.00  0.00    -0.073 C 
ATOM     13  C   UNL     1      -3.118  -9.282   9.944  0.00  0.00    -0.022 C 
ATOM     18  C   UNL     1      -0.959  -9.078  11.150  0.00  0.00    +0.039 C 
ENDROOT
BRANCH   7  11
ATOM     11  C   UNL     1      -6.618 -10.631  10.938  0.00  0.00    -0.013 C 
ATOM     16  C   UNL     1      -7.096 -11.505  12.092  0.00  0.00    +0.007 C 
ATOM     17  C   UNL     1      -7.169  -9.214  11.067  0.00  0.00    +0.007 C 
ENDBRANCH   7  11
BRANCH   8  14
ATOM     14  C   UNL     1      -4.754 -10.309   8.380  0.00  0.00    +0.112 C 
BRANCH  14   4
ATOM      2  O   UNL     1      -5.691 -10.910   5.710  0.00  0.00    -0.273 OA
ATOM      4  N   UNL     1      -5.610  -9.505   7.564  0.00  0.00    -0.313 N 
ATOM     20  C   UNL     1      -6.015  -9.873   6.282  0.00  0.00    +0.239 C 
ATOM     31  H   UNL     1      -5.985  -8.649   7.962  0.00  0.00    +0.149 HD
BRANCH  20  22
ATOM     22  C   UNL     1      -6.919  -8.837   5.648  0.00  0.00    +0.255 C 
BRANCH  22   3
ATOM      3  O   UNL     1      -8.021  -8.558   6.485  0.00  0.00    -0.374 OA
ATOM     26  C   UNL     1      -8.362  -7.175   6.471  0.00  0.00    +0.194 C 
ENDBRANCH  22   3
ENDBRANCH  20  22
ENDBRANCH  14   4
ENDBRANCH   8  14
BRANCH  10  15
ATOM     15  C   UNL     1      -2.451 -11.620  12.424  0.00  0.00    +0.103 C 
BRANCH  15  19
ATOM      1  O   UNL     1      -1.903 -13.107  14.253  0.00  0.00    -0.276 OA
ATOM      5  N   UNL     1      -2.256 -10.850  14.679  0.00  0.00    -0.311 N 
ATOM     19  C   UNL     1      -2.169 -11.972  13.868  0.00  0.00    +0.214 C 
ATOM     32  H   UNL     1      -2.481  -9.950  14.267  0.00  0.00    +0.149 HD
BRANCH   5  21
ATOM     21  C   UNL     1      -2.037 -10.891  16.107  0.00  0.00    +0.139 C 
BRANCH  21  23
ATOM     23  C   UNL     1      -3.328 -10.897  16.873  0.00  0.00    -0.030 A 
ATOM     24  C   UNL     1      -3.407 -11.556  18.100  0.00  0.00    +0.006 A 
ATOM     25  C   UNL     1      -4.448 -10.245  16.358  0.00  0.00    +0.006 A 
ATOM     27  C   UNL     1      -4.606 -11.561  18.813  0.00  0.00    +0.019 A 
ATOM     28  C   UNL     1      -5.647 -10.251  17.071  0.00  0.00    +0.019 A 
ATOM     29  C   UNL     1      -5.726 -10.909  18.298  0.00  0.00    +0.052 A 
BRANCH  29  30
ATOM      6  N   UNL     1      -7.952 -10.920  19.620  0.00  0.00    -0.191 NA
ATOM     30  C   UNL     1      -6.954 -10.915  19.027  0.00  0.00    +0.099 C 
ENDBRANCH  29  30
ENDBRANCH  21  23
ENDBRANCH   5  21
ENDBRANCH  15  19
ENDBRANCH  10  15
TORSDOF 10
ENDMDL
MODEL 2
REMARK VINA RESULT:      -6.4      3.226      8.058
REMARK  Name = 38029418
REMARK  14 active torsions:
REMARK  status: ('A' for Active; 'I' for Inactive)
REMARK    1  A    between atoms: O_3  and  C_22
REMARK    2  A    between atoms: O_3  and  C_26
REMARK    3  A    between atoms: N_4  and  C_14
REMARK    4  A    between atoms: N_5  and  C_21
REMARK    5  A    between atoms: C_7  and  C_11
REMARK    6  A    between atoms: C_8  and  C_14
REMARK    7  A    between atoms: C_10  and  C_15
REMARK    8  A    between atoms: C_11  and  C_16
REMARK    9  A    between atoms: C_11  and  C_17
REMARK   10  A    between atoms: C_12  and  C_18
REMARK   11  A    between atoms: C_15  and  C_19
REMARK   12  A    between atoms: C_20  and  C_22
REMARK   13  A    between atoms: C_21  and  C_23
REMARK   14  A    between atoms: C_29  and  C_30
REMARK                            x       y       z     vdW  Elec       q    Type
REMARK                         _______ _______ _______ _____ _____    ______ ____
ROOT
ATOM      7  C   UNL     1      -5.726 -10.588  15.251  0.00  0.00    +0.000 C 
ATOM      8  C   UNL     1      -6.567 -10.600  16.552  0.00  0.00    +0.032 C 
ATOM      9  C   UNL     1      -4.761 -11.782  15.225  0.00  0.00    +0.012 C 
ATOM     10  C   UNL     1      -3.798 -11.778  16.427  0.00  0.00    +0.023 C 
ATOM     12  C   UNL     1      -4.527 -11.526  17.732  0.00  0.00    -0.073 C 
ATOM     13  C   UNL     1      -5.769 -11.010  17.767  0.00  0.00    -0.022 C 
ATOM     18  C   UNL     1      -3.813 -11.921  18.994  0.00  0.00    +0.039 C 
ENDROOT
BRANCH   7  11
ATOM     11  C   UNL     1      -6.612 -10.611  14.001  0.00  0.00    -0.013 C 
ATOM     16  C   UNL     1      -6.091  -9.626  12.960  0.00  0.00    +0.007 C 
ATOM     17  C   UNL     1      -6.682 -12.021  13.424  0.00  0.00    +0.007 C 
ENDBRANCH   7  11
BRANCH   8  14
ATOM     14  C   UNL     1      -7.216  -9.234  16.805  0.00  0.00    +0.112 C 
BRANCH  14   4
ATOM      2  O   UNL     1     -10.024  -9.631  16.233  0.00  0.00    -0.273 OA
ATOM      4  N   UNL     1      -8.282  -9.347  17.751  0.00  0.00    -0.313 N 
ATOM     20  C   UNL     1      -9.614  -9.538  17.388  0.00  0.00    +0.239 C 
ATOM     31  H   UNL     1      -8.048  -9.341  18.739  0.00  0.00    +0.149 HD
BRANCH  20  22
ATOM     22  C   UNL     1     -10.529  -9.624  18.590  0.00  0.00    +0.255 C 
BRANCH  22   3
ATOM      3  O   UNL     1      -9.982 -10.476  19.574  0.00  0.00    -0.374 OA
ATOM     26  C   UNL     1     -10.419 -11.822  19.415  0.00  0.00    +0.194 C 
ENDBRANCH  22   3
ENDBRANCH  20  22
ENDBRANCH  14   4
ENDBRANCH   8  14
BRANCH  10  15
ATOM     15  C   UNL     1      -2.666 -10.764  16.227  0.00  0.00    +0.103 C 
BRANCH  15  19
ATOM      1  O   UNL     1      -1.103 -11.978  14.835  0.00  0.00    -0.276 OA
ATOM      5  N   UNL     1      -2.149 -10.081  13.995  0.00  0.00    -0.311 N 
ATOM     19  C   UNL     1      -1.878 -11.035  14.965  0.00  0.00    +0.214 C 
ATOM     32  H   UNL     1      -2.810  -9.336  14.195  0.00  0.00    +0.149 HD
BRANCH   5  21
ATOM     21  C   UNL     1      -1.535 -10.089  12.687  0.00  0.00    +0.139 C 
BRANCH  21  23
ATOM     23  C   UNL     1      -2.528 -10.387  11.601  0.00  0.00    -0.030 A 
ATOM     24  C   UNL     1      -3.129 -11.643  11.532  0.00  0.00    +0.006 A 
ATOM     25  C   UNL     1      -2.849  -9.408  10.662  0.00  0.00    +0.006 A 
ATOM     27  C   UNL     1      -4.052 -11.921  10.523  0.00  0.00    +0.019 A 
ATOM     28  C   UNL     1      -3.771  -9.685   9.653  0.00  0.00    +0.019 A 
ATOM     29  C   UNL     1      -4.373 -10.941   9.584  0.00  0.00    +0.052 A 
BRANCH  29  30
ATOM      6  N   UNL     1      -6.087 -11.455   7.712  0.00  0.00    -0.191 NA
ATOM     30  C   UNL     1      -5.318 -11.225   8.551  0.00  0.00    +0.099 C 
ENDBRANCH  29  30
ENDBRANCH  21  23
ENDBRANCH   5  21
ENDBRANCH  15  19
ENDBRANCH  10  15
TORSDOF 10
ENDMDL
MODEL 3
REMARK VINA RESULT:      -6.1      2.096      3.925
REMARK  Name = 38029418
REMARK  14 active torsions:
REMARK  status: ('A' for Active; 'I' for Inactive)
REMARK    1  A    between atoms: O_3  and  C_22
REMARK    2  A    between atoms: O_3  and  C_26
REMARK    3  A    between atoms: N_4  and  C_14
REMARK    4  A    between atoms: N_5  and  C_21
REMARK    5  A    between atoms: C_7  and  C_11
REMARK    6  A    between atoms: C_8  and  C_14
REMARK    7  A    between atoms: C_10  and  C_15
REMARK    8  A    between atoms: C_11  and  C_16
REMARK    9  A    between atoms: C_11  and  C_17
REMARK   10  A    between atoms: C_12  and  C_18
REMARK   11  A    between atoms: C_15  and  C_19
REMARK   12  A    between atoms: C_20  and  C_22
REMARK   13  A    between atoms: C_21  and  C_23
REMARK   14  A    between atoms: C_29  and  C_30
REMARK                            x       y       z     vdW  Elec       q    Type
REMARK                         _______ _______ _______ _____ _____    ______ ____
ROOT
ATOM      7  C   UNL     1      -5.339 -10.372   7.397  0.00  0.00    +0.000 C 
ATOM      8  C   UNL     1      -6.758  -9.852   7.738  0.00  0.00    +0.032 C 
ATOM      9  C   UNL     1      -4.725 -11.086   8.610  0.00  0.00    +0.012 C 
ATOM     10  C   UNL     1      -4.624 -10.164   9.840  0.00  0.00    +0.023 C 
ATOM     12  C   UNL     1      -5.915  -9.406  10.082  0.00  0.00    -0.073 C 
ATOM     13  C   UNL     1      -6.862  -9.288   9.135  0.00  0.00    -0.022 C 
ATOM     18  C   UNL     1      -6.111  -8.824  11.454  0.00  0.00    +0.039 C 
ENDROOT
BRANCH   7  11
ATOM     11  C   UNL     1      -5.354 -11.318   6.192  0.00  0.00    -0.013 C 
ATOM     16  C   UNL     1      -4.023 -12.053   6.075  0.00  0.00    +0.007 C 
ATOM     17  C   UNL     1      -6.510 -12.307   6.305  0.00  0.00    +0.007 C 
ENDBRANCH   7  11
BRANCH   8  14
ATOM     14  C   UNL     1      -7.218  -8.796   6.725  0.00  0.00    +0.112 C 
BRANCH  14   4
ATOM      2  O   UNL     1      -9.047  -7.118   5.239  0.00  0.00    -0.273 OA
ATOM      4  N   UNL     1      -8.311  -8.036   7.247  0.00  0.00    -0.313 N 
ATOM     20  C   UNL     1      -9.147  -7.250   6.456  0.00  0.00    +0.239 C 
ATOM     31  H   UNL     1      -8.522  -8.117   8.238  0.00  0.00    +0.149 HD
BRANCH  20  22
ATOM     22  C   UNL     1     -10.221  -6.558   7.268  0.00  0.00    +0.255 C 
BRANCH  22   3
ATOM      3  O   UNL     1      -9.735  -6.214   8.548  0.00  0.00    -0.374 OA
ATOM     26  C   UNL     1      -9.467  -4.820   8.659  0.00  0.00    +0.194 C 
ENDBRANCH  22   3
ENDBRANCH  20  22
ENDBRANCH  14   4
ENDBRANCH   8  14
BRANCH  10  15
ATOM     15  C   UNL     1      -3.439  -9.200   9.713  0.00  0.00    +0.103 C 
BRANCH  15  19
ATOM      1  O   UNL     1      -1.285  -8.906  10.777  0.00  0.00    -0.276 OA
ATOM      5  N   UNL     1      -2.817 -10.398  11.687  0.00  0.00    -0.311 N 
ATOM     19  C   UNL     1      -2.382  -9.460  10.763  0.00  0.00    +0.214 C 
ATOM     32  H   UNL     1      -3.745 -10.800  11.593  0.00  0.00    +0.149 HD
BRANCH   5  21
ATOM     21  C   UNL     1      -2.011 -10.841  12.801  0.00  0.00    +0.139 C 
BRANCH  21  23
ATOM     23  C   UNL     1      -2.766 -10.785  14.098  0.00  0.00    -0.030 A 
ATOM     24  C   UNL     1      -4.154 -10.659  14.092  0.00  0.00    +0.006 A 
ATOM     25  C   UNL     1      -2.077 -10.858  15.309  0.00  0.00    +0.006 A 
ATOM     27  C   UNL     1      -4.856 -10.607  15.297  0.00  0.00    +0.019 A 
ATOM     28  C   UNL     1      -2.778 -10.805  16.513  0.00  0.00    +0.019 A 
ATOM     29  C   UNL     1      -4.167 -10.680  16.507  0.00  0.00    +0.052 A 
BRANCH  29  30
ATOM      6  N   UNL     1      -5.468 -10.583  18.744  0.00  0.00    -0.191 NA
ATOM     30  C   UNL     1      -4.885 -10.627  17.741  0.00  0.00    +0.099 C 
ENDBRANCH  29  30
ENDBRANCH  21  23
ENDBRANCH   5  21
ENDBRANCH  15  19
ENDBRANCH  10  15
TORSDOF 10
ENDMDL
MODEL 4
REMARK VINA RESULT:      -6.0     21.514     23.274
REMARK  Name = 38029418
REMARK  14 active torsions:
REMARK  status: ('A' for Active; 'I' for Inactive)
REMARK    1  A    between atoms: O_3  and  C_22
REMARK    2  A    between atoms: O_3  and  C_26
REMARK    3  A    between atoms: N_4  and  C_14
REMARK    4  A    between atoms: N_5  and  C_21
REMARK    5  A    between atoms: C_7  and  C_11
REMARK    6  A    between atoms: C_8  and  C_14
REMARK    7  A    between atoms: C_10  and  C_15
REMARK    8  A    between atoms: C_11  and  C_16
REMARK    9  A    between atoms: C_11  and  C_17
REMARK   10  A    between atoms: C_12  and  C_18
REMARK   11  A    between atoms: C_15  and  C_19
REMARK   12  A    between atoms: C_20  and  C_22
REMARK   13  A    between atoms: C_21  and  C_23
REMARK   14  A    between atoms: C_29  and  C_30
REMARK                            x       y       z     vdW  Elec       q    Type
REMARK                         _______ _______ _______ _____ _____    ______ ____
ROOT
ATOM      7  C   UNL     1     -12.082  10.198  18.580  0.00  0.00    +0.000 C 
ATOM      8  C   UNL     1     -12.070   8.825  17.862  0.00  0.00    +0.032 C 
ATOM      9  C   UNL     1     -11.263  10.132  19.877  0.00  0.00    +0.012 C 
ATOM     10  C   UNL     1     -11.801   9.067  20.852  0.00  0.00    +0.023 C 
ATOM     12  C   UNL     1     -12.070   7.749  20.153  0.00  0.00    -0.073 C 
ATOM     13  C   UNL     1     -12.174   7.658  18.815  0.00  0.00    -0.022 C 
ATOM     18  C   UNL     1     -12.172   6.528  21.025  0.00  0.00    +0.039 C 
ENDROOT
BRANCH   7  11
ATOM     11  C   UNL     1     -11.541  11.314  17.682  0.00  0.00    -0.013 C 
ATOM     16  C   UNL     1     -11.354  12.599  18.482  0.00  0.00    +0.007 C 
ATOM     17  C   UNL     1     -10.229  10.886  17.032  0.00  0.00    +0.007 C 
ENDBRANCH   7  11
BRANCH   8  14
ATOM     14  C   UNL     1     -13.191   8.735  16.820  0.00  0.00    +0.112 C 
BRANCH  14   4
ATOM      2  O   UNL     1     -12.381   9.751  14.236  0.00  0.00    -0.273 OA
ATOM      4  N   UNL     1     -12.770   7.972  15.686  0.00  0.00    -0.313 N 
ATOM     20  C   UNL     1     -12.394   8.546  14.472  0.00  0.00    +0.239 C 
ATOM     31  H   UNL     1     -12.688   6.965  15.790  0.00  0.00    +0.149 HD
BRANCH  20  22
ATOM     22  C   UNL     1     -11.992   7.507  13.448  0.00  0.00    +0.255 C 
BRANCH  22   3
ATOM      3  O   UNL     1     -10.639   7.139  13.614  0.00  0.00    -0.374 OA
ATOM     26  C   UNL     1      -9.831   7.581  12.528  0.00  0.00    +0.194 C 
ENDBRANCH  22   3
ENDBRANCH  20  22
ENDBRANCH  14   4
ENDBRANCH   8  14
BRANCH  10  15
ATOM     15  C   UNL     1     -13.054   9.566  21.581  0.00  0.00    +0.103 C 
BRANCH  15  19
ATOM      1  O   UNL     1     -13.054  11.974  21.817  0.00  0.00    -0.276 OA
ATOM      5  N   UNL     1     -12.273  10.653  23.562  0.00  0.00    -0.311 N 
ATOM     19  C   UNL     1     -12.808  10.872  22.301  0.00  0.00    +0.214 C 
ATOM     32  H   UNL     1     -12.107   9.702  23.877  0.00  0.00    +0.149 HD
BRANCH   5  21
ATOM     21  C   UNL     1     -11.936  11.723  24.473  0.00  0.00    +0.139 C 
BRANCH  21  23
ATOM     23  C   UNL     1     -11.865  11.248  25.896  0.00  0.00    -0.030 A 
ATOM     24  C   UNL     1     -12.801  11.697  26.827  0.00  0.00    +0.006 A 
ATOM     25  C   UNL     1     -10.863  10.360  26.286  0.00  0.00    +0.006 A 
ATOM     27  C   UNL     1     -12.736  11.256  28.149  0.00  0.00    +0.019 A 
ATOM     28  C   UNL     1     -10.798   9.919  27.607  0.00  0.00    +0.019 A 
ATOM     29  C   UNL     1     -11.735  10.367  28.539  0.00  0.00    +0.052 A 
BRANCH  29  30
ATOM      6  N   UNL     1     -11.613   9.549  30.993  0.00  0.00    -0.191 NA
ATOM     30  C   UNL     1     -11.668   9.916  29.893  0.00  0.00    +0.099 C 
ENDBRANCH  29  30
ENDBRANCH  21  23
ENDBRANCH   5  21
ENDBRANCH  15  19
ENDBRANCH  10  15
TORSDOF 10
ENDMDL
MODEL 5
REMARK VINA RESULT:      -6.0     22.491     26.391
REMARK  Name = 38029418
REMARK  14 active torsions:
REMARK  status: ('A' for Active; 'I' for Inactive)
REMARK    1  A    between atoms: O_3  and  C_22
REMARK    2  A    between atoms: O_3  and  C_26
REMARK    3  A    between atoms: N_4  and  C_14
REMARK    4  A    between atoms: N_5  and  C_21
REMARK    5  A    between atoms: C_7  and  C_11
REMARK    6  A    between atoms: C_8  and  C_14
REMARK    7  A    between atoms: C_10  and  C_15
REMARK    8  A    between atoms: C_11  and  C_16
REMARK    9  A    between atoms: C_11  and  C_17
REMARK   10  A    between atoms: C_12  and  C_18
REMARK   11  A    between atoms: C_15  and  C_19
REMARK   12  A    between atoms: C_20  and  C_22
REMARK   13  A    between atoms: C_21  and  C_23
REMARK   14  A    between atoms: C_29  and  C_30
REMARK                            x       y       z     vdW  Elec       q    Type
REMARK                         _______ _______ _______ _____ _____    ______ ____
ROOT
ATOM      7  C   UNL     1       8.890   8.516   5.353  0.00  0.00    +0.000 C 
ATOM      8  C   UNL     1       8.776   7.959   6.794  0.00  0.00    +0.032 C 
ATOM      9  C   UNL     1       8.368   7.488   4.338  0.00  0.00    +0.012 C 
ATOM     10  C   UNL     1       9.140   6.156   4.409  0.00  0.00    +0.023 C 
ATOM     12  C   UNL     1       9.303   5.675   5.837  0.00  0.00    -0.073 C 
ATOM     13  C   UNL     1       9.124   6.492   6.890  0.00  0.00    -0.022 C 
ATOM     18  C   UNL     1       9.633   4.221   6.028  0.00  0.00    +0.039 C 
ENDROOT
BRANCH   7  11
ATOM     11  C   UNL     1       8.129   9.835   5.191  0.00  0.00    -0.013 C 
ATOM     16  C   UNL     1       9.081  10.952   4.777  0.00  0.00    +0.007 C 
ATOM     17  C   UNL     1       7.002   9.680   4.174  0.00  0.00    +0.007 C 
ENDBRANCH   7  11
BRANCH   8  14
ATOM     14  C   UNL     1       9.654   8.757   7.766  0.00  0.00    +0.112 C 
BRANCH  14   4
ATOM      2  O   UNL     1      11.490  10.977   7.511  0.00  0.00    -0.273 OA
ATOM      4  N   UNL     1      11.027   8.700   7.372  0.00  0.00    -0.313 N 
ATOM     20  C   UNL     1      11.844   9.825   7.275  0.00  0.00    +0.239 C 
ATOM     31  H   UNL     1      11.441   7.787   7.209  0.00  0.00    +0.149 HD
BRANCH  20  22
ATOM     22  C   UNL     1      13.251   9.475   6.839  0.00  0.00    +0.255 C 
BRANCH  22   3
ATOM      3  O   UNL     1      13.544   8.126   7.134  0.00  0.00    -0.374 OA
ATOM     26  C   UNL     1      14.743   7.691   6.500  0.00  0.00    +0.194 C 
ENDBRANCH  22   3
ENDBRANCH  20  22
ENDBRANCH  14   4
ENDBRANCH   8  14
BRANCH  10  15
ATOM     15  C   UNL     1      10.499   6.267   3.709  0.00  0.00    +0.103 C 
BRANCH  15  19
ATOM      1  O   UNL     1      10.037   5.289   1.544  0.00  0.00    -0.276 OA
ATOM      5  N   UNL     1      11.573   4.267   2.957  0.00  0.00    -0.311 N 
ATOM     19  C   UNL     1      10.654   5.245   2.605  0.00  0.00    +0.214 C 
ATOM     32  H   UNL     1      12.036   4.317   3.860  0.00  0.00    +0.149 HD
BRANCH   5  21
ATOM     21  C   UNL     1      11.918   3.161   2.094  0.00  0.00    +0.139 C 
BRANCH  21  23
ATOM     23  C   UNL     1      13.134   3.455   1.264  0.00  0.00    -0.030 A 
ATOM     24  C   UNL     1      12.999   3.734  -0.096  0.00  0.00    +0.006 A 
ATOM     25  C   UNL     1      14.398   3.447   1.853  0.00  0.00    +0.006 A 
ATOM     27  C   UNL     1      14.129   4.007  -0.867  0.00  0.00    +0.019 A 
ATOM     28  C   UNL     1      15.528   3.720   1.081  0.00  0.00    +0.019 A 
ATOM     29  C   UNL     1      15.394   4.000  -0.279  0.00  0.00    +0.052 A 
BRANCH  29  30
ATOM      6  N   UNL     1      17.491   4.506  -1.709  0.00  0.00    -0.191 NA
ATOM     30  C   UNL     1      16.551   4.279  -1.068  0.00  0.00    +0.099 C 
ENDBRANCH  29  30
ENDBRANCH  21  23
ENDBRANCH   5  21
ENDBRANCH  15  19
ENDBRANCH  10  15
TORSDOF 10
ENDMDL
MODEL 6
REMARK VINA RESULT:      -5.9      1.682      2.639
REMARK  Name = 38029418
REMARK  14 active torsions:
REMARK  status: ('A' for Active; 'I' for Inactive)
REMARK    1  A    between atoms: O_3  and  C_22
REMARK    2  A    between atoms: O_3  and  C_26
REMARK    3  A    between atoms: N_4  and  C_14
REMARK    4  A    between atoms: N_5  and  C_21
REMARK    5  A    between atoms: C_7  and  C_11
REMARK    6  A    between atoms: C_8  and  C_14
REMARK    7  A    between atoms: C_10  and  C_15
REMARK    8  A    between atoms: C_11  and  C_16
REMARK    9  A    between atoms: C_11  and  C_17
REMARK   10  A    between atoms: C_12  and  C_18
REMARK   11  A    between atoms: C_15  and  C_19
REMARK   12  A    between atoms: C_20  and  C_22
REMARK   13  A    between atoms: C_21  and  C_23
REMARK   14  A    between atoms: C_29  and  C_30
REMARK                            x       y       z     vdW  Elec       q    Type
REMARK                         _______ _______ _______ _____ _____    ______ ____
ROOT
ATOM      7  C   UNL     1      -5.624 -10.484  10.417  0.00  0.00    +0.000 C 
ATOM      8  C   UNL     1      -5.007  -9.526   9.368  0.00  0.00    +0.032 C 
ATOM      9  C   UNL     1      -5.131 -10.125  11.826  0.00  0.00    +0.012 C 
ATOM     10  C   UNL     1      -3.596 -10.198  11.942  0.00  0.00    +0.023 C 
ATOM     12  C   UNL     1      -2.911  -9.497  10.786  0.00  0.00    -0.073 C 
ATOM     13  C   UNL     1      -3.561  -9.193   9.648  0.00  0.00    -0.022 C 
ATOM     18  C   UNL     1      -1.471  -9.112  10.985  0.00  0.00    +0.039 C 
ENDROOT
BRANCH   7  11
ATOM     11  C   UNL     1      -7.155 -10.457  10.382  0.00  0.00    -0.013 C 
ATOM     16  C   UNL     1      -7.730 -11.227  11.566  0.00  0.00    +0.007 C 
ATOM     17  C   UNL     1      -7.662  -9.018  10.375  0.00  0.00    +0.007 C 
ENDBRANCH   7  11
BRANCH   8  14
ATOM     14  C   UNL     1      -5.134 -10.100   7.951  0.00  0.00    +0.112 C 
BRANCH  14   4
ATOM      2  O   UNL     1      -4.813 -11.743   5.592  0.00  0.00    -0.273 OA
ATOM      4  N   UNL     1      -4.555 -11.406   7.881  0.00  0.00    -0.313 N 
ATOM     20  C   UNL     1      -4.439 -12.131   6.696  0.00  0.00    +0.239 C 
ATOM     31  H   UNL     1      -4.159 -11.801   8.728  0.00  0.00    +0.149 HD
BRANCH  20  22
ATOM     22  C   UNL     1      -3.787 -13.480   6.911  0.00  0.00    +0.255 C 
BRANCH  22   3
ATOM      3  O   UNL     1      -2.724 -13.672   6.002  0.00  0.00    -0.374 OA
ATOM     26  C   UNL     1      -2.266 -15.020   5.997  0.00  0.00    +0.194 C 
ENDBRANCH  22   3
ENDBRANCH  20  22
ENDBRANCH  14   4
ENDBRANCH   8  14
BRANCH  10  15
ATOM     15  C   UNL     1      -3.119 -11.649  12.064  0.00  0.00    +0.103 C 
BRANCH  15  19
ATOM      1  O   UNL     1      -2.576 -13.165  13.871  0.00  0.00    -0.276 OA
ATOM      5  N   UNL     1      -2.700 -10.882  14.290  0.00  0.00    -0.311 N 
ATOM     19  C   UNL     1      -2.768 -12.013  13.490  0.00  0.00    +0.214 C 
ATOM     32  H   UNL     1      -2.873  -9.969  13.882  0.00  0.00    +0.149 HD
BRANCH   5  21
ATOM     21  C   UNL     1      -2.386 -10.931  15.700  0.00  0.00    +0.139 C 
BRANCH  21  23
ATOM     23  C   UNL     1      -3.622 -10.914  16.552  0.00  0.00    -0.030 A 
ATOM     24  C   UNL     1      -3.580 -11.421  17.850  0.00  0.00    +0.006 A 
ATOM     25  C   UNL     1      -4.811 -10.392  16.044  0.00  0.00    +0.006 A 
ATOM     27  C   UNL     1      -4.729 -11.404  18.642  0.00  0.00    +0.019 A 
ATOM     28  C   UNL     1      -5.959 -10.376  16.836  0.00  0.00    +0.019 A 
ATOM     29  C   UNL     1      -5.918 -10.882  18.135  0.00  0.00    +0.052 A 
BRANCH  29  30
ATOM      6  N   UNL     1      -8.050 -10.852  19.605  0.00  0.00    -0.191 NA
ATOM     30  C   UNL     1      -7.094 -10.866  18.946  0.00  0.00    +0.099 C 
ENDBRANCH  29  30
ENDBRANCH  21  23
ENDBRANCH   5  21
ENDBRANCH  15  19
ENDBRANCH  10  15
TORSDOF 10
ENDMDL
MODEL 7
REMARK VINA RESULT:      -5.9      5.743      8.811
REMARK  Name = 38029418
REMARK  14 active torsions:
REMARK  status: ('A' for Active; 'I' for Inactive)
REMARK    1  A    between atoms: O_3  and  C_22
REMARK    2  A    between atoms: O_3  and  C_26
REMARK    3  A    between atoms: N_4  and  C_14
REMARK    4  A    between atoms: N_5  and  C_21
REMARK    5  A    between atoms: C_7  and  C_11
REMARK    6  A    between atoms: C_8  and  C_14
REMARK    7  A    between atoms: C_10  and  C_15
REMARK    8  A    between atoms: C_11  and  C_16
REMARK    9  A    between atoms: C_11  and  C_17
REMARK   10  A    between atoms: C_12  and  C_18
REMARK   11  A    between atoms: C_15  and  C_19
REMARK   12  A    between atoms: C_20  and  C_22
REMARK   13  A    between atoms: C_21  and  C_23
REMARK   14  A    between atoms: C_29  and  C_30
REMARK                            x       y       z     vdW  Elec       q    Type
REMARK                         _______ _______ _______ _____ _____    ______ ____
ROOT
ATOM      7  C   UNL     1     -10.739  -8.718  16.144  0.00  0.00    +0.000 C 
ATOM      8  C   UNL     1     -12.135  -8.085  15.919  0.00  0.00    +0.032 C 
ATOM      9  C   UNL     1     -10.879 -10.159  16.658  0.00  0.00    +0.012 C 
ATOM     10  C   UNL     1     -11.667 -10.230  17.981  0.00  0.00    +0.023 C 
ATOM     12  C   UNL     1     -12.936  -9.404  17.926  0.00  0.00    -0.073 C 
ATOM     13  C   UNL     1     -13.133  -8.458  16.989  0.00  0.00    -0.022 C 
ATOM     18  C   UNL     1     -13.995  -9.719  18.946  0.00  0.00    +0.039 C 
ENDROOT
BRANCH   7  11
ATOM     11  C   UNL     1      -9.895  -8.705  14.866  0.00  0.00    -0.013 C 
ATOM     16  C   UNL     1      -8.668  -9.596  15.028  0.00  0.00    +0.007 C 
ATOM     17  C   UNL     1     -10.732  -9.150  13.670  0.00  0.00    +0.007 C 
ENDBRANCH   7  11
BRANCH   8  14
ATOM     14  C   UNL     1     -12.040  -6.558  15.819  0.00  0.00    +0.112 C 
BRANCH  14   4
ATOM      2  O   UNL     1     -11.957  -4.899  13.450  0.00  0.00    -0.273 OA
ATOM      4  N   UNL     1     -13.155  -6.028  15.097  0.00  0.00    -0.313 N 
ATOM     20  C   UNL     1     -13.024  -5.233  13.959  0.00  0.00    +0.239 C 
ATOM     31  H   UNL     1     -14.089  -6.290  15.398  0.00  0.00    +0.149 HD
BRANCH  20  22
ATOM     22  C   UNL     1     -14.366  -4.812  13.397  0.00  0.00    +0.255 C 
BRANCH  22   3
ATOM      3  O   UNL     1     -14.414  -3.414  13.213  0.00  0.00    -0.374 OA
ATOM     26  C   UNL     1     -14.975  -3.062  11.953  0.00  0.00    +0.194 C 
ENDBRANCH  22   3
ENDBRANCH  20  22
ENDBRANCH  14   4
ENDBRANCH   8  14
BRANCH  10  15
ATOM     15  C   UNL     1     -10.792  -9.813  19.169  0.00  0.00    +0.103 C 
BRANCH  15  19
ATOM      1  O   UNL     1     -10.285 -11.966  20.150  0.00  0.00    -0.276 OA
ATOM      5  N   UNL     1      -8.553 -10.626  19.371  0.00  0.00    -0.311 N 
ATOM     19  C   UNL     1      -9.882 -10.932  19.624  0.00  0.00    +0.214 C 
ATOM     32  H   UNL     1      -8.318  -9.743  18.929  0.00  0.00    +0.149 HD
BRANCH   5  21
ATOM     21  C   UNL     1      -7.463 -11.514  19.705  0.00  0.00    +0.139 C 
BRANCH  21  23
ATOM     23  C   UNL     1      -6.268 -11.292  18.824  0.00  0.00    -0.030 A 
ATOM     24  C   UNL     1      -6.381 -10.498  17.683  0.00  0.00    +0.006 A 
ATOM     25  C   UNL     1      -5.045 -11.881  19.146  0.00  0.00    +0.006 A 
ATOM     27  C   UNL     1      -5.270 -10.291  16.864  0.00  0.00    +0.019 A 
ATOM     28  C   UNL     1      -3.935 -11.675  18.326  0.00  0.00    +0.019 A 
ATOM     29  C   UNL     1      -4.048 -10.880  17.186  0.00  0.00    +0.052 A 
BRANCH  29  30
ATOM      6  N   UNL     1      -1.987 -10.497  15.666  0.00  0.00    -0.191 NA
ATOM     30  C   UNL     1      -2.910 -10.669  16.347  0.00  0.00    +0.099 C 
ENDBRANCH  29  30
ENDBRANCH  21  23
ENDBRANCH   5  21
ENDBRANCH  15  19
ENDBRANCH  10  15
TORSDOF 10
ENDMDL
MODEL 8
REMARK VINA RESULT:      -5.8     20.538     22.306
REMARK  Name = 38029418
REMARK  14 active torsions:
REMARK  status: ('A' for Active; 'I' for Inactive)
REMARK    1  A    between atoms: O_3  and  C_22
REMARK    2  A    between atoms: O_3  and  C_26
REMARK    3  A    between atoms: N_4  and  C_14
REMARK    4  A    between atoms: N_5  and  C_21
REMARK    5  A    between atoms: C_7  and  C_11
REMARK    6  A    between atoms: C_8  and  C_14
REMARK    7  A    between atoms: C_10  and  C_15
REMARK    8  A    between atoms: C_11  and  C_16
REMARK    9  A    between atoms: C_11  and  C_17
REMARK   10  A    between atoms: C_12  and  C_18
REMARK   11  A    between atoms: C_15  and  C_19
REMARK   12  A    between atoms: C_20  and  C_22
REMARK   13  A    between atoms: C_21  and  C_23
REMARK   14  A    between atoms: C_29  and  C_30
REMARK                            x       y       z     vdW  Elec       q    Type
REMARK                         _______ _______ _______ _____ _____    ______ ____
ROOT
ATOM      7  C   UNL     1     -11.687   9.238  18.517  0.00  0.00    +0.000 C 
ATOM      8  C   UNL     1     -10.399   9.708  17.796  0.00  0.00    +0.032 C 
ATOM      9  C   UNL     1     -12.231   7.959  17.863  0.00  0.00    +0.012 C 
ATOM     10  C   UNL     1     -12.554   8.160  16.371  0.00  0.00    +0.023 C 
ATOM     12  C   UNL     1     -11.428   8.867  15.642  0.00  0.00    -0.073 C 
ATOM     13  C   UNL     1     -10.467   9.543  16.296  0.00  0.00    -0.022 C 
ATOM     18  C   UNL     1     -11.408   8.741  14.144  0.00  0.00    +0.039 C 
ENDROOT
BRANCH   7  11
ATOM     11  C   UNL     1     -11.446   8.994  20.010  0.00  0.00    -0.013 C 
ATOM     16  C   UNL     1     -12.549   9.643  20.841  0.00  0.00    +0.007 C 
ATOM     17  C   UNL     1     -11.361   7.499  20.299  0.00  0.00    +0.007 C 
ENDBRANCH   7  11
BRANCH   8  14
ATOM     14  C   UNL     1     -10.077  11.169  18.135  0.00  0.00    +0.112 C 
BRANCH  14   4
ATOM      2  O   UNL     1      -9.493  13.974  17.739  0.00  0.00    -0.273 OA
ATOM      4  N   UNL     1      -9.216  11.740  17.147  0.00  0.00    -0.313 N 
ATOM     20  C   UNL     1      -8.990  13.110  17.026  0.00  0.00    +0.239 C 
ATOM     31  H   UNL     1      -8.702  11.111  16.538  0.00  0.00    +0.149 HD
BRANCH  20  22
ATOM     22  C   UNL     1      -8.035  13.435  15.897  0.00  0.00    +0.255 C 
BRANCH  22   3
ATOM      3  O   UNL     1      -6.695  13.296  16.321  0.00  0.00    -0.374 OA
ATOM     26  C   UNL     1      -5.774  13.589  15.275  0.00  0.00    +0.194 C 
ENDBRANCH  22   3
ENDBRANCH  20  22
ENDBRANCH  14   4
ENDBRANCH   8  14
BRANCH  10  15
ATOM     15  C   UNL     1     -13.880   8.906  16.187  0.00  0.00    +0.103 C 
BRANCH  15  19
ATOM      1  O   UNL     1     -15.561   7.245  15.664  0.00  0.00    -0.276 OA
ATOM      5  N   UNL     1     -15.531   8.219  17.774  0.00  0.00    -0.311 N 
ATOM     19  C   UNL     1     -15.073   8.024  16.479  0.00  0.00    +0.214 C 
ATOM     32  H   UNL     1     -15.059   8.886  18.377  0.00  0.00    +0.149 HD
BRANCH   5  21
ATOM     21  C   UNL     1     -16.663   7.510  18.325  0.00  0.00    +0.139 C 
BRANCH  21  23
ATOM     23  C   UNL     1     -16.305   6.775  19.585  0.00  0.00    -0.030 A 
ATOM     24  C   UNL     1     -15.098   7.041  20.229  0.00  0.00    +0.006 A 
ATOM     25  C   UNL     1     -17.181   5.825  20.110  0.00  0.00    +0.006 A 
ATOM     27  C   UNL     1     -14.765   6.359  21.400  0.00  0.00    +0.019 A 
ATOM     28  C   UNL     1     -16.849   5.143  21.281  0.00  0.00    +0.019 A 
ATOM     29  C   UNL     1     -15.641   5.410  21.925  0.00  0.00    +0.052 A 
BRANCH  29  30
ATOM      6  N   UNL     1     -15.025   4.143  24.097  0.00  0.00    -0.191 NA
ATOM     30  C   UNL     1     -15.302   4.711  23.124  0.00  0.00    +0.099 C 
ENDBRANCH  29  30
ENDBRANCH  21  23
ENDBRANCH   5  21
ENDBRANCH  15  19
ENDBRANCH  10  15
TORSDOF 10
ENDMDL
MODEL 9
REMARK VINA RESULT:      -5.6     21.749     25.564
REMARK  Name = 38029418
REMARK  14 active torsions:
REMARK  status: ('A' for Active; 'I' for Inactive)
REMARK    1  A    between atoms: O_3  and  C_22
REMARK    2  A    between atoms: O_3  and  C_26
REMARK    3  A    between atoms: N_4  and  C_14
REMARK    4  A    between atoms: N_5  and  C_21
REMARK    5  A    between atoms: C_7  and  C_11
REMARK    6  A    between atoms: C_8  and  C_14
REMARK    7  A    between atoms: C_10  and  C_15
REMARK    8  A    between atoms: C_11  and  C_16
REMARK    9  A    between atoms: C_11  and  C_17
REMARK   10  A    between atoms: C_12  and  C_18
REMARK   11  A    between atoms: C_15  and  C_19
REMARK   12  A    between atoms: C_20  and  C_22
REMARK   13  A    between atoms: C_21  and  C_23
REMARK   14  A    between atoms: C_29  and  C_30
REMARK                            x       y       z     vdW  Elec       q    Type
REMARK                         _______ _______ _______ _____ _____    ______ ____
ROOT
ATOM      7  C   UNL     1     -16.755   2.764  29.829  0.00  0.00    +0.000 C 
ATOM      8  C   UNL     1     -16.425   1.866  28.611  0.00  0.00    +0.032 C 
ATOM      9  C   UNL     1     -15.469   3.155  30.572  0.00  0.00    +0.012 C 
ATOM     10  C   UNL     1     -14.690   1.923  31.072  0.00  0.00    +0.023 C 
ATOM     12  C   UNL     1     -14.554   0.867  29.993  0.00  0.00    -0.073 C 
ATOM     13  C   UNL     1     -15.330   0.865  28.894  0.00  0.00    -0.022 C 
ATOM     18  C   UNL     1     -13.476  -0.163  30.185  0.00  0.00    +0.039 C 
ENDROOT
BRANCH   7  11
ATOM     11  C   UNL     1     -17.517   4.027  29.414  0.00  0.00    -0.013 C 
ATOM     16  C   UNL     1     -18.622   4.337  30.417  0.00  0.00    +0.007 C 
ATOM     17  C   UNL     1     -16.559   5.208  29.282  0.00  0.00    +0.007 C 
ENDBRANCH   7  11
BRANCH   8  14
ATOM     14  C   UNL     1     -17.674   1.129  28.111  0.00  0.00    +0.112 C 
BRANCH  14   4
ATOM      2  O   UNL     1     -16.683   0.243  25.542  0.00  0.00    -0.273 OA
ATOM      4  N   UNL     1     -18.065   1.610  26.823  0.00  0.00    -0.313 N 
ATOM     20  C   UNL     1     -17.534   1.125  25.629  0.00  0.00    +0.239 C 
ATOM     31  H   UNL     1     -18.807   2.302  26.775  0.00  0.00    +0.149 HD
BRANCH  20  22
ATOM     22  C   UNL     1     -18.128   1.811  24.417  0.00  0.00    +0.255 C 
BRANCH  22   3
ATOM      3  O   UNL     1     -17.722   3.161  24.359  0.00  0.00    -0.374 OA
ATOM     26  C   UNL     1     -16.401   3.298  23.846  0.00  0.00    +0.194 C 
ENDBRANCH  22   3
ENDBRANCH  20  22
ENDBRANCH  14   4
ENDBRANCH   8  14
BRANCH  10  15
ATOM     15  C   UNL     1     -15.330   1.338  32.335  0.00  0.00    +0.103 C 
BRANCH  15  19
ATOM      1  O   UNL     1     -14.104   1.311  34.421  0.00  0.00    -0.276 OA
ATOM      5  N   UNL     1     -15.070   3.293  33.687  0.00  0.00    -0.311 N 
ATOM     19  C   UNL     1     -14.756   1.945  33.596  0.00  0.00    +0.214 C 
ATOM     32  H   UNL     1     -15.615   3.731  32.951  0.00  0.00    +0.149 HD
BRANCH   5  21
ATOM     21  C   UNL     1     -14.653   4.127  34.791  0.00  0.00    +0.139 C 
BRANCH  21  23
ATOM     23  C   UNL     1     -14.153   5.465  34.327  0.00  0.00    -0.030 A 
ATOM     24  C   UNL     1     -14.229   5.807  32.978  0.00  0.00    +0.006 A 
ATOM     25  C   UNL     1     -13.612   6.364  35.246  0.00  0.00    +0.006 A 
ATOM     27  C   UNL     1     -13.765   7.051  32.546  0.00  0.00    +0.019 A 
ATOM     28  C   UNL     1     -13.148   7.606  34.815  0.00  0.00    +0.019 A 
ATOM     29  C   UNL     1     -13.225   7.950  33.465  0.00  0.00    +0.052 A 
BRANCH  29  30
ATOM      6  N   UNL     1     -12.363  10.257  32.666  0.00  0.00    -0.191 NA
ATOM     30  C   UNL     1     -12.749   9.223  33.024  0.00  0.00    +0.099 C 
ENDBRANCH  29  30
ENDBRANCH  21  23
ENDBRANCH   5  21
ENDBRANCH  15  19
ENDBRANCH  10  15
TORSDOF 10
ENDMDL
MODEL 10
REMARK VINA RESULT:      -5.6     22.680     26.476
REMARK  Name = 38029418
REMARK  14 active torsions:
REMARK  status: ('A' for Active; 'I' for Inactive)
REMARK    1  A    between atoms: O_3  and  C_22
REMARK    2  A    between atoms: O_3  and  C_26
REMARK    3  A    between atoms: N_4  and  C_14
REMARK    4  A    between atoms: N_5  and  C_21
REMARK    5  A    between atoms: C_7  and  C_11
REMARK    6  A    between atoms: C_8  and  C_14
REMARK    7  A    between atoms: C_10  and  C_15
REMARK    8  A    between atoms: C_11  and  C_16
REMARK    9  A    between atoms: C_11  and  C_17
REMARK   10  A    between atoms: C_12  and  C_18
REMARK   11  A    between atoms: C_15  and  C_19
REMARK   12  A    between atoms: C_20  and  C_22
REMARK   13  A    between atoms: C_21  and  C_23
REMARK   14  A    between atoms: C_29  and  C_30
REMARK                            x       y       z     vdW  Elec       q    Type
REMARK                         _______ _______ _______ _____ _____    ______ ____
ROOT
ATOM      7  C   UNL     1       9.311   8.687   4.939  0.00  0.00    +0.000 C 
ATOM      8  C   UNL     1       9.100   8.663   6.473  0.00  0.00    +0.032 C 
ATOM      9  C   UNL     1       8.787   7.390   4.305  0.00  0.00    +0.012 C 
ATOM     10  C   UNL     1       9.484   6.140   4.875  0.00  0.00    +0.023 C 
ATOM     12  C   UNL     1       9.553   6.174   6.388  0.00  0.00    -0.073 C 
ATOM     13  C   UNL     1       9.366   7.309   7.086  0.00  0.00    -0.022 C 
ATOM     18  C   UNL     1       9.798   4.865   7.085  0.00  0.00    +0.039 C 
ENDROOT
BRANCH   7  11
ATOM     11  C   UNL     1       8.628   9.894   4.289  0.00  0.00    -0.013 C 
ATOM     16  C   UNL     1       8.870   9.896   2.783  0.00  0.00    +0.007 C 
ATOM     17  C   UNL     1       7.134   9.890   4.596  0.00  0.00    +0.007 C 
ENDBRANCH   7  11
BRANCH   8  14
ATOM     14  C   UNL     1       9.969   9.718   7.168  0.00  0.00    +0.112 C 
BRANCH  14   4
ATOM      2  O   UNL     1      11.138  11.080   9.437  0.00  0.00    -0.273 OA
ATOM      4  N   UNL     1       9.278  10.293   8.280  0.00  0.00    -0.313 N 
ATOM     20  C   UNL     1       9.922  10.934   9.336  0.00  0.00    +0.239 C 
ATOM     31  H   UNL     1       8.262  10.280   8.271  0.00  0.00    +0.149 HD
BRANCH  20  22
ATOM     22  C   UNL     1       8.947  11.449  10.374  0.00  0.00    +0.255 C 
BRANCH  22   3
ATOM      3  O   UNL     1       9.621  11.786  11.568  0.00  0.00    -0.374 OA
ATOM     26  C   UNL     1       8.777  12.487  12.475  0.00  0.00    +0.194 C 
ENDBRANCH  22   3
ENDBRANCH  20  22
ENDBRANCH  14   4
ENDBRANCH   8  14
BRANCH  10  15
ATOM     15  C   UNL     1      10.879   5.959   4.266  0.00  0.00    +0.103 C 
BRANCH  15  19
ATOM      1  O   UNL     1      10.127   5.540   2.005  0.00  0.00    -0.276 OA
ATOM      5  N   UNL     1      11.685   4.115   2.976  0.00  0.00    -0.311 N 
ATOM     19  C   UNL     1      10.834   5.210   2.954  0.00  0.00    +0.214 C 
ATOM     32  H   UNL     1      12.233   3.923   3.809  0.00  0.00    +0.149 HD
BRANCH   5  21
ATOM     21  C   UNL     1      11.843   3.216   1.856  0.00  0.00    +0.139 C 
BRANCH  21  23
ATOM     23  C   UNL     1      13.088   3.509   1.070  0.00  0.00    -0.030 A 
ATOM     24  C   UNL     1      13.000   3.815  -0.287  0.00  0.00    +0.006 A 
ATOM     25  C   UNL     1      14.333   3.475   1.698  0.00  0.00    +0.006 A 
ATOM     27  C   UNL     1      14.157   4.088  -1.018  0.00  0.00    +0.019 A 
ATOM     28  C   UNL     1      15.490   3.747   0.969  0.00  0.00    +0.019 A 
ATOM     29  C   UNL     1      15.402   4.054  -0.389  0.00  0.00    +0.052 A 
BRANCH  29  30
ATOM      6  N   UNL     1      17.550   4.559  -1.744  0.00  0.00    -0.191 NA
ATOM     30  C   UNL     1      16.587   4.333  -1.137  0.00  0.00    +0.099 C 
ENDBRANCH  29  30
ENDBRANCH  21  23
ENDBRANCH   5  21
ENDBRANCH  15  19
ENDBRANCH  10  15
TORSDOF 10
ENDMDL
