MODEL 1
REMARK VINA RESULT:      -6.1      0.000      0.000
REMARK  Name = 75536902
REMARK  6 active torsions:
REMARK  status: ('A' for Active; 'I' for Inactive)
REMARK    1  A    between atoms: S_1  and  N_7
REMARK    2  A    between atoms: S_1  and  C_15
REMARK    3  A    between atoms: O_3  and  C_11
REMARK    4  A    between atoms: O_3  and  C_18
REMARK    5  A    between atoms: O_6  and  C_21
REMARK    6  A    between atoms: O_6  and  C_25
REMARK                            x       y       z     vdW  Elec       q    Type
REMARK                         _______ _______ _______ _____ _____    ______ ____
ROOT
ATOM      2  O   UNL     1      10.923   8.241  19.590  0.00  0.00    -0.375 OA
ATOM      7  N   UNL     1      13.459   9.282  20.626  0.00  0.00    -0.171 NA
ATOM     10  C   UNL     1      12.988  10.256  19.592  0.00  0.00    +0.156 C 
ATOM     11  C   UNL     1      12.580   9.531  18.311  0.00  0.00    +0.216 C 
ATOM     12  C   UNL     1      12.345   8.814  21.505  0.00  0.00    +0.137 C 
ATOM     13  C   UNL     1      11.825   8.217  18.490  0.00  0.00    +0.205 C 
ATOM     14  C   UNL     1      11.513   7.755  20.796  0.00  0.00    +0.177 C 
ENDROOT
BRANCH   7   1
ATOM      1  S   UNL     1      14.914   9.696  21.432  0.00  0.00    +0.061 S 
ATOM      4  O   UNL     1      14.722   9.528  22.855  0.00  0.00    -0.153 OA
ATOM      5  O   UNL     1      15.413  10.935  20.883  0.00  0.00    -0.153 OA
BRANCH   1  15
ATOM     15  C   UNL     1      15.956   8.389  20.867  0.00  0.00    +0.106 A 
ATOM     16  C   UNL     1      17.279   8.316  21.300  0.00  0.00    +0.032 A 
ATOM     17  C   UNL     1      15.457   7.430  19.985  0.00  0.00    +0.032 A 
ATOM     19  C   UNL     1      18.105   7.285  20.851  0.00  0.00    +0.047 A 
ATOM     20  C   UNL     1      16.283   6.399  19.536  0.00  0.00    +0.047 A 
ATOM     21  C   UNL     1      17.606   6.327  19.969  0.00  0.00    +0.120 A 
BRANCH  21   6
ATOM      6  O   UNL     1      18.412   5.320  19.531  0.00  0.00    -0.495 OA
ATOM     25  C   UNL     1      19.660   5.150  20.202  0.00  0.00    +0.277 C 
ENDBRANCH  21   6
ENDBRANCH   1  15
ENDBRANCH   7   1
BRANCH  11   3
ATOM      3  O   UNL     1      13.737   9.261  17.518  0.00  0.00    -0.468 OA
BRANCH   3  18
ATOM      8  N   UNL     1      15.107  10.926  16.646  0.00  0.00    -0.219 NA
ATOM      9  N   UNL     1      13.425  11.095  14.407  0.00  0.00    -0.256 NA
ATOM     18  C   UNL     1      14.013  10.150  16.515  0.00  0.00    +0.234 A 
ATOM     22  C   UNL     1      13.187  10.233  15.415  0.00  0.00    +0.177 A 
ATOM     23  C   UNL     1      15.345  11.789  15.639  0.00  0.00    +0.134 A 
ATOM     24  C   UNL     1      14.520  11.872  14.539  0.00  0.00    +0.130 A 
ENDBRANCH   3  18
ENDBRANCH  11   3
TORSDOF 5
ENDMDL
MODEL 2
REMARK VINA RESULT:      -5.8      2.678      3.241
REMARK  Name = 75536902
REMARK  6 active torsions:
REMARK  status: ('A' for Active; 'I' for Inactive)
REMARK    1  A    between atoms: S_1  and  N_7
REMARK    2  A    between atoms: S_1  and  C_15
REMARK    3  A    between atoms: O_3  and  C_11
REMARK    4  A    between atoms: O_3  and  C_18
REMARK    5  A    between atoms: O_6  and  C_21
REMARK    6  A    between atoms: O_6  and  C_25
REMARK                            x       y       z     vdW  Elec       q    Type
REMARK                         _______ _______ _______ _____ _____    ______ ____
ROOT
ATOM      2  O   UNL     1      11.571   6.190  20.101  0.00  0.00    -0.375 OA
ATOM      7  N   UNL     1      11.740   8.889  21.231  0.00  0.00    -0.171 NA
ATOM     10  C   UNL     1      11.398   9.053  19.783  0.00  0.00    +0.156 C 
ATOM     11  C   UNL     1      12.321   8.207  18.909  0.00  0.00    +0.216 C 
ATOM     12  C   UNL     1      10.967   7.780  21.867  0.00  0.00    +0.137 C 
ATOM     13  C   UNL     1      12.663   6.816  19.437  0.00  0.00    +0.205 C 
ATOM     14  C   UNL     1      11.571   6.431  21.508  0.00  0.00    +0.177 C 
ENDROOT
BRANCH   7   1
ATOM      1  S   UNL     1      11.843  10.337  22.141  0.00  0.00    +0.061 S 
ATOM      4  O   UNL     1      11.378  10.078  23.485  0.00  0.00    -0.153 OA
ATOM      5  O   UNL     1      11.298  11.420  21.355  0.00  0.00    -0.153 OA
BRANCH   1  15
ATOM     15  C   UNL     1      13.596  10.534  22.201  0.00  0.00    +0.106 A 
ATOM     16  C   UNL     1      14.148  11.780  22.496  0.00  0.00    +0.032 A 
ATOM     17  C   UNL     1      14.429   9.443  21.951  0.00  0.00    +0.032 A 
ATOM     19  C   UNL     1      15.533  11.936  22.540  0.00  0.00    +0.047 A 
ATOM     20  C   UNL     1      15.815   9.600  21.995  0.00  0.00    +0.047 A 
ATOM     21  C   UNL     1      16.366  10.846  22.290  0.00  0.00    +0.120 A 
BRANCH  21   6
ATOM      6  O   UNL     1      17.718  10.999  22.334  0.00  0.00    -0.495 OA
ATOM     25  C   UNL     1      18.496  10.142  21.499  0.00  0.00    +0.277 C 
ENDBRANCH  21   6
ENDBRANCH   1  15
ENDBRANCH   7   1
BRANCH  11   3
ATOM      3  O   UNL     1      13.550   8.901  18.689  0.00  0.00    -0.468 OA
BRANCH   3  18
ATOM      8  N   UNL     1      14.459  10.680  17.499  0.00  0.00    -0.219 NA
ATOM      9  N   UNL     1      13.048   9.841  15.224  0.00  0.00    -0.256 NA
ATOM     18  C   UNL     1      13.659   9.595  17.515  0.00  0.00    +0.234 A 
ATOM     22  C   UNL     1      12.966   9.183  16.398  0.00  0.00    +0.177 A 
ATOM     23  C   UNL     1      14.541  11.338  16.326  0.00  0.00    +0.134 A 
ATOM     24  C   UNL     1      13.848  10.926  15.209  0.00  0.00    +0.130 A 
ENDBRANCH   3  18
ENDBRANCH  11   3
TORSDOF 5
ENDMDL
MODEL 3
REMARK VINA RESULT:      -5.8     31.682     33.221
REMARK  Name = 75536902
REMARK  6 active torsions:
REMARK  status: ('A' for Active; 'I' for Inactive)
REMARK    1  A    between atoms: S_1  and  N_7
REMARK    2  A    between atoms: S_1  and  C_15
REMARK    3  A    between atoms: O_3  and  C_11
REMARK    4  A    between atoms: O_3  and  C_18
REMARK    5  A    between atoms: O_6  and  C_21
REMARK    6  A    between atoms: O_6  and  C_25
REMARK                            x       y       z     vdW  Elec       q    Type
REMARK                         _______ _______ _______ _____ _____    ______ ____
ROOT
ATOM      2  O   UNL     1     -18.657   5.584  32.412  0.00  0.00    -0.375 OA
ATOM      7  N   UNL     1     -15.899   4.609  32.590  0.00  0.00    -0.171 NA
ATOM     10  C   UNL     1     -16.071   5.154  31.207  0.00  0.00    +0.156 C 
ATOM     11  C   UNL     1     -17.349   4.617  30.568  0.00  0.00    +0.216 C 
ATOM     12  C   UNL     1     -16.526   5.489  33.622  0.00  0.00    +0.137 C 
ATOM     13  C   UNL     1     -18.569   4.513  31.480  0.00  0.00    +0.205 C 
ATOM     14  C   UNL     1     -18.032   5.281  33.660  0.00  0.00    +0.177 C 
ENDROOT
BRANCH   7   1
ATOM      1  S   UNL     1     -14.336   4.019  32.970  0.00  0.00    +0.061 S 
ATOM      4  O   UNL     1     -14.306   3.643  34.366  0.00  0.00    -0.153 OA
ATOM      5  O   UNL     1     -13.352   4.920  32.416  0.00  0.00    -0.153 OA
BRANCH   1  15
ATOM     15  C   UNL     1     -14.327   2.540  32.008  0.00  0.00    +0.106 A 
ATOM     16  C   UNL     1     -14.967   1.396  32.483  0.00  0.00    +0.032 A 
ATOM     17  C   UNL     1     -13.677   2.515  30.774  0.00  0.00    +0.032 A 
ATOM     19  C   UNL     1     -14.957   0.226  31.724  0.00  0.00    +0.047 A 
ATOM     20  C   UNL     1     -13.668   1.344  30.015  0.00  0.00    +0.047 A 
ATOM     21  C   UNL     1     -14.308   0.200  30.490  0.00  0.00    +0.120 A 
BRANCH  21   6
ATOM      6  O   UNL     1     -14.299  -0.942  29.750  0.00  0.00    -0.495 OA
ATOM     25  C   UNL     1     -13.067  -1.302  29.126  0.00  0.00    +0.277 C 
ENDBRANCH  21   6
ENDBRANCH   1  15
ENDBRANCH   7   1
BRANCH  11   3
ATOM      3  O   UNL     1     -17.108   3.321  30.018  0.00  0.00    -0.468 OA
BRANCH   3  18
ATOM      8  N   UNL     1     -16.971   4.408  27.967  0.00  0.00    -0.219 NA
ATOM      9  N   UNL     1     -16.500   1.938  26.723  0.00  0.00    -0.256 NA
ATOM     18  C   UNL     1     -16.921   3.255  28.664  0.00  0.00    +0.234 A 
ATOM     22  C   UNL     1     -16.689   2.043  28.053  0.00  0.00    +0.177 A 
ATOM     23  C   UNL     1     -16.783   4.304  26.636  0.00  0.00    +0.134 A 
ATOM     24  C   UNL     1     -16.551   3.091  26.025  0.00  0.00    +0.130 A 
ENDBRANCH   3  18
ENDBRANCH  11   3
TORSDOF 5
ENDMDL
MODEL 4
REMARK VINA RESULT:      -5.4     29.973     32.527
REMARK  Name = 75536902
REMARK  6 active torsions:
REMARK  status: ('A' for Active; 'I' for Inactive)
REMARK    1  A    between atoms: S_1  and  N_7
REMARK    2  A    between atoms: S_1  and  C_15
REMARK    3  A    between atoms: O_3  and  C_11
REMARK    4  A    between atoms: O_3  and  C_18
REMARK    5  A    between atoms: O_6  and  C_21
REMARK    6  A    between atoms: O_6  and  C_25
REMARK                            x       y       z     vdW  Elec       q    Type
REMARK                         _______ _______ _______ _____ _____    ______ ____
ROOT
ATOM      2  O   UNL     1     -16.903   6.327  33.480  0.00  0.00    -0.375 OA
ATOM      7  N   UNL     1     -15.023   4.155  32.898  0.00  0.00    -0.171 NA
ATOM     10  C   UNL     1     -14.378   5.009  33.943  0.00  0.00    +0.156 C 
ATOM     11  C   UNL     1     -14.450   6.485  33.556  0.00  0.00    +0.216 C 
ATOM     12  C   UNL     1     -16.474   3.931  33.174  0.00  0.00    +0.137 C 
ATOM     13  C   UNL     1     -15.755   6.953  32.918  0.00  0.00    +0.205 C 
ATOM     14  C   UNL     1     -17.290   5.150  32.770  0.00  0.00    +0.177 C 
ENDROOT
BRANCH   7   1
ATOM      1  S   UNL     1     -14.139   2.767  32.419  0.00  0.00    +0.061 S 
ATOM      4  O   UNL     1     -14.488   1.667  33.290  0.00  0.00    -0.153 OA
ATOM      5  O   UNL     1     -12.761   3.146  32.204  0.00  0.00    -0.153 OA
BRANCH   1  15
ATOM     15  C   UNL     1     -14.875   2.467  30.843  0.00  0.00    +0.106 A 
ATOM     16  C   UNL     1     -15.405   1.211  30.550  0.00  0.00    +0.032 A 
ATOM     17  C   UNL     1     -14.925   3.485  29.891  0.00  0.00    +0.032 A 
ATOM     19  C   UNL     1     -15.984   0.972  29.304  0.00  0.00    +0.047 A 
ATOM     20  C   UNL     1     -15.505   3.246  28.645  0.00  0.00    +0.047 A 
ATOM     21  C   UNL     1     -16.035   1.990  28.352  0.00  0.00    +0.120 A 
BRANCH  21   6
ATOM      6  O   UNL     1     -16.600   1.757  27.136  0.00  0.00    -0.495 OA
ATOM     25  C   UNL     1     -16.401   2.746  26.127  0.00  0.00    +0.277 C 
ENDBRANCH  21   6
ENDBRANCH   1  15
ENDBRANCH   7   1
BRANCH  11   3
ATOM      3  O   UNL     1     -13.389   6.801  32.653  0.00  0.00    -0.468 OA
BRANCH   3  18
ATOM      8  N   UNL     1     -11.987   8.518  31.951  0.00  0.00    -0.219 NA
ATOM      9  N   UNL     1     -11.813   9.421  34.601  0.00  0.00    -0.256 NA
ATOM     18  C   UNL     1     -12.633   7.900  32.959  0.00  0.00    +0.234 A 
ATOM     22  C   UNL     1     -12.548   8.344  34.260  0.00  0.00    +0.177 A 
ATOM     23  C   UNL     1     -11.251   9.595  32.291  0.00  0.00    +0.134 A 
ATOM     24  C   UNL     1     -11.166  10.039  33.592  0.00  0.00    +0.130 A 
ENDBRANCH   3  18
ENDBRANCH  11   3
TORSDOF 5
ENDMDL
MODEL 5
REMARK VINA RESULT:      -5.3     25.584     27.708
REMARK  Name = 75536902
REMARK  6 active torsions:
REMARK  status: ('A' for Active; 'I' for Inactive)
REMARK    1  A    between atoms: S_1  and  N_7
REMARK    2  A    between atoms: S_1  and  C_15
REMARK    3  A    between atoms: O_3  and  C_11
REMARK    4  A    between atoms: O_3  and  C_18
REMARK    5  A    between atoms: O_6  and  C_21
REMARK    6  A    between atoms: O_6  and  C_25
REMARK                            x       y       z     vdW  Elec       q    Type
REMARK                         _______ _______ _______ _____ _____    ______ ____
ROOT
ATOM      2  O   UNL     1     -13.619   5.585  21.567  0.00  0.00    -0.375 OA
ATOM      7  N   UNL     1     -14.139   8.470  21.579  0.00  0.00    -0.171 NA
ATOM     10  C   UNL     1     -13.727   8.116  20.185  0.00  0.00    +0.156 C 
ATOM     11  C   UNL     1     -12.459   7.265  20.195  0.00  0.00    +0.216 C 
ATOM     12  C   UNL     1     -15.081   7.464  22.157  0.00  0.00    +0.137 C 
ATOM     13  C   UNL     1     -12.367   6.202  21.286  0.00  0.00    +0.205 C 
ATOM     14  C   UNL     1     -14.325   6.230  22.627  0.00  0.00    +0.177 C 
ENDROOT
BRANCH   7   1
ATOM      1  S   UNL     1     -14.558  10.111  21.840  0.00  0.00    +0.061 S 
ATOM      4  O   UNL     1     -15.951  10.183  22.221  0.00  0.00    -0.153 OA
ATOM      5  O   UNL     1     -14.037  10.902  20.749  0.00  0.00    -0.153 OA
BRANCH   1  15
ATOM     15  C   UNL     1     -13.584  10.448  23.273  0.00  0.00    +0.106 A 
ATOM     16  C   UNL     1     -12.372  11.125  23.148  0.00  0.00    +0.032 A 
ATOM     17  C   UNL     1     -14.027  10.036  24.529  0.00  0.00    +0.032 A 
ATOM     19  C   UNL     1     -11.600  11.389  24.280  0.00  0.00    +0.047 A 
ATOM     20  C   UNL     1     -13.255  10.300  25.662  0.00  0.00    +0.047 A 
ATOM     21  C   UNL     1     -12.043  10.977  25.536  0.00  0.00    +0.120 A 
BRANCH  21   6
ATOM      6  O   UNL     1     -11.290  11.235  26.641  0.00  0.00    -0.495 OA
ATOM     25  C   UNL     1     -10.332  10.247  27.019  0.00  0.00    +0.277 C 
ENDBRANCH  21   6
ENDBRANCH   1  15
ENDBRANCH   7   1
BRANCH  11   3
ATOM      3  O   UNL     1     -11.311   8.106  20.313  0.00  0.00    -0.468 OA
BRANCH   3  18
ATOM      8  N   UNL     1     -10.848   7.999  18.036  0.00  0.00    -0.219 NA
ATOM      9  N   UNL     1     -10.098  10.701  18.091  0.00  0.00    -0.256 NA
ATOM     18  C   UNL     1     -10.888   8.728  19.169  0.00  0.00    +0.234 A 
ATOM     22  C   UNL     1     -10.520  10.055  19.196  0.00  0.00    +0.177 A 
ATOM     23  C   UNL     1     -10.425   8.644  16.931  0.00  0.00    +0.134 A 
ATOM     24  C   UNL     1     -10.057   9.971  16.958  0.00  0.00    +0.130 A 
ENDBRANCH   3  18
ENDBRANCH  11   3
TORSDOF 5
ENDMDL
MODEL 6
REMARK VINA RESULT:      -5.3      2.572      3.759
REMARK  Name = 75536902
REMARK  6 active torsions:
REMARK  status: ('A' for Active; 'I' for Inactive)
REMARK    1  A    between atoms: S_1  and  N_7
REMARK    2  A    between atoms: S_1  and  C_15
REMARK    3  A    between atoms: O_3  and  C_11
REMARK    4  A    between atoms: O_3  and  C_18
REMARK    5  A    between atoms: O_6  and  C_21
REMARK    6  A    between atoms: O_6  and  C_25
REMARK                            x       y       z     vdW  Elec       q    Type
REMARK                         _______ _______ _______ _____ _____    ______ ____
ROOT
ATOM      2  O   UNL     1      12.856  10.284  16.693  0.00  0.00    -0.375 OA
ATOM      7  N   UNL     1      12.932   8.575  19.073  0.00  0.00    -0.171 NA
ATOM     10  C   UNL     1      12.801   9.983  19.562  0.00  0.00    +0.156 C 
ATOM     11  C   UNL     1      13.816  10.893  18.873  0.00  0.00    +0.216 C 
ATOM     12  C   UNL     1      12.049   8.305  17.898  0.00  0.00    +0.137 C 
ATOM     13  C   UNL     1      14.046  10.644  17.385  0.00  0.00    +0.205 C 
ATOM     14  C   UNL     1      12.664   8.870  16.625  0.00  0.00    +0.177 C 
ENDROOT
BRANCH   7   1
ATOM      1  S   UNL     1      12.943   7.363  20.284  0.00  0.00    +0.061 S 
ATOM      4  O   UNL     1      12.187   6.225  19.812  0.00  0.00    -0.153 OA
ATOM      5  O   UNL     1      12.655   7.978  21.559  0.00  0.00    -0.153 OA
BRANCH   1  15
ATOM     15  C   UNL     1      14.653   6.927  20.261  0.00  0.00    +0.106 A 
ATOM     16  C   UNL     1      15.266   6.577  19.058  0.00  0.00    +0.032 A 
ATOM     17  C   UNL     1      15.389   6.929  21.445  0.00  0.00    +0.032 A 
ATOM     19  C   UNL     1      16.617   6.229  19.040  0.00  0.00    +0.047 A 
ATOM     20  C   UNL     1      16.740   6.581  21.427  0.00  0.00    +0.047 A 
ATOM     21  C   UNL     1      17.354   6.231  20.224  0.00  0.00    +0.120 A 
BRANCH  21   6
ATOM      6  O   UNL     1      18.672   5.892  20.206  0.00  0.00    -0.495 OA
ATOM     25  C   UNL     1      19.583   6.790  20.838  0.00  0.00    +0.277 C 
ENDBRANCH  21   6
ENDBRANCH   1  15
ENDBRANCH   7   1
BRANCH  11   3
ATOM      3  O   UNL     1      15.081  10.791  19.529  0.00  0.00    -0.468 OA
BRANCH   3  18
ATOM      8  N   UNL     1      17.001  12.091  19.352  0.00  0.00    -0.219 NA
ATOM      9  N   UNL     1      15.701  14.147  20.750  0.00  0.00    -0.256 NA
ATOM     18  C   UNL     1      15.732  11.966  19.789  0.00  0.00    +0.234 A 
ATOM     22  C   UNL     1      15.094  12.976  20.475  0.00  0.00    +0.177 A 
ATOM     23  C   UNL     1      17.609  13.262  19.628  0.00  0.00    +0.134 A 
ATOM     24  C   UNL     1      16.971  14.272  20.314  0.00  0.00    +0.130 A 
ENDBRANCH   3  18
ENDBRANCH  11   3
TORSDOF 5
ENDMDL
MODEL 7
REMARK VINA RESULT:      -5.2     26.749     28.914
REMARK  Name = 75536902
REMARK  6 active torsions:
REMARK  status: ('A' for Active; 'I' for Inactive)
REMARK    1  A    between atoms: S_1  and  N_7
REMARK    2  A    between atoms: S_1  and  C_15
REMARK    3  A    between atoms: O_3  and  C_11
REMARK    4  A    between atoms: O_3  and  C_18
REMARK    5  A    between atoms: O_6  and  C_21
REMARK    6  A    between atoms: O_6  and  C_25
REMARK                            x       y       z     vdW  Elec       q    Type
REMARK                         _______ _______ _______ _____ _____    ______ ____
ROOT
ATOM      2  O   UNL     1      -6.057 -14.190  15.013  0.00  0.00    -0.375 OA
ATOM      7  N   UNL     1      -3.723 -12.438  14.746  0.00  0.00    -0.171 NA
ATOM     10  C   UNL     1      -4.425 -12.026  16.001  0.00  0.00    +0.156 C 
ATOM     11  C   UNL     1      -5.921 -11.849  15.753  0.00  0.00    +0.216 C 
ATOM     12  C   UNL     1      -3.653 -13.924  14.604  0.00  0.00    +0.137 C 
ATOM     13  C   UNL     1      -6.581 -12.879  14.839  0.00  0.00    +0.205 C 
ATOM     14  C   UNL     1      -4.984 -14.478  14.116  0.00  0.00    +0.177 C 
ENDROOT
BRANCH   7   1
ATOM      1  S   UNL     1      -2.277 -11.592  14.388  0.00  0.00    +0.061 S 
ATOM      4  O   UNL     1      -1.246 -12.550  14.054  0.00  0.00    -0.153 OA
ATOM      5  O   UNL     1      -2.064 -10.585  15.401  0.00  0.00    -0.153 OA
BRANCH   1  15
ATOM     15  C   UNL     1      -2.762 -10.776  12.900  0.00  0.00    +0.106 A 
ATOM     16  C   UNL     1      -1.795 -10.227  12.060  0.00  0.00    +0.032 A 
ATOM     17  C   UNL     1      -4.113 -10.679  12.567  0.00  0.00    +0.032 A 
ATOM     19  C   UNL     1      -2.179  -9.579  10.885  0.00  0.00    +0.047 A 
ATOM     20  C   UNL     1      -4.497 -10.031  11.392  0.00  0.00    +0.047 A 
ATOM     21  C   UNL     1      -3.529  -9.482  10.551  0.00  0.00    +0.120 A 
BRANCH  21   6
ATOM      6  O   UNL     1      -3.903  -8.850   9.405  0.00  0.00    -0.495 OA
ATOM     25  C   UNL     1      -4.734  -9.580   8.503  0.00  0.00    +0.277 C 
ENDBRANCH  21   6
ENDBRANCH   1  15
ENDBRANCH   7   1
BRANCH  11   3
ATOM      3  O   UNL     1      -6.170 -10.556  15.198  0.00  0.00    -0.468 OA
BRANCH   3  18
ATOM      8  N   UNL     1      -8.296  -9.737  14.732  0.00  0.00    -0.219 NA
ATOM      9  N   UNL     1      -8.500  -8.841  17.383  0.00  0.00    -0.256 NA
ATOM     18  C   UNL     1      -7.301  -9.915  15.625  0.00  0.00    +0.234 A 
ATOM     22  C   UNL     1      -7.402  -9.476  16.926  0.00  0.00    +0.177 A 
ATOM     23  C   UNL     1      -9.393  -9.101  15.188  0.00  0.00    +0.134 A 
ATOM     24  C   UNL     1      -9.494  -8.662  16.490  0.00  0.00    +0.130 A 
ENDBRANCH   3  18
ENDBRANCH  11   3
TORSDOF 5
ENDMDL
MODEL 8
REMARK VINA RESULT:      -5.2     26.130     28.468
REMARK  Name = 75536902
REMARK  6 active torsions:
REMARK  status: ('A' for Active; 'I' for Inactive)
REMARK    1  A    between atoms: S_1  and  N_7
REMARK    2  A    between atoms: S_1  and  C_15
REMARK    3  A    between atoms: O_3  and  C_11
REMARK    4  A    between atoms: O_3  and  C_18
REMARK    5  A    between atoms: O_6  and  C_21
REMARK    6  A    between atoms: O_6  and  C_25
REMARK                            x       y       z     vdW  Elec       q    Type
REMARK                         _______ _______ _______ _____ _____    ______ ____
ROOT
ATOM      2  O   UNL     1     -13.848  11.648  15.795  0.00  0.00    -0.375 OA
ATOM      7  N   UNL     1     -11.927   9.752  16.938  0.00  0.00    -0.171 NA
ATOM     10  C   UNL     1     -12.121   9.353  15.509  0.00  0.00    +0.156 C 
ATOM     11  C   UNL     1     -13.607   9.283  15.164  0.00  0.00    +0.216 C 
ATOM     12  C   UNL     1     -11.810  11.233  17.096  0.00  0.00    +0.137 C 
ATOM     13  C   UNL     1     -14.491  10.379  15.754  0.00  0.00    +0.205 C 
ATOM     14  C   UNL     1     -13.182  11.888  17.035  0.00  0.00    +0.177 C 
ENDROOT
BRANCH   7   1
ATOM      1  S   UNL     1     -10.793   8.822  17.824  0.00  0.00    +0.061 S 
ATOM      4  O   UNL     1      -9.903   9.717  18.529  0.00  0.00    -0.153 OA
ATOM      5  O   UNL     1     -10.280   7.776  16.968  0.00  0.00    -0.153 OA
BRANCH   1  15
ATOM     15  C   UNL     1     -11.869   8.080  19.009  0.00  0.00    +0.106 A 
ATOM     16  C   UNL     1     -13.251   8.199  18.866  0.00  0.00    +0.032 A 
ATOM     17  C   UNL     1     -11.338   7.377  20.090  0.00  0.00    +0.032 A 
ATOM     19  C   UNL     1     -14.102   7.615  19.805  0.00  0.00    +0.047 A 
ATOM     20  C   UNL     1     -12.189   6.793  21.029  0.00  0.00    +0.047 A 
ATOM     21  C   UNL     1     -13.571   6.912  20.886  0.00  0.00    +0.120 A 
BRANCH  21   6
ATOM      6  O   UNL     1     -14.401   6.343  21.801  0.00  0.00    -0.495 OA
ATOM     25  C   UNL     1     -14.112   5.002  22.195  0.00  0.00    +0.277 C 
ENDBRANCH  21   6
ENDBRANCH   1  15
ENDBRANCH   7   1
BRANCH  11   3
ATOM      3  O   UNL     1     -14.142   8.025  15.580  0.00  0.00    -0.468 OA
BRANCH   3  18
ATOM      8  N   UNL     1     -14.006   6.972  13.511  0.00  0.00    -0.219 NA
ATOM      9  N   UNL     1     -16.636   6.053  13.839  0.00  0.00    -0.256 NA
ATOM     18  C   UNL     1     -14.731   7.260  14.610  0.00  0.00    +0.234 A 
ATOM     22  C   UNL     1     -16.023   6.809  14.771  0.00  0.00    +0.177 A 
ATOM     23  C   UNL     1     -14.620   6.217  12.578  0.00  0.00    +0.134 A 
ATOM     24  C   UNL     1     -15.911   5.766  12.739  0.00  0.00    +0.130 A 
ENDBRANCH   3  18
ENDBRANCH  11   3
TORSDOF 5
ENDMDL
MODEL 9
REMARK VINA RESULT:      -5.1     27.213     30.085
REMARK  Name = 75536902
REMARK  6 active torsions:
REMARK  status: ('A' for Active; 'I' for Inactive)
REMARK    1  A    between atoms: S_1  and  N_7
REMARK    2  A    between atoms: S_1  and  C_15
REMARK    3  A    between atoms: O_3  and  C_11
REMARK    4  A    between atoms: O_3  and  C_18
REMARK    5  A    between atoms: O_6  and  C_21
REMARK    6  A    between atoms: O_6  and  C_25
REMARK                            x       y       z     vdW  Elec       q    Type
REMARK                         _______ _______ _______ _____ _____    ______ ____
ROOT
ATOM      2  O   UNL     1      -7.057 -11.421  20.042  0.00  0.00    -0.375 OA
ATOM      7  N   UNL     1      -8.221 -11.616  17.359  0.00  0.00    -0.171 NA
ATOM     10  C   UNL     1      -6.829 -12.159  17.261  0.00  0.00    +0.156 C 
ATOM     11  C   UNL     1      -5.831 -11.210  17.921  0.00  0.00    +0.216 C 
ATOM     12  C   UNL     1      -8.921 -12.086  18.592  0.00  0.00    +0.137 C 
ATOM     13  C   UNL     1      -6.280 -10.554  19.224  0.00  0.00    +0.205 C 
ATOM     14  C   UNL     1      -8.459 -11.291  19.805  0.00  0.00    +0.177 C 
ENDROOT
BRANCH   7   1
ATOM      1  S   UNL     1      -9.145 -11.670  15.917  0.00  0.00    +0.061 S 
ATOM      4  O   UNL     1     -10.319 -12.482  16.146  0.00  0.00    -0.153 OA
ATOM      5  O   UNL     1      -8.258 -11.930  14.806  0.00  0.00    -0.153 OA
BRANCH   1  15
ATOM     15  C   UNL     1      -9.660  -9.985  15.823  0.00  0.00    +0.106 A 
ATOM     16  C   UNL     1      -9.286  -9.086  16.821  0.00  0.00    +0.032 A 
ATOM     17  C   UNL     1     -10.443  -9.553  14.753  0.00  0.00    +0.032 A 
ATOM     19  C   UNL     1      -9.696  -7.754  16.749  0.00  0.00    +0.047 A 
ATOM     20  C   UNL     1     -10.852  -8.221  14.681  0.00  0.00    +0.047 A 
ATOM     21  C   UNL     1     -10.478  -7.322  15.679  0.00  0.00    +0.120 A 
BRANCH  21   6
ATOM      6  O   UNL     1     -10.878  -6.023  15.608  0.00  0.00    -0.495 OA
ATOM     25  C   UNL     1     -12.098  -5.755  14.919  0.00  0.00    +0.277 C 
ENDBRANCH  21   6
ENDBRANCH   1  15
ENDBRANCH   7   1
BRANCH  11   3
ATOM      3  O   UNL     1      -5.479 -10.167  17.010  0.00  0.00    -0.468 OA
BRANCH   3  18
ATOM      8  N   UNL     1      -3.241 -10.687  16.648  0.00  0.00    -0.219 NA
ATOM      9  N   UNL     1      -3.724 -10.709  13.884  0.00  0.00    -0.256 NA
ATOM     18  C   UNL     1      -4.463 -10.437  16.134  0.00  0.00    +0.234 A 
ATOM     22  C   UNL     1      -4.700 -10.448  14.778  0.00  0.00    +0.177 A 
ATOM     23  C   UNL     1      -2.266 -10.947  15.755  0.00  0.00    +0.134 A 
ATOM     24  C   UNL     1      -2.503 -10.958  14.398  0.00  0.00    +0.130 A 
ENDBRANCH   3  18
ENDBRANCH  11   3
TORSDOF 5
ENDMDL
MODEL 10
REMARK VINA RESULT:      -5.1     27.005     29.356
REMARK  Name = 75536902
REMARK  6 active torsions:
REMARK  status: ('A' for Active; 'I' for Inactive)
REMARK    1  A    between atoms: S_1  and  N_7
REMARK    2  A    between atoms: S_1  and  C_15
REMARK    3  A    between atoms: O_3  and  C_11
REMARK    4  A    between atoms: O_3  and  C_18
REMARK    5  A    between atoms: O_6  and  C_21
REMARK    6  A    between atoms: O_6  and  C_25
REMARK                            x       y       z     vdW  Elec       q    Type
REMARK                         _______ _______ _______ _____ _____    ______ ____
ROOT
ATOM      2  O   UNL     1      -5.463 -15.178  13.775  0.00  0.00    -0.375 OA
ATOM      7  N   UNL     1      -3.858 -12.833  14.493  0.00  0.00    -0.171 NA
ATOM     10  C   UNL     1      -4.411 -13.379  15.771  0.00  0.00    +0.156 C 
ATOM     11  C   UNL     1      -5.910 -13.643  15.644  0.00  0.00    +0.216 C 
ATOM     12  C   UNL     1      -3.369 -13.915  13.586  0.00  0.00    +0.137 C 
ATOM     13  C   UNL     1      -6.381 -14.237  14.320  0.00  0.00    +0.205 C 
ATOM     14  C   UNL     1      -4.535 -14.580  12.869  0.00  0.00    +0.177 C 
ENDROOT
BRANCH   7   1
ATOM      1  S   UNL     1      -2.826 -11.474  14.647  0.00  0.00    +0.061 S 
ATOM      4  O   UNL     1      -1.455 -11.932  14.699  0.00  0.00    -0.153 OA
ATOM      5  O   UNL     1      -3.362 -10.596  15.662  0.00  0.00    -0.153 OA
BRANCH   1  15
ATOM     15  C   UNL     1      -3.086 -10.715  13.075  0.00  0.00    +0.106 A 
ATOM     16  C   UNL     1      -4.383 -10.467  12.628  0.00  0.00    +0.032 A 
ATOM     17  C   UNL     1      -1.995 -10.366  12.280  0.00  0.00    +0.032 A 
ATOM     19  C   UNL     1      -4.589  -9.869  11.384  0.00  0.00    +0.047 A 
ATOM     20  C   UNL     1      -2.201  -9.769  11.036  0.00  0.00    +0.047 A 
ATOM     21  C   UNL     1      -3.498  -9.521  10.589  0.00  0.00    +0.120 A 
BRANCH  21   6
ATOM      6  O   UNL     1      -3.700  -8.938   9.375  0.00  0.00    -0.495 OA
ATOM     25  C   UNL     1      -4.776  -9.441   8.584  0.00  0.00    +0.277 C 
ENDBRANCH  21   6
ENDBRANCH   1  15
ENDBRANCH   7   1
BRANCH  11   3
ATOM      3  O   UNL     1      -6.635 -12.431  15.858  0.00  0.00    -0.468 OA
BRANCH   3  18
ATOM      8  N   UNL     1      -7.184 -12.881  18.072  0.00  0.00    -0.219 NA
ATOM      9  N   UNL     1      -6.487 -10.249  18.748  0.00  0.00    -0.256 NA
ATOM     18  C   UNL     1      -6.740 -12.001  17.152  0.00  0.00    +0.234 A 
ATOM     22  C   UNL     1      -6.397 -10.709  17.485  0.00  0.00    +0.177 A 
ATOM     23  C   UNL     1      -7.275 -12.420  19.336  0.00  0.00    +0.134 A 
ATOM     24  C   UNL     1      -6.932 -11.129  19.668  0.00  0.00    +0.130 A 
ENDBRANCH   3  18
ENDBRANCH  11   3
TORSDOF 5
ENDMDL
