MODEL 1
REMARK VINA RESULT:      -7.2      0.000      0.000
REMARK  Name = 23786327
REMARK  14 active torsions:
REMARK  status: ('A' for Active; 'I' for Inactive)
REMARK    1  A    between atoms: O_1  and  C_17
REMARK    2  A    between atoms: O_1  and  C_26
REMARK    3  A    between atoms: O_2  and  C_18
REMARK    4  A    between atoms: O_3  and  C_22
REMARK    5  A    between atoms: O_8  and  C_39
REMARK    6  A    between atoms: O_8  and  C_41
REMARK    7  A    between atoms: N_9  and  C_27
REMARK    8  A    between atoms: N_10  and  C_28
REMARK    9  A    between atoms: C_11  and  C_21
REMARK   10  A    between atoms: C_13  and  C_22
REMARK   11  A    between atoms: C_13  and  C_23
REMARK   12  A    between atoms: C_14  and  C_24
REMARK   13  A    between atoms: C_24  and  C_25
REMARK   14  A    between atoms: C_27  and  C_29
REMARK                            x       y       z     vdW  Elec       q    Type
REMARK                         _______ _______ _______ _____ _____    ______ ____
ROOT
ATOM     11  C   UNL     1      -4.870 -10.974  12.973  0.00  0.00    -0.023 C 
ATOM     12  C   UNL     1      -3.886 -10.344  11.906  0.00  0.00    +0.007 C 
ATOM     13  C   UNL     1      -4.598  -9.816  10.584  0.00  0.00    +0.031 C 
ATOM     14  C   UNL     1      -4.070 -11.642  14.167  0.00  0.00    +0.032 C 
ATOM     15  C   UNL     1      -5.755 -12.045  12.272  0.00  0.00    +0.011 C 
ATOM     16  C   UNL     1      -2.740 -11.337  11.544  0.00  0.00    +0.007 C 
ATOM     17  C   UNL     1      -5.525 -10.920   9.999  0.00  0.00    +0.186 C 
ATOM     18  C   UNL     1      -3.005 -12.637  13.671  0.00  0.00    +0.119 C 
ATOM     19  C   UNL     1      -6.476 -11.535  11.025  0.00  0.00    +0.046 C 
ATOM     20  C   UNL     1      -2.026 -11.961  12.732  0.00  0.00    +0.032 C 
ATOM     21  C   UNL     1      -5.814  -9.920  13.610  0.00  0.00    +0.012 C 
ATOM     23  C   UNL     1      -3.542  -9.432   9.508  0.00  0.00    +0.017 C 
ENDROOT
BRANCH  18   2
ATOM      2  O   UNL     1      -2.276 -13.201  14.758  0.00  0.00    -0.391 OA
ATOM     42  H   UNL     1      -2.734 -12.957  15.581  0.00  0.00    +0.210 HD
ENDBRANCH  18   2
BRANCH  17   1
ATOM      1  O   UNL     1      -6.322 -10.419   8.926  0.00  0.00    -0.446 OA
BRANCH   1  26
ATOM      5  O   UNL     1      -7.284 -12.046   7.639  0.00  0.00    -0.226 OA
ATOM     10  N   UNL     1      -5.359 -10.899   6.963  0.00  0.00    -0.251 N 
ATOM     26  C   UNL     1      -6.404 -11.210   7.809  0.00  0.00    +0.405 C 
ATOM     45  H   UNL     1      -4.724 -10.170   7.280  0.00  0.00    +0.158 HD
BRANCH  10  28
ATOM     28  C   UNL     1      -5.059 -11.468   5.703  0.00  0.00    +0.037 A 
ATOM     31  C   UNL     1      -6.035 -11.514   4.709  0.00  0.00    +0.027 A 
ATOM     32  C   UNL     1      -3.787 -11.985   5.457  0.00  0.00    +0.027 A 
ATOM     36  C   UNL     1      -5.740 -12.076   3.467  0.00  0.00    +0.047 A 
ATOM     37  C   UNL     1      -3.491 -12.548   4.215  0.00  0.00    +0.047 A 
ATOM     39  C   UNL     1      -4.468 -12.593   3.220  0.00  0.00    +0.120 A 
BRANCH  39   8
ATOM      8  O   UNL     1      -4.181 -13.145   2.009  0.00  0.00    -0.495 OA
ATOM     41  C   UNL     1      -3.289 -14.258   1.998  0.00  0.00    +0.277 C 
ENDBRANCH  39   8
ENDBRANCH  10  28
ENDBRANCH   1  26
ENDBRANCH  17   1
BRANCH  13  22
ATOM     22  C   UNL     1      -5.382  -8.504  10.836  0.00  0.00    +0.166 C 
BRANCH  22   3
ATOM      3  O   UNL     1      -5.491  -7.829   9.605  0.00  0.00    -0.394 OA
ATOM     43  H   UNL     1      -5.440  -6.876   9.791  0.00  0.00    +0.209 HD
ENDBRANCH  22   3
ENDBRANCH  13  22
BRANCH  14  24
ATOM     24  C   UNL     1      -3.441 -10.611  15.133  0.00  0.00    +0.102 C 
BRANCH  24  25
ATOM      4  O   UNL     1      -4.692  -9.755  17.021  0.00  0.00    -0.276 OA
ATOM      9  N   UNL     1      -3.840 -11.917  17.080  0.00  0.00    -0.311 N 
ATOM     25  C   UNL     1      -4.068 -10.677  16.501  0.00  0.00    +0.214 C 
ATOM     44  H   UNL     1      -3.319 -12.623  16.569  0.00  0.00    +0.149 HD
BRANCH   9  27
ATOM     27  C   UNL     1      -4.322 -12.275  18.395  0.00  0.00    +0.139 C 
BRANCH  27  29
ATOM      6  O   UNL     1      -8.792 -11.033  20.109  0.00  0.00    -0.453 OA
ATOM      7  O   UNL     1      -9.914 -12.584  18.646  0.00  0.00    -0.453 OA
ATOM     29  C   UNL     1      -5.819 -12.383  18.435  0.00  0.00    -0.027 A 
ATOM     30  C   UNL     1      -6.548 -11.585  19.319  0.00  0.00    +0.054 A 
ATOM     33  C   UNL     1      -6.474 -13.288  17.581  0.00  0.00    +0.009 A 
ATOM     34  C   UNL     1      -7.921 -11.721  19.320  0.00  0.00    +0.167 A 
ATOM     35  C   UNL     1      -7.866 -13.405  17.602  0.00  0.00    +0.050 A 
ATOM     38  C   UNL     1      -8.563 -12.607  18.485  0.00  0.00    +0.166 A 
ATOM     40  C   UNL     1     -10.052 -11.585  19.676  0.00  0.00    +0.466 C 
ENDBRANCH  27  29
ENDBRANCH   9  27
ENDBRANCH  24  25
ENDBRANCH  14  24
TORSDOF 11
ENDMDL
MODEL 2
REMARK VINA RESULT:      -7.1      1.836      2.210
REMARK  Name = 23786327
REMARK  14 active torsions:
REMARK  status: ('A' for Active; 'I' for Inactive)
REMARK    1  A    between atoms: O_1  and  C_17
REMARK    2  A    between atoms: O_1  and  C_26
REMARK    3  A    between atoms: O_2  and  C_18
REMARK    4  A    between atoms: O_3  and  C_22
REMARK    5  A    between atoms: O_8  and  C_39
REMARK    6  A    between atoms: O_8  and  C_41
REMARK    7  A    between atoms: N_9  and  C_27
REMARK    8  A    between atoms: N_10  and  C_28
REMARK    9  A    between atoms: C_11  and  C_21
REMARK   10  A    between atoms: C_13  and  C_22
REMARK   11  A    between atoms: C_13  and  C_23
REMARK   12  A    between atoms: C_14  and  C_24
REMARK   13  A    between atoms: C_24  and  C_25
REMARK   14  A    between atoms: C_27  and  C_29
REMARK                            x       y       z     vdW  Elec       q    Type
REMARK                         _______ _______ _______ _____ _____    ______ ____
ROOT
ATOM     11  C   UNL     1      -4.948 -10.942  12.859  0.00  0.00    -0.023 C 
ATOM     12  C   UNL     1      -3.914 -10.186  11.930  0.00  0.00    +0.007 C 
ATOM     13  C   UNL     1      -4.520  -9.669  10.552  0.00  0.00    +0.031 C 
ATOM     14  C   UNL     1      -4.227 -11.585  14.114  0.00  0.00    +0.032 C 
ATOM     15  C   UNL     1      -5.649 -12.056  12.030  0.00  0.00    +0.011 C 
ATOM     16  C   UNL     1      -2.649 -11.060  11.670  0.00  0.00    +0.007 C 
ATOM     17  C   UNL     1      -5.273 -10.825   9.832  0.00  0.00    +0.186 C 
ATOM     18  C   UNL     1      -3.027 -12.464  13.713  0.00  0.00    +0.119 C 
ATOM     19  C   UNL     1      -6.271 -11.561  10.725  0.00  0.00    +0.046 C 
ATOM     20  C   UNL     1      -2.016 -11.668  12.912  0.00  0.00    +0.032 C 
ATOM     21  C   UNL     1      -6.049 -10.000  13.417  0.00  0.00    +0.012 C 
ATOM     23  C   UNL     1      -3.392  -9.151   9.615  0.00  0.00    +0.017 C 
ENDROOT
BRANCH  18   2
ATOM      2  O   UNL     1      -2.374 -13.005  14.858  0.00  0.00    -0.391 OA
ATOM     42  H   UNL     1      -2.052 -13.892  14.624  0.00  0.00    +0.210 HD
ENDBRANCH  18   2
BRANCH  17   1
ATOM      1  O   UNL     1      -5.990 -10.353   8.692  0.00  0.00    -0.446 OA
BRANCH   1  26
ATOM      5  O   UNL     1      -7.034 -11.966   7.452  0.00  0.00    -0.226 OA
ATOM     10  N   UNL     1      -4.951 -11.085   6.848  0.00  0.00    -0.251 N 
ATOM     26  C   UNL     1      -6.081 -11.217   7.631  0.00  0.00    +0.405 C 
ATOM     45  H   UNL     1      -4.263 -10.404   7.161  0.00  0.00    +0.158 HD
BRANCH  10  28
ATOM     28  C   UNL     1      -4.629 -11.780   5.660  0.00  0.00    +0.037 A 
ATOM     31  C   UNL     1      -3.452 -12.525   5.585  0.00  0.00    +0.027 A 
ATOM     32  C   UNL     1      -5.488 -11.720   4.562  0.00  0.00    +0.027 A 
ATOM     36  C   UNL     1      -3.134 -13.211   4.413  0.00  0.00    +0.047 A 
ATOM     37  C   UNL     1      -5.170 -12.406   3.390  0.00  0.00    +0.047 A 
ATOM     39  C   UNL     1      -3.993 -13.151   3.315  0.00  0.00    +0.120 A 
BRANCH  39   8
ATOM      8  O   UNL     1      -3.681 -13.818   2.170  0.00  0.00    -0.495 OA
ATOM     41  C   UNL     1      -3.119 -13.053   1.105  0.00  0.00    +0.277 C 
ENDBRANCH  39   8
ENDBRANCH  10  28
ENDBRANCH   1  26
ENDBRANCH  17   1
BRANCH  13  22
ATOM     22  C   UNL     1      -5.444  -8.442  10.753  0.00  0.00    +0.166 C 
BRANCH  22   3
ATOM      3  O   UNL     1      -5.473  -7.726   9.540  0.00  0.00    -0.394 OA
ATOM     43  H   UNL     1      -5.645  -6.794   9.758  0.00  0.00    +0.209 HD
ENDBRANCH  22   3
ENDBRANCH  13  22
BRANCH  14  24
ATOM     24  C   UNL     1      -3.805 -10.543  15.177  0.00  0.00    +0.102 C 
BRANCH  24  25
ATOM      4  O   UNL     1      -3.656 -11.664  17.318  0.00  0.00    -0.276 OA
ATOM      9  N   UNL     1      -5.507 -10.347  16.827  0.00  0.00    -0.311 N 
ATOM     25  C   UNL     1      -4.279 -10.931  16.554  0.00  0.00    +0.214 C 
ATOM     44  H   UNL     1      -5.944  -9.746  16.133  0.00  0.00    +0.149 HD
BRANCH   9  27
ATOM     27  C   UNL     1      -6.213 -10.538  18.073  0.00  0.00    +0.139 C 
BRANCH  27  29
ATOM      6  O   UNL     1      -9.759  -7.505  16.436  0.00  0.00    -0.453 OA
ATOM      7  O   UNL     1     -11.472  -8.633  17.701  0.00  0.00    -0.453 OA
ATOM     29  C   UNL     1      -7.632 -10.056  17.996  0.00  0.00    -0.027 A 
ATOM     30  C   UNL     1      -7.948  -8.957  17.193  0.00  0.00    +0.054 A 
ATOM     33  C   UNL     1      -8.631 -10.715  18.734  0.00  0.00    +0.009 A 
ATOM     34  C   UNL     1      -9.265  -8.550  17.156  0.00  0.00    +0.167 A 
ATOM     35  C   UNL     1      -9.958 -10.281  18.678  0.00  0.00    +0.050 A 
ATOM     38  C   UNL     1     -10.244  -9.193  17.879  0.00  0.00    +0.166 A 
ATOM     40  C   UNL     1     -11.156  -7.564  16.786  0.00  0.00    +0.466 C 
ENDBRANCH  27  29
ENDBRANCH   9  27
ENDBRANCH  24  25
ENDBRANCH  14  24
TORSDOF 11
ENDMDL
MODEL 3
REMARK VINA RESULT:      -7.1      2.734      4.730
REMARK  Name = 23786327
REMARK  14 active torsions:
REMARK  status: ('A' for Active; 'I' for Inactive)
REMARK    1  A    between atoms: O_1  and  C_17
REMARK    2  A    between atoms: O_1  and  C_26
REMARK    3  A    between atoms: O_2  and  C_18
REMARK    4  A    between atoms: O_3  and  C_22
REMARK    5  A    between atoms: O_8  and  C_39
REMARK    6  A    between atoms: O_8  and  C_41
REMARK    7  A    between atoms: N_9  and  C_27
REMARK    8  A    between atoms: N_10  and  C_28
REMARK    9  A    between atoms: C_11  and  C_21
REMARK   10  A    between atoms: C_13  and  C_22
REMARK   11  A    between atoms: C_13  and  C_23
REMARK   12  A    between atoms: C_14  and  C_24
REMARK   13  A    between atoms: C_24  and  C_25
REMARK   14  A    between atoms: C_27  and  C_29
REMARK                            x       y       z     vdW  Elec       q    Type
REMARK                         _______ _______ _______ _____ _____    ______ ____
ROOT
ATOM     11  C   UNL     1      -4.973 -11.367  15.938  0.00  0.00    -0.023 C 
ATOM     12  C   UNL     1      -3.747 -12.288  15.547  0.00  0.00    +0.007 C 
ATOM     13  C   UNL     1      -2.723 -11.626  14.524  0.00  0.00    +0.031 C 
ATOM     14  C   UNL     1      -6.035 -12.161  16.804  0.00  0.00    +0.032 C 
ATOM     15  C   UNL     1      -5.645 -10.845  14.636  0.00  0.00    +0.011 C 
ATOM     16  C   UNL     1      -4.231 -13.670  15.011  0.00  0.00    +0.007 C 
ATOM     17  C   UNL     1      -3.490 -11.058  13.295  0.00  0.00    +0.186 C 
ATOM     18  C   UNL     1      -6.464 -13.481  16.135  0.00  0.00    +0.119 C 
ATOM     19  C   UNL     1      -4.677 -10.169  13.665  0.00  0.00    +0.046 C 
ATOM     20  C   UNL     1      -5.266 -14.372  15.875  0.00  0.00    +0.032 C 
ATOM     21  C   UNL     1      -4.549 -10.135  16.781  0.00  0.00    +0.012 C 
ATOM     23  C   UNL     1      -1.691 -12.676  14.023  0.00  0.00    +0.017 C 
ENDROOT
BRANCH  18   2
ATOM      2  O   UNL     1      -7.393 -14.195  16.946  0.00  0.00    -0.391 OA
ATOM     42  H   UNL     1      -6.957 -15.009  17.250  0.00  0.00    +0.210 HD
ENDBRANCH  18   2
BRANCH  17   1
ATOM      1  O   UNL     1      -2.631 -10.291  12.452  0.00  0.00    -0.446 OA
BRANCH   1  26
ATOM      5  O   UNL     1      -2.837  -9.196  10.455  0.00  0.00    -0.226 OA
ATOM     10  N   UNL     1      -3.540 -11.410  10.738  0.00  0.00    -0.251 N 
ATOM     26  C   UNL     1      -2.994 -10.205  11.132  0.00  0.00    +0.405 C 
ATOM     45  H   UNL     1      -3.586 -12.137  11.449  0.00  0.00    +0.158 HD
BRANCH  10  28
ATOM     28  C   UNL     1      -4.045 -11.763   9.465  0.00  0.00    +0.037 A 
ATOM     31  C   UNL     1      -4.055 -13.099   9.066  0.00  0.00    +0.027 A 
ATOM     32  C   UNL     1      -4.533 -10.775   8.610  0.00  0.00    +0.027 A 
ATOM     36  C   UNL     1      -4.553 -13.448   7.810  0.00  0.00    +0.047 A 
ATOM     37  C   UNL     1      -5.030 -11.123   7.354  0.00  0.00    +0.047 A 
ATOM     39  C   UNL     1      -5.040 -12.460   6.954  0.00  0.00    +0.120 A 
BRANCH  39   8
ATOM      8  O   UNL     1      -5.523 -12.800   5.727  0.00  0.00    -0.495 OA
ATOM     41  C   UNL     1      -5.597 -11.764   4.749  0.00  0.00    +0.277 C 
ENDBRANCH  39   8
ENDBRANCH  10  28
ENDBRANCH   1  26
ENDBRANCH  17   1
BRANCH  13  22
ATOM     22  C   UNL     1      -1.860 -10.531  15.198  0.00  0.00    +0.166 C 
BRANCH  22   3
ATOM      3  O   UNL     1      -1.239 -11.108  16.322  0.00  0.00    -0.394 OA
ATOM     43  H   UNL     1      -1.927 -11.577  16.825  0.00  0.00    +0.209 HD
ENDBRANCH  22   3
ENDBRANCH  13  22
BRANCH  14  24
ATOM     24  C   UNL     1      -5.569 -12.417  18.257  0.00  0.00    +0.102 C 
BRANCH  24  25
ATOM      4  O   UNL     1      -6.213 -11.410  20.362  0.00  0.00    -0.276 OA
ATOM      9  N   UNL     1      -7.830 -11.869  18.757  0.00  0.00    -0.311 N 
ATOM     25  C   UNL     1      -6.537 -11.841  19.259  0.00  0.00    +0.214 C 
ATOM     44  H   UNL     1      -8.000 -12.238  17.826  0.00  0.00    +0.149 HD
BRANCH   9  27
ATOM     27  C   UNL     1      -8.973 -11.382  19.495  0.00  0.00    +0.139 C 
BRANCH  27  29
ATOM      6  O   UNL     1      -9.412  -7.814  16.099  0.00  0.00    -0.453 OA
ATOM      7  O   UNL     1     -11.769  -7.541  16.519  0.00  0.00    -0.453 OA
ATOM     29  C   UNL     1      -9.753 -10.364  18.715  0.00  0.00    -0.027 A 
ATOM     30  C   UNL     1      -9.107  -9.583  17.754  0.00  0.00    +0.054 A 
ATOM     33  C   UNL     1     -11.129 -10.205  18.960  0.00  0.00    +0.009 A 
ATOM     34  C   UNL     1      -9.865  -8.659  17.065  0.00  0.00    +0.167 A 
ATOM     35  C   UNL     1     -11.874  -9.262  18.247  0.00  0.00    +0.050 A 
ATOM     38  C   UNL     1     -11.212  -8.503  17.304  0.00  0.00    +0.166 A 
ATOM     40  C   UNL     1     -10.622  -7.109  15.758  0.00  0.00    +0.466 C 
ENDBRANCH  27  29
ENDBRANCH   9  27
ENDBRANCH  24  25
ENDBRANCH  14  24
TORSDOF 11
ENDMDL
MODEL 4
REMARK VINA RESULT:      -7.1      3.772      9.801
REMARK  Name = 23786327
REMARK  14 active torsions:
REMARK  status: ('A' for Active; 'I' for Inactive)
REMARK    1  A    between atoms: O_1  and  C_17
REMARK    2  A    between atoms: O_1  and  C_26
REMARK    3  A    between atoms: O_2  and  C_18
REMARK    4  A    between atoms: O_3  and  C_22
REMARK    5  A    between atoms: O_8  and  C_39
REMARK    6  A    between atoms: O_8  and  C_41
REMARK    7  A    between atoms: N_9  and  C_27
REMARK    8  A    between atoms: N_10  and  C_28
REMARK    9  A    between atoms: C_11  and  C_21
REMARK   10  A    between atoms: C_13  and  C_22
REMARK   11  A    between atoms: C_13  and  C_23
REMARK   12  A    between atoms: C_14  and  C_24
REMARK   13  A    between atoms: C_24  and  C_25
REMARK   14  A    between atoms: C_27  and  C_29
REMARK                            x       y       z     vdW  Elec       q    Type
REMARK                         _______ _______ _______ _____ _____    ______ ____
ROOT
ATOM     11  C   UNL     1      -5.905 -11.382  16.283  0.00  0.00    -0.023 C 
ATOM     12  C   UNL     1      -6.191 -12.112  17.658  0.00  0.00    +0.007 C 
ATOM     13  C   UNL     1      -7.684 -11.956  18.189  0.00  0.00    +0.031 C 
ATOM     14  C   UNL     1      -4.364 -11.425  15.920  0.00  0.00    +0.032 C 
ATOM     15  C   UNL     1      -6.377  -9.903  16.391  0.00  0.00    +0.011 C 
ATOM     16  C   UNL     1      -5.177 -11.663  18.753  0.00  0.00    +0.007 C 
ATOM     17  C   UNL     1      -8.099 -10.457  18.184  0.00  0.00    +0.186 C 
ATOM     18  C   UNL     1      -3.479 -10.908  17.070  0.00  0.00    +0.119 C 
ATOM     19  C   UNL     1      -7.822  -9.745  16.860  0.00  0.00    +0.046 C 
ATOM     20  C   UNL     1      -3.715 -11.705  18.337  0.00  0.00    +0.032 C 
ATOM     21  C   UNL     1      -6.657 -12.035  15.092  0.00  0.00    +0.012 C 
ATOM     23  C   UNL     1      -7.808 -12.502  19.641  0.00  0.00    +0.017 C 
ENDROOT
BRANCH  18   2
ATOM      2  O   UNL     1      -2.096 -10.986  16.735  0.00  0.00    -0.391 OA
ATOM     42  H   UNL     1      -1.634 -10.277  17.215  0.00  0.00    +0.210 HD
ENDBRANCH  18   2
BRANCH  17   1
ATOM      1  O   UNL     1      -9.488 -10.298  18.472  0.00  0.00    -0.446 OA
BRANCH   1  26
ATOM      5  O   UNL     1     -10.721 -10.628  16.574  0.00  0.00    -0.226 OA
ATOM     10  N   UNL     1     -10.465  -8.511  17.540  0.00  0.00    -0.251 N 
ATOM     26  C   UNL     1     -10.278  -9.875  17.433  0.00  0.00    +0.405 C 
ATOM     45  H   UNL     1     -10.013  -8.055  18.329  0.00  0.00    +0.158 HD
BRANCH  10  28
ATOM     28  C   UNL     1     -11.209  -7.664  16.686  0.00  0.00    +0.037 A 
ATOM     31  C   UNL     1     -10.565  -6.657  15.969  0.00  0.00    +0.027 A 
ATOM     32  C   UNL     1     -12.588  -7.838  16.562  0.00  0.00    +0.027 A 
ATOM     36  C   UNL     1     -11.300  -5.821  15.127  0.00  0.00    +0.047 A 
ATOM     37  C   UNL     1     -13.323  -7.003  15.720  0.00  0.00    +0.047 A 
ATOM     39  C   UNL     1     -12.678  -5.994  15.003  0.00  0.00    +0.120 A 
BRANCH  39   8
ATOM      8  O   UNL     1     -13.396  -5.177  14.183  0.00  0.00    -0.495 OA
ATOM     41  C   UNL     1     -14.234  -5.804  13.214  0.00  0.00    +0.277 C 
ENDBRANCH  39   8
ENDBRANCH  10  28
ENDBRANCH   1  26
ENDBRANCH  17   1
BRANCH  13  22
ATOM     22  C   UNL     1      -8.680 -12.814  17.371  0.00  0.00    +0.166 C 
BRANCH  22   3
ATOM      3  O   UNL     1      -9.746 -13.161  18.224  0.00  0.00    -0.394 OA
ATOM     43  H   UNL     1      -9.646 -14.103  18.443  0.00  0.00    +0.209 HD
ENDBRANCH  22   3
ENDBRANCH  13  22
BRANCH  14  24
ATOM     24  C   UNL     1      -3.885 -12.819  15.452  0.00  0.00    +0.102 C 
BRANCH  24  25
ATOM      4  O   UNL     1      -2.916 -13.741  13.434  0.00  0.00    -0.276 OA
ATOM      9  N   UNL     1      -3.055 -11.437  13.703  0.00  0.00    -0.311 N 
ATOM     25  C   UNL     1      -3.236 -12.756  14.094  0.00  0.00    +0.214 C 
ATOM     44  H   UNL     1      -3.360 -10.685  14.314  0.00  0.00    +0.149 HD
BRANCH   9  27
ATOM     27  C   UNL     1      -2.453 -11.063  12.444  0.00  0.00    +0.139 C 
BRANCH  27  29
ATOM      6  O   UNL     1      -6.967  -9.514  11.147  0.00  0.00    -0.453 OA
ATOM      7  O   UNL     1      -6.132  -8.298   9.241  0.00  0.00    -0.453 OA
ATOM     29  C   UNL     1      -3.410 -10.310  11.565  0.00  0.00    -0.027 A 
ATOM     30  C   UNL     1      -4.775 -10.321  11.859  0.00  0.00    +0.054 A 
ATOM     33  C   UNL     1      -2.922  -9.601  10.453  0.00  0.00    +0.009 A 
ATOM     34  C   UNL     1      -5.616  -9.617  11.021  0.00  0.00    +0.167 A 
ATOM     35  C   UNL     1      -3.795  -8.895   9.622  0.00  0.00    +0.050 A 
ATOM     38  C   UNL     1      -5.139  -8.923   9.933  0.00  0.00    +0.166 A 
ATOM     40  C   UNL     1      -7.287  -8.678  10.017  0.00  0.00    +0.466 C 
ENDBRANCH  27  29
ENDBRANCH   9  27
ENDBRANCH  24  25
ENDBRANCH  14  24
TORSDOF 11
ENDMDL
MODEL 5
REMARK VINA RESULT:      -6.9     21.650     23.399
REMARK  Name = 23786327
REMARK  14 active torsions:
REMARK  status: ('A' for Active; 'I' for Inactive)
REMARK    1  A    between atoms: O_1  and  C_17
REMARK    2  A    between atoms: O_1  and  C_26
REMARK    3  A    between atoms: O_2  and  C_18
REMARK    4  A    between atoms: O_3  and  C_22
REMARK    5  A    between atoms: O_8  and  C_39
REMARK    6  A    between atoms: O_8  and  C_41
REMARK    7  A    between atoms: N_9  and  C_27
REMARK    8  A    between atoms: N_10  and  C_28
REMARK    9  A    between atoms: C_11  and  C_21
REMARK   10  A    between atoms: C_13  and  C_22
REMARK   11  A    between atoms: C_13  and  C_23
REMARK   12  A    between atoms: C_14  and  C_24
REMARK   13  A    between atoms: C_24  and  C_25
REMARK   14  A    between atoms: C_27  and  C_29
REMARK                            x       y       z     vdW  Elec       q    Type
REMARK                         _______ _______ _______ _____ _____    ______ ____
ROOT
ATOM     11  C   UNL     1     -14.534   7.930  20.866  0.00  0.00    -0.023 C 
ATOM     12  C   UNL     1     -13.054   8.446  21.088  0.00  0.00    +0.007 C 
ATOM     13  C   UNL     1     -12.665   9.725  20.224  0.00  0.00    +0.031 C 
ATOM     14  C   UNL     1     -14.780   6.555  21.612  0.00  0.00    +0.032 C 
ATOM     15  C   UNL     1     -14.781   7.750  19.341  0.00  0.00    +0.011 C 
ATOM     16  C   UNL     1     -12.020   7.302  20.858  0.00  0.00    +0.007 C 
ATOM     17  C   UNL     1     -13.023   9.488  18.728  0.00  0.00    +0.186 C 
ATOM     18  C   UNL     1     -13.716   5.499  21.257  0.00  0.00    +0.119 C 
ATOM     19  C   UNL     1     -14.450   8.987  18.507  0.00  0.00    +0.046 C 
ATOM     20  C   UNL     1     -12.324   6.001  21.583  0.00  0.00    +0.032 C 
ATOM     21  C   UNL     1     -15.599   8.922  21.406  0.00  0.00    +0.012 C 
ATOM     23  C   UNL     1     -11.141  10.016  20.330  0.00  0.00    +0.017 C 
ENDROOT
BRANCH  18   2
ATOM      2  O   UNL     1     -13.937   4.282  21.964  0.00  0.00    -0.391 OA
ATOM     42  H   UNL     1     -14.852   4.000  21.791  0.00  0.00    +0.210 HD
ENDBRANCH  18   2
BRANCH  17   1
ATOM      1  O   UNL     1     -12.866  10.679  17.958  0.00  0.00    -0.446 OA
BRANCH   1  26
ATOM      5  O   UNL     1     -11.172   9.791  16.706  0.00  0.00    -0.226 OA
ATOM     10  N   UNL     1     -11.353  12.091  17.102  0.00  0.00    -0.251 N 
ATOM     26  C   UNL     1     -11.728  10.765  17.198  0.00  0.00    +0.405 C 
ATOM     45  H   UNL     1     -11.946  12.763  17.583  0.00  0.00    +0.158 HD
BRANCH  10  28
ATOM     28  C   UNL     1     -10.242  12.634  16.416  0.00  0.00    +0.037 A 
ATOM     31  C   UNL     1     -10.406  13.169  15.138  0.00  0.00    +0.027 A 
ATOM     32  C   UNL     1      -8.983  12.634  17.016  0.00  0.00    +0.027 A 
ATOM     36  C   UNL     1      -9.311  13.705  14.460  0.00  0.00    +0.047 A 
ATOM     37  C   UNL     1      -7.887  13.169  16.339  0.00  0.00    +0.047 A 
ATOM     39  C   UNL     1      -8.052  13.705  15.061  0.00  0.00    +0.120 A 
BRANCH  39   8
ATOM      8  O   UNL     1      -6.982  14.225  14.398  0.00  0.00    -0.495 OA
ATOM     41  C   UNL     1      -5.753  14.313  15.118  0.00  0.00    +0.277 C 
ENDBRANCH  39   8
ENDBRANCH  10  28
ENDBRANCH   1  26
ENDBRANCH  17   1
BRANCH  13  22
ATOM     22  C   UNL     1     -13.339  11.011  20.761  0.00  0.00    +0.166 C 
BRANCH  22   3
ATOM      3  O   UNL     1     -12.415  12.066  20.628  0.00  0.00    -0.394 OA
ATOM     43  H   UNL     1     -12.011  12.209  21.501  0.00  0.00    +0.209 HD
ENDBRANCH  22   3
ENDBRANCH  13  22
BRANCH  14  24
ATOM     24  C   UNL     1     -14.902   6.705  23.147  0.00  0.00    +0.102 C 
BRANCH  24  25
ATOM      4  O   UNL     1     -17.170   6.973  23.951  0.00  0.00    -0.276 OA
ATOM      9  N   UNL     1     -16.270   4.843  23.712  0.00  0.00    -0.311 N 
ATOM     25  C   UNL     1     -16.241   6.229  23.647  0.00  0.00    +0.214 C 
ATOM     44  H   UNL     1     -15.453   4.309  23.431  0.00  0.00    +0.149 HD
BRANCH   9  27
ATOM     27  C   UNL     1     -17.426   4.098  24.158  0.00  0.00    +0.139 C 
BRANCH  27  29
ATOM      6  O   UNL     1     -15.528   2.911  28.568  0.00  0.00    -0.453 OA
ATOM      7  O   UNL     1     -16.083   0.580  28.311  0.00  0.00    -0.453 OA
ATOM     29  C   UNL     1     -17.082   3.128  25.251  0.00  0.00    -0.027 A 
ATOM     30  C   UNL     1     -16.443   3.584  26.406  0.00  0.00    +0.054 A 
ATOM     33  C   UNL     1     -17.406   1.768  25.101  0.00  0.00    +0.009 A 
ATOM     34  C   UNL     1     -16.146   2.655  27.382  0.00  0.00    +0.167 A 
ATOM     35  C   UNL     1     -17.094   0.848  26.105  0.00  0.00    +0.050 A 
ATOM     38  C   UNL     1     -16.462   1.323  27.235  0.00  0.00    +0.166 A 
ATOM     40  C   UNL     1     -15.492   1.592  29.150  0.00  0.00    +0.466 C 
ENDBRANCH  27  29
ENDBRANCH   9  27
ENDBRANCH  24  25
ENDBRANCH  14  24
TORSDOF 11
ENDMDL
MODEL 6
REMARK VINA RESULT:      -6.8     21.961     23.238
REMARK  Name = 23786327
REMARK  14 active torsions:
REMARK  status: ('A' for Active; 'I' for Inactive)
REMARK    1  A    between atoms: O_1  and  C_17
REMARK    2  A    between atoms: O_1  and  C_26
REMARK    3  A    between atoms: O_2  and  C_18
REMARK    4  A    between atoms: O_3  and  C_22
REMARK    5  A    between atoms: O_8  and  C_39
REMARK    6  A    between atoms: O_8  and  C_41
REMARK    7  A    between atoms: N_9  and  C_27
REMARK    8  A    between atoms: N_10  and  C_28
REMARK    9  A    between atoms: C_11  and  C_21
REMARK   10  A    between atoms: C_13  and  C_22
REMARK   11  A    between atoms: C_13  and  C_23
REMARK   12  A    between atoms: C_14  and  C_24
REMARK   13  A    between atoms: C_24  and  C_25
REMARK   14  A    between atoms: C_27  and  C_29
REMARK                            x       y       z     vdW  Elec       q    Type
REMARK                         _______ _______ _______ _____ _____    ______ ____
ROOT
ATOM     11  C   UNL     1     -16.299   6.235  22.036  0.00  0.00    -0.023 C 
ATOM     12  C   UNL     1     -14.924   6.992  22.239  0.00  0.00    +0.007 C 
ATOM     13  C   UNL     1     -14.587   8.062  21.110  0.00  0.00    +0.031 C 
ATOM     14  C   UNL     1     -16.470   5.064  23.089  0.00  0.00    +0.032 C 
ATOM     15  C   UNL     1     -16.346   5.654  20.594  0.00  0.00    +0.011 C 
ATOM     16  C   UNL     1     -13.746   5.983  22.397  0.00  0.00    +0.007 C 
ATOM     17  C   UNL     1     -14.740   7.418  19.701  0.00  0.00    +0.186 C 
ATOM     18  C   UNL     1     -15.258   4.113  23.106  0.00  0.00    +0.119 C 
ATOM     19  C   UNL     1     -16.065   6.683  19.500  0.00  0.00    +0.046 C 
ATOM     20  C   UNL     1     -13.979   4.869  23.406  0.00  0.00    +0.032 C 
ATOM     21  C   UNL     1     -17.526   7.170  22.213  0.00  0.00    +0.012 C 
ATOM     23  C   UNL     1     -13.128   8.581  21.263  0.00  0.00    +0.017 C 
ENDROOT
BRANCH  18   2
ATOM      2  O   UNL     1     -15.418   3.087  24.083  0.00  0.00    -0.391 OA
ATOM     42  H   UNL     1     -16.305   2.705  23.969  0.00  0.00    +0.210 HD
ENDBRANCH  18   2
BRANCH  17   1
ATOM      1  O   UNL     1     -14.633   8.394  18.666  0.00  0.00    -0.446 OA
BRANCH   1  26
ATOM      5  O   UNL     1     -12.572   7.714  17.946  0.00  0.00    -0.226 OA
ATOM     10  N   UNL     1     -13.202   9.968  17.967  0.00  0.00    -0.251 N 
ATOM     26  C   UNL     1     -13.375   8.613  18.164  0.00  0.00    +0.405 C 
ATOM     45  H   UNL     1     -13.990  10.564  18.209  0.00  0.00    +0.158 HD
BRANCH  10  28
ATOM     28  C   UNL     1     -12.060  10.636  17.467  0.00  0.00    +0.037 A 
ATOM     31  C   UNL     1     -11.785  10.617  16.100  0.00  0.00    +0.027 A 
ATOM     32  C   UNL     1     -11.209  11.313  18.341  0.00  0.00    +0.027 A 
ATOM     36  C   UNL     1     -10.658  11.275  15.606  0.00  0.00    +0.047 A 
ATOM     37  C   UNL     1     -10.082  11.971  17.848  0.00  0.00    +0.047 A 
ATOM     39  C   UNL     1      -9.807  11.952  16.480  0.00  0.00    +0.120 A 
BRANCH  39   8
ATOM      8  O   UNL     1      -8.706  12.592  15.999  0.00  0.00    -0.495 OA
ATOM     41  C   UNL     1      -8.086  13.550  16.854  0.00  0.00    +0.277 C 
ENDBRANCH  39   8
ENDBRANCH  10  28
ENDBRANCH   1  26
ENDBRANCH  17   1
BRANCH  13  22
ATOM     22  C   UNL     1     -15.461   9.333  21.240  0.00  0.00    +0.166 C 
BRANCH  22   3
ATOM      3  O   UNL     1     -14.707  10.421  20.760  0.00  0.00    -0.394 OA
ATOM     43  H   UNL     1     -15.336  11.086  20.430  0.00  0.00    +0.209 HD
ENDBRANCH  22   3
ENDBRANCH  13  22
BRANCH  14  24
ATOM     24  C   UNL     1     -16.784   5.567  24.518  0.00  0.00    +0.102 C 
BRANCH  24  25
ATOM      4  O   UNL     1     -18.713   4.168  24.942  0.00  0.00    -0.276 OA
ATOM      9  N   UNL     1     -16.934   4.170  26.437  0.00  0.00    -0.311 N 
ATOM     25  C   UNL     1     -17.605   4.567  25.290  0.00  0.00    +0.214 C 
ATOM     44  H   UNL     1     -16.013   4.550  26.639  0.00  0.00    +0.149 HD
BRANCH   9  27
ATOM     27  C   UNL     1     -17.475   3.217  27.379  0.00  0.00    +0.139 C 
BRANCH  27  29
ATOM      6  O   UNL     1     -14.949  -0.477  29.483  0.00  0.00    -0.453 OA
ATOM      7  O   UNL     1     -13.571   1.034  30.758  0.00  0.00    -0.453 OA
ATOM     29  C   UNL     1     -16.419   2.667  28.293  0.00  0.00    -0.027 A 
ATOM     30  C   UNL     1     -16.244   1.285  28.397  0.00  0.00    +0.054 A 
ATOM     33  C   UNL     1     -15.615   3.549  29.036  0.00  0.00    +0.009 A 
ATOM     34  C   UNL     1     -15.262   0.827  29.252  0.00  0.00    +0.167 A 
ATOM     35  C   UNL     1     -14.628   3.058  29.894  0.00  0.00    +0.050 A 
ATOM     38  C   UNL     1     -14.476   1.690  29.980  0.00  0.00    +0.166 A 
ATOM     40  C   UNL     1     -13.878  -0.338  30.438  0.00  0.00    +0.466 C 
ENDBRANCH  27  29
ENDBRANCH   9  27
ENDBRANCH  24  25
ENDBRANCH  14  24
TORSDOF 11
ENDMDL
MODEL 7
REMARK VINA RESULT:      -6.7     25.470     30.035
REMARK  Name = 23786327
REMARK  14 active torsions:
REMARK  status: ('A' for Active; 'I' for Inactive)
REMARK    1  A    between atoms: O_1  and  C_17
REMARK    2  A    between atoms: O_1  and  C_26
REMARK    3  A    between atoms: O_2  and  C_18
REMARK    4  A    between atoms: O_3  and  C_22
REMARK    5  A    between atoms: O_8  and  C_39
REMARK    6  A    between atoms: O_8  and  C_41
REMARK    7  A    between atoms: N_9  and  C_27
REMARK    8  A    between atoms: N_10  and  C_28
REMARK    9  A    between atoms: C_11  and  C_21
REMARK   10  A    between atoms: C_13  and  C_22
REMARK   11  A    between atoms: C_13  and  C_23
REMARK   12  A    between atoms: C_14  and  C_24
REMARK   13  A    between atoms: C_24  and  C_25
REMARK   14  A    between atoms: C_27  and  C_29
REMARK                            x       y       z     vdW  Elec       q    Type
REMARK                         _______ _______ _______ _____ _____    ______ ____
ROOT
ATOM     11  C   UNL     1      13.442   5.904  -0.540  0.00  0.00    -0.023 C 
ATOM     12  C   UNL     1      12.559   4.710   0.006  0.00  0.00    +0.007 C 
ATOM     13  C   UNL     1      11.102   5.133   0.488  0.00  0.00    +0.031 C 
ATOM     14  C   UNL     1      14.929   5.438  -0.820  0.00  0.00    +0.032 C 
ATOM     15  C   UNL     1      13.442   7.052   0.510  0.00  0.00    +0.011 C 
ATOM     16  C   UNL     1      13.300   3.937   1.139  0.00  0.00    +0.007 C 
ATOM     17  C   UNL     1      11.193   6.338   1.468  0.00  0.00    +0.186 C 
ATOM     18  C   UNL     1      15.559   4.734   0.397  0.00  0.00    +0.119 C 
ATOM     19  C   UNL     1      12.046   7.494   0.947  0.00  0.00    +0.046 C 
ATOM     20  C   UNL     1      14.732   3.536   0.819  0.00  0.00    +0.032 C 
ATOM     21  C   UNL     1      12.902   6.482  -1.876  0.00  0.00    +0.012 C 
ATOM     23  C   UNL     1      10.400   3.951   1.217  0.00  0.00    +0.017 C 
ENDROOT
BRANCH  18   2
ATOM      2  O   UNL     1      16.884   4.293   0.113  0.00  0.00    -0.391 OA
ATOM     42  H   UNL     1      17.001   4.309  -0.852  0.00  0.00    +0.210 HD
ENDBRANCH  18   2
BRANCH  17   1
ATOM      1  O   UNL     1       9.901   6.864   1.770  0.00  0.00    -0.446 OA
BRANCH   1  26
ATOM      5  O   UNL     1       8.641   7.618   3.523  0.00  0.00    -0.226 OA
ATOM     10  N   UNL     1      10.450   6.163   3.825  0.00  0.00    -0.251 N 
ATOM     26  C   UNL     1       9.573   6.945   3.099  0.00  0.00    +0.405 C 
ATOM     45  H   UNL     1      11.164   5.674   3.291  0.00  0.00    +0.158 HD
BRANCH  10  28
ATOM     28  C   UNL     1      10.479   5.956   5.224  0.00  0.00    +0.037 A 
ATOM     31  C   UNL     1       9.627   5.018   5.807  0.00  0.00    +0.027 A 
ATOM     32  C   UNL     1      11.359   6.689   6.020  0.00  0.00    +0.027 A 
ATOM     36  C   UNL     1       9.654   4.814   7.186  0.00  0.00    +0.047 A 
ATOM     37  C   UNL     1      11.387   6.486   7.399  0.00  0.00    +0.047 A 
ATOM     39  C   UNL     1      10.534   5.547   7.982  0.00  0.00    +0.120 A 
BRANCH  39   8
ATOM      8  O   UNL     1      10.559   5.350   9.329  0.00  0.00    -0.495 OA
ATOM     41  C   UNL     1       9.456   4.652   9.904  0.00  0.00    +0.277 C 
ENDBRANCH  39   8
ENDBRANCH  10  28
ENDBRANCH   1  26
ENDBRANCH  17   1
BRANCH  13  22
ATOM     22  C   UNL     1      10.170   5.454  -0.706  0.00  0.00    +0.166 C 
BRANCH  22   3
ATOM      3  O   UNL     1      10.048   4.284  -1.480  0.00  0.00    -0.394 OA
ATOM     43  H   UNL     1       9.098   4.112  -1.598  0.00  0.00    +0.209 HD
ENDBRANCH  22   3
ENDBRANCH  13  22
BRANCH  14  24
ATOM     24  C   UNL     1      15.066   4.558  -2.085  0.00  0.00    +0.102 C 
BRANCH  24  25
ATOM      4  O   UNL     1      16.120   6.033  -3.690  0.00  0.00    -0.276 OA
ATOM      9  N   UNL     1      17.283   4.196  -2.869  0.00  0.00    -0.311 N 
ATOM     25  C   UNL     1      16.184   5.036  -2.975  0.00  0.00    +0.214 C 
ATOM     44  H   UNL     1      17.247   3.397  -2.242  0.00  0.00    +0.149 HD
BRANCH   9  27
ATOM     27  C   UNL     1      18.508   4.402  -3.607  0.00  0.00    +0.139 C 
BRANCH  27  29
ATOM      6  O   UNL     1      22.270   2.532  -0.997  0.00  0.00    -0.453 OA
ATOM      7  O   UNL     1      22.964   4.705  -0.219  0.00  0.00    -0.453 OA
ATOM     29  C   UNL     1      19.698   4.520  -2.699  0.00  0.00    -0.027 A 
ATOM     30  C   UNL     1      20.392   3.371  -2.313  0.00  0.00    +0.054 A 
ATOM     33  C   UNL     1      20.103   5.788  -2.246  0.00  0.00    +0.009 A 
ATOM     34  C   UNL     1      21.478   3.530  -1.476  0.00  0.00    +0.167 A 
ATOM     35  C   UNL     1      21.207   5.920  -1.400  0.00  0.00    +0.050 A 
ATOM     38  C   UNL     1      21.874   4.770  -1.032  0.00  0.00    +0.166 A 
ATOM     40  C   UNL     1      23.209   3.283  -0.201  0.00  0.00    +0.466 C 
ENDBRANCH  27  29
ENDBRANCH   9  27
ENDBRANCH  24  25
ENDBRANCH  14  24
TORSDOF 11
ENDMDL
MODEL 8
REMARK VINA RESULT:      -6.6     20.004     22.953
REMARK  Name = 23786327
REMARK  14 active torsions:
REMARK  status: ('A' for Active; 'I' for Inactive)
REMARK    1  A    between atoms: O_1  and  C_17
REMARK    2  A    between atoms: O_1  and  C_26
REMARK    3  A    between atoms: O_2  and  C_18
REMARK    4  A    between atoms: O_3  and  C_22
REMARK    5  A    between atoms: O_8  and  C_39
REMARK    6  A    between atoms: O_8  and  C_41
REMARK    7  A    between atoms: N_9  and  C_27
REMARK    8  A    between atoms: N_10  and  C_28
REMARK    9  A    between atoms: C_11  and  C_21
REMARK   10  A    between atoms: C_13  and  C_22
REMARK   11  A    between atoms: C_13  and  C_23
REMARK   12  A    between atoms: C_14  and  C_24
REMARK   13  A    between atoms: C_24  and  C_25
REMARK   14  A    between atoms: C_27  and  C_29
REMARK                            x       y       z     vdW  Elec       q    Type
REMARK                         _______ _______ _______ _____ _____    ______ ____
ROOT
ATOM     11  C   UNL     1     -16.158   7.062  22.418  0.00  0.00    -0.023 C 
ATOM     12  C   UNL     1     -14.647   7.531  22.460  0.00  0.00    +0.007 C 
ATOM     13  C   UNL     1     -14.374   8.942  21.777  0.00  0.00    +0.031 C 
ATOM     14  C   UNL     1     -16.313   5.577  22.946  0.00  0.00    +0.032 C 
ATOM     15  C   UNL     1     -16.673   7.154  20.954  0.00  0.00    +0.011 C 
ATOM     16  C   UNL     1     -13.706   6.445  21.855  0.00  0.00    +0.007 C 
ATOM     17  C   UNL     1     -14.995   8.973  20.350  0.00  0.00    +0.186 C 
ATOM     18  C   UNL     1     -15.362   4.600  22.229  0.00  0.00    +0.119 C 
ATOM     19  C   UNL     1     -16.454   8.519  20.302  0.00  0.00    +0.046 C 
ATOM     20  C   UNL     1     -13.919   5.036  22.385  0.00  0.00    +0.032 C 
ATOM     21  C   UNL     1     -17.081   7.943  23.303  0.00  0.00    +0.012 C 
ATOM     23  C   UNL     1     -12.846   9.209  21.659  0.00  0.00    +0.017 C 
ENDROOT
BRANCH  18   2
ATOM      2  O   UNL     1     -15.494   3.277  22.742  0.00  0.00    -0.391 OA
ATOM     42  H   UNL     1     -16.141   3.303  23.468  0.00  0.00    +0.210 HD
ENDBRANCH  18   2
BRANCH  17   1
ATOM      1  O   UNL     1     -14.938  10.281  19.783  0.00  0.00    -0.446 OA
BRANCH   1  26
ATOM      5  O   UNL     1     -14.356  11.386  17.867  0.00  0.00    -0.226 OA
ATOM     10  N   UNL     1     -13.551   9.244  18.364  0.00  0.00    -0.251 N 
ATOM     26  C   UNL     1     -14.278  10.397  18.586  0.00  0.00    +0.405 C 
ATOM     45  H   UNL     1     -13.612   8.527  19.082  0.00  0.00    +0.158 HD
BRANCH  10  28
ATOM     28  C   UNL     1     -12.727   8.935  17.257  0.00  0.00    +0.037 A 
ATOM     31  C   UNL     1     -13.288   8.795  15.988  0.00  0.00    +0.027 A 
ATOM     32  C   UNL     1     -11.353   8.769  17.435  0.00  0.00    +0.027 A 
ATOM     36  C   UNL     1     -12.475   8.489  14.895  0.00  0.00    +0.047 A 
ATOM     37  C   UNL     1     -10.540   8.464  16.343  0.00  0.00    +0.047 A 
ATOM     39  C   UNL     1     -11.101   8.324  15.073  0.00  0.00    +0.120 A 
BRANCH  39   8
ATOM      8  O   UNL     1     -10.309   8.023  14.008  0.00  0.00    -0.495 OA
ATOM     41  C   UNL     1     -10.683   6.895  13.218  0.00  0.00    +0.277 C 
ENDBRANCH  39   8
ENDBRANCH  10  28
ENDBRANCH   1  26
ENDBRANCH  17   1
BRANCH  13  22
ATOM     22  C   UNL     1     -14.903  10.113  22.640  0.00  0.00    +0.166 C 
BRANCH  22   3
ATOM      3  O   UNL     1     -14.155  11.260  22.310  0.00  0.00    -0.394 OA
ATOM     43  H   UNL     1     -14.207  11.868  23.066  0.00  0.00    +0.209 HD
ENDBRANCH  22   3
ENDBRANCH  13  22
BRANCH  14  24
ATOM     24  C   UNL     1     -16.160   5.454  24.481  0.00  0.00    +0.102 C 
BRANCH  24  25
ATOM      4  O   UNL     1     -17.992   3.872  24.420  0.00  0.00    -0.276 OA
ATOM      9  N   UNL     1     -16.746   4.126  26.366  0.00  0.00    -0.311 N 
ATOM     25  C   UNL     1     -17.079   4.403  25.047  0.00  0.00    +0.214 C 
ATOM     44  H   UNL     1     -15.967   4.611  26.800  0.00  0.00    +0.149 HD
BRANCH   9  27
ATOM     27  C   UNL     1     -17.454   3.158  27.172  0.00  0.00    +0.139 C 
BRANCH  27  29
ATOM      6  O   UNL     1     -16.070  -0.436  30.274  0.00  0.00    -0.453 OA
ATOM      7  O   UNL     1     -14.284   0.890  31.200  0.00  0.00    -0.453 OA
ATOM     29  C   UNL     1     -16.585   2.582  28.251  0.00  0.00    -0.027 A 
ATOM     30  C   UNL     1     -16.818   1.283  28.710  0.00  0.00    +0.054 A 
ATOM     33  C   UNL     1     -15.542   3.355  28.791  0.00  0.00    +0.009 A 
ATOM     34  C   UNL     1     -15.994   0.798  29.704  0.00  0.00    +0.167 A 
ATOM     35  C   UNL     1     -14.722   2.839  29.797  0.00  0.00    +0.050 A 
ATOM     38  C   UNL     1     -14.974   1.555  30.234  0.00  0.00    +0.166 A 
ATOM     40  C   UNL     1     -14.984  -0.371  31.220  0.00  0.00    +0.466 C 
ENDBRANCH  27  29
ENDBRANCH   9  27
ENDBRANCH  24  25
ENDBRANCH  14  24
TORSDOF 11
ENDMDL
MODEL 9
REMARK VINA RESULT:      -6.6     24.602     29.041
REMARK  Name = 23786327
REMARK  14 active torsions:
REMARK  status: ('A' for Active; 'I' for Inactive)
REMARK    1  A    between atoms: O_1  and  C_17
REMARK    2  A    between atoms: O_1  and  C_26
REMARK    3  A    between atoms: O_2  and  C_18
REMARK    4  A    between atoms: O_3  and  C_22
REMARK    5  A    between atoms: O_8  and  C_39
REMARK    6  A    between atoms: O_8  and  C_41
REMARK    7  A    between atoms: N_9  and  C_27
REMARK    8  A    between atoms: N_10  and  C_28
REMARK    9  A    between atoms: C_11  and  C_21
REMARK   10  A    between atoms: C_13  and  C_22
REMARK   11  A    between atoms: C_13  and  C_23
REMARK   12  A    between atoms: C_14  and  C_24
REMARK   13  A    between atoms: C_24  and  C_25
REMARK   14  A    between atoms: C_27  and  C_29
REMARK                            x       y       z     vdW  Elec       q    Type
REMARK                         _______ _______ _______ _____ _____    ______ ____
ROOT
ATOM     11  C   UNL     1      10.511   6.707   2.359  0.00  0.00    -0.023 C 
ATOM     12  C   UNL     1       9.567   6.200   3.523  0.00  0.00    +0.007 C 
ATOM     13  C   UNL     1       9.053   7.345   4.502  0.00  0.00    +0.031 C 
ATOM     14  C   UNL     1      11.126   5.493   1.549  0.00  0.00    +0.032 C 
ATOM     15  C   UNL     1      11.656   7.560   2.975  0.00  0.00    +0.011 C 
ATOM     16  C   UNL     1      10.244   5.056   4.337  0.00  0.00    +0.007 C 
ATOM     17  C   UNL     1      10.254   8.198   5.003  0.00  0.00    +0.186 C 
ATOM     18  C   UNL     1      11.808   4.463   2.470  0.00  0.00    +0.119 C 
ATOM     19  C   UNL     1      11.171   8.689   3.883  0.00  0.00    +0.046 C 
ATOM     20  C   UNL     1      10.836   3.931   3.503  0.00  0.00    +0.032 C 
ATOM     21  C   UNL     1       9.762   7.592   1.326  0.00  0.00    +0.012 C 
ATOM     23  C   UNL     1       8.331   6.730   5.735  0.00  0.00    +0.017 C 
ENDROOT
BRANCH  18   2
ATOM      2  O   UNL     1      12.325   3.364   1.725  0.00  0.00    -0.391 OA
ATOM     42  H   UNL     1      11.570   2.847   1.395  0.00  0.00    +0.210 HD
ENDBRANCH  18   2
BRANCH  17   1
ATOM      1  O   UNL     1       9.813   9.347   5.727  0.00  0.00    -0.446 OA
BRANCH   1  26
ATOM      5  O   UNL     1      10.651   8.446   7.654  0.00  0.00    -0.226 OA
ATOM     10  N   UNL     1       9.772  10.614   7.573  0.00  0.00    -0.251 N 
ATOM     26  C   UNL     1      10.132   9.384   7.060  0.00  0.00    +0.405 C 
ATOM     45  H   UNL     1       9.351  11.269   6.918  0.00  0.00    +0.158 HD
BRANCH  10  28
ATOM     28  C   UNL     1       9.919  11.082   8.900  0.00  0.00    +0.037 A 
ATOM     31  C   UNL     1       8.797  11.227   9.715  0.00  0.00    +0.027 A 
ATOM     32  C   UNL     1      11.185  11.397   9.392  0.00  0.00    +0.027 A 
ATOM     36  C   UNL     1       8.940  11.689  11.023  0.00  0.00    +0.047 A 
ATOM     37  C   UNL     1      11.329  11.859  10.700  0.00  0.00    +0.047 A 
ATOM     39  C   UNL     1      10.207  12.005  11.516  0.00  0.00    +0.120 A 
BRANCH  39   8
ATOM      8  O   UNL     1      10.347  12.457  12.792  0.00  0.00    -0.495 OA
ATOM     41  C   UNL     1       9.152  12.776  13.503  0.00  0.00    +0.277 C 
ENDBRANCH  39   8
ENDBRANCH  10  28
ENDBRANCH   1  26
ENDBRANCH  17   1
BRANCH  13  22
ATOM     22  C   UNL     1       7.976   8.236   3.834  0.00  0.00    +0.166 C 
BRANCH  22   3
ATOM      3  O   UNL     1       7.241   8.860   4.860  0.00  0.00    -0.394 OA
ATOM     43  H   UNL     1       7.562   9.775   4.930  0.00  0.00    +0.209 HD
ENDBRANCH  22   3
ENDBRANCH  13  22
BRANCH  14  24
ATOM     24  C   UNL     1      10.104   4.797   0.621  0.00  0.00    +0.102 C 
BRANCH  24  25
ATOM      4  O   UNL     1       9.831   4.547  -1.772  0.00  0.00    -0.276 OA
ATOM      9  N   UNL     1      11.889   5.188  -0.902  0.00  0.00    -0.311 N 
ATOM     25  C   UNL     1      10.554   4.820  -0.817  0.00  0.00    +0.214 C 
ATOM     44  H   UNL     1      12.406   5.403  -0.055  0.00  0.00    +0.149 HD
BRANCH   9  27
ATOM     27  C   UNL     1      12.599   5.295  -2.156  0.00  0.00    +0.139 C 
BRANCH  27  29
ATOM      6  O   UNL     1      17.238   4.965  -3.837  0.00  0.00    -0.453 OA
ATOM      7  O   UNL     1      18.079   4.197  -1.713  0.00  0.00    -0.453 OA
ATOM     29  C   UNL     1      14.062   4.993  -2.001  0.00  0.00    -0.027 A 
ATOM     30  C   UNL     1      14.922   5.158  -3.089  0.00  0.00    +0.054 A 
ATOM     33  C   UNL     1      14.552   4.545  -0.762  0.00  0.00    +0.009 A 
ATOM     34  C   UNL     1      16.257   4.866  -2.899  0.00  0.00    +0.167 A 
ATOM     35  C   UNL     1      15.909   4.257  -0.596  0.00  0.00    +0.050 A 
ATOM     38  C   UNL     1      16.737   4.427  -1.686  0.00  0.00    +0.166 A 
ATOM     40  C   UNL     1      18.389   4.540  -3.079  0.00  0.00    +0.466 C 
ENDBRANCH  27  29
ENDBRANCH   9  27
ENDBRANCH  24  25
ENDBRANCH  14  24
TORSDOF 11
ENDMDL
MODEL 10
REMARK VINA RESULT:      -6.6     29.605     32.595
REMARK  Name = 23786327
REMARK  14 active torsions:
REMARK  status: ('A' for Active; 'I' for Inactive)
REMARK    1  A    between atoms: O_1  and  C_17
REMARK    2  A    between atoms: O_1  and  C_26
REMARK    3  A    between atoms: O_2  and  C_18
REMARK    4  A    between atoms: O_3  and  C_22
REMARK    5  A    between atoms: O_8  and  C_39
REMARK    6  A    between atoms: O_8  and  C_41
REMARK    7  A    between atoms: N_9  and  C_27
REMARK    8  A    between atoms: N_10  and  C_28
REMARK    9  A    between atoms: C_11  and  C_21
REMARK   10  A    between atoms: C_13  and  C_22
REMARK   11  A    between atoms: C_13  and  C_23
REMARK   12  A    between atoms: C_14  and  C_24
REMARK   13  A    between atoms: C_24  and  C_25
REMARK   14  A    between atoms: C_27  and  C_29
REMARK                            x       y       z     vdW  Elec       q    Type
REMARK                         _______ _______ _______ _____ _____    ______ ____
ROOT
ATOM     11  C   UNL     1      23.412   2.617  23.473  0.00  0.00    -0.023 C 
ATOM     12  C   UNL     1      24.478   3.786  23.477  0.00  0.00    +0.007 C 
ATOM     13  C   UNL     1      23.854   5.248  23.410  0.00  0.00    +0.031 C 
ATOM     14  C   UNL     1      24.112   1.201  23.351  0.00  0.00    +0.032 C 
ATOM     15  C   UNL     1      22.441   2.825  22.276  0.00  0.00    +0.011 C 
ATOM     16  C   UNL     1      25.527   3.593  22.340  0.00  0.00    +0.007 C 
ATOM     17  C   UNL     1      22.835   5.341  22.238  0.00  0.00    +0.186 C 
ATOM     18  C   UNL     1      25.084   1.132  22.158  0.00  0.00    +0.119 C 
ATOM     19  C   UNL     1      21.803   4.213  22.227  0.00  0.00    +0.046 C 
ATOM     20  C   UNL     1      26.147   2.207  22.261  0.00  0.00    +0.032 C 
ATOM     21  C   UNL     1      22.563   2.578  24.773  0.00  0.00    +0.012 C 
ATOM     23  C   UNL     1      24.968   6.311  23.186  0.00  0.00    +0.017 C 
ENDROOT
BRANCH  18   2
ATOM      2  O   UNL     1      25.728  -0.138  22.087  0.00  0.00    -0.391 OA
ATOM     42  H   UNL     1      25.738  -0.516  22.983  0.00  0.00    +0.210 HD
ENDBRANCH  18   2
BRANCH  17   1
ATOM      1  O   UNL     1      22.116   6.574  22.266  0.00  0.00    -0.446 OA
BRANCH   1  26
ATOM      5  O   UNL     1      21.578   7.087  20.104  0.00  0.00    -0.226 OA
ATOM     10  N   UNL     1      19.947   6.602  21.711  0.00  0.00    -0.251 N 
ATOM     26  C   UNL     1      21.232   6.785  21.240  0.00  0.00    +0.405 C 
ATOM     45  H   UNL     1      19.859   6.352  22.693  0.00  0.00    +0.158 HD
BRANCH  10  28
ATOM     28  C   UNL     1      18.732   6.719  20.996  0.00  0.00    +0.037 A 
ATOM     31  C   UNL     1      17.817   7.715  21.335  0.00  0.00    +0.027 A 
ATOM     32  C   UNL     1      18.450   5.838  19.952  0.00  0.00    +0.027 A 
ATOM     36  C   UNL     1      16.618   7.830  20.631  0.00  0.00    +0.047 A 
ATOM     37  C   UNL     1      17.252   5.952  19.248  0.00  0.00    +0.047 A 
ATOM     39  C   UNL     1      16.336   6.949  19.587  0.00  0.00    +0.120 A 
BRANCH  39   8
ATOM      8  O   UNL     1      15.165   7.059  18.901  0.00  0.00    -0.495 OA
ATOM     41  C   UNL     1      13.959   6.995  19.661  0.00  0.00    +0.277 C 
ENDBRANCH  39   8
ENDBRANCH  10  28
ENDBRANCH   1  26
ENDBRANCH  17   1
BRANCH  13  22
ATOM     22  C   UNL     1      23.199   5.658  24.753  0.00  0.00    +0.166 C 
BRANCH  22   3
ATOM      3  O   UNL     1      23.102   7.063  24.769  0.00  0.00    -0.394 OA
ATOM     43  H   UNL     1      23.708   7.387  25.458  0.00  0.00    +0.209 HD
ENDBRANCH  22   3
ENDBRANCH  13  22
BRANCH  14  24
ATOM     24  C   UNL     1      24.820   0.755  24.653  0.00  0.00    +0.102 C 
BRANCH  24  25
ATOM      4  O   UNL     1      25.178  -1.623  24.930  0.00  0.00    -0.276 OA
ATOM      9  N   UNL     1      23.138  -0.682  25.529  0.00  0.00    -0.311 N 
ATOM     25  C   UNL     1      24.436  -0.650  25.039  0.00  0.00    +0.214 C 
ATOM     44  H   UNL     1      22.602   0.179  25.589  0.00  0.00    +0.149 HD
BRANCH   9  27
ATOM     27  C   UNL     1      22.494  -1.895  25.977  0.00  0.00    +0.139 C 
BRANCH  27  29
ATOM      6  O   UNL     1      18.668  -4.373  24.059  0.00  0.00    -0.453 OA
ATOM      7  O   UNL     1      17.248  -2.425  24.072  0.00  0.00    -0.453 OA
ATOM     29  C   UNL     1      21.083  -2.002  25.476  0.00  0.00    -0.027 A 
ATOM     30  C   UNL     1      20.605  -3.227  25.005  0.00  0.00    +0.054 A 
ATOM     33  C   UNL     1      20.255  -0.865  25.484  0.00  0.00    +0.009 A 
ATOM     34  C   UNL     1      19.303  -3.274  24.552  0.00  0.00    +0.167 A 
ATOM     35  C   UNL     1      18.939  -0.941  25.020  0.00  0.00    +0.050 A 
ATOM     38  C   UNL     1      18.492  -2.162  24.559  0.00  0.00    +0.166 A 
ATOM     40  C   UNL     1      17.368  -3.828  23.757  0.00  0.00    +0.466 C 
ENDBRANCH  27  29
ENDBRANCH   9  27
ENDBRANCH  24  25
ENDBRANCH  14  24
TORSDOF 11
ENDMDL
