MODEL 1
REMARK VINA RESULT:      -6.9      0.000      0.000
REMARK  Name = 38029310
REMARK  13 active torsions:
REMARK  status: ('A' for Active; 'I' for Inactive)
REMARK    1  A    between atoms: S_1  and  N_6
REMARK    2  A    between atoms: S_1  and  C_22
REMARK    3  A    between atoms: N_6  and  C_16
REMARK    4  A    between atoms: N_7  and  C_23
REMARK    5  A    between atoms: C_9  and  C_13
REMARK    6  A    between atoms: C_10  and  C_16
REMARK    7  A    between atoms: C_12  and  C_17
REMARK    8  A    between atoms: C_13  and  C_18
REMARK    9  A    between atoms: C_13  and  C_19
REMARK   10  A    between atoms: C_14  and  C_20
REMARK   11  A    between atoms: C_17  and  C_21
REMARK   12  A    between atoms: C_23  and  C_25
REMARK   13  A    between atoms: C_32  and  C_33
REMARK                            x       y       z     vdW  Elec       q    Type
REMARK                         _______ _______ _______ _____ _____    ______ ____
ROOT
ATOM      9  C   UNL     1      -5.241 -10.524  10.863  0.00  0.00    +0.000 C 
ATOM     10  C   UNL     1      -4.651  -9.620   9.753  0.00  0.00    +0.030 C 
ATOM     11  C   UNL     1      -4.686 -10.120  12.237  0.00  0.00    +0.012 C 
ATOM     12  C   UNL     1      -3.149 -10.216  12.295  0.00  0.00    +0.023 C 
ATOM     14  C   UNL     1      -2.499  -9.575  11.086  0.00  0.00    -0.073 C 
ATOM     15  C   UNL     1      -3.189  -9.303   9.964  0.00  0.00    -0.023 C 
ATOM     20  C   UNL     1      -1.046  -9.209  11.213  0.00  0.00    +0.039 C 
ENDROOT
BRANCH   9  13
ATOM     13  C   UNL     1      -6.772 -10.470  10.886  0.00  0.00    -0.013 C 
ATOM     18  C   UNL     1      -7.343 -11.788  11.403  0.00  0.00    +0.007 C 
ATOM     19  C   UNL     1      -7.249  -9.302  11.742  0.00  0.00    +0.007 C 
ENDBRANCH   9  13
BRANCH  10  16
ATOM     16  C   UNL     1      -4.843 -10.247   8.367  0.00  0.00    +0.113 C 
BRANCH  16   6
ATOM      6  N   UNL     1      -5.427  -9.244   7.464  0.00  0.00    -0.189 NA
ATOM     34  H   UNL     1      -5.234  -8.268   7.721  0.00  0.00    +0.148 HD
BRANCH   6   1
ATOM      1  S   UNL     1      -6.929  -9.539   6.714  0.00  0.00    +0.065 S 
ATOM      4  O   UNL     1      -7.514 -10.744   7.272  0.00  0.00    -0.153 OA
ATOM      5  O   UNL     1      -6.779  -9.399   5.279  0.00  0.00    -0.153 OA
BRANCH   1  22
ATOM      2  S   UNL     1      -9.298  -7.851   6.351  0.00  0.00    -0.077 S 
ATOM     22  C   UNL     1      -7.887  -8.161   7.270  0.00  0.00    +0.142 A 
ATOM     24  C   UNL     1      -7.737  -7.267   8.307  0.00  0.00    +0.036 A 
ATOM     26  C   UNL     1      -8.796  -6.313   8.347  0.00  0.00    +0.010 A 
ATOM     27  C   UNL     1      -9.713  -6.516   7.341  0.00  0.00    +0.047 A 
ENDBRANCH   1  22
ENDBRANCH   6   1
ENDBRANCH  16   6
ENDBRANCH  10  16
BRANCH  12  17
ATOM     17  C   UNL     1      -2.692 -11.671  12.456  0.00  0.00    +0.103 C 
BRANCH  17  21
ATOM      3  O   UNL     1      -2.213 -13.166  14.297  0.00  0.00    -0.276 OA
ATOM      7  N   UNL     1      -2.386 -10.882  14.693  0.00  0.00    -0.311 N 
ATOM     21  C   UNL     1      -2.404 -12.019  13.899  0.00  0.00    +0.214 C 
ATOM     35  H   UNL     1      -2.552  -9.974  14.270  0.00  0.00    +0.149 HD
BRANCH   7  23
ATOM     23  C   UNL     1      -2.137 -10.916  16.115  0.00  0.00    +0.139 C 
BRANCH  23  25
ATOM     25  C   UNL     1      -3.412 -10.927  16.910  0.00  0.00    -0.030 A 
ATOM     28  C   UNL     1      -3.465 -11.592  18.134  0.00  0.00    +0.006 A 
ATOM     29  C   UNL     1      -4.543 -10.271  16.421  0.00  0.00    +0.006 A 
ATOM     30  C   UNL     1      -4.649 -11.601  18.871  0.00  0.00    +0.019 A 
ATOM     31  C   UNL     1      -5.727 -10.280  17.158  0.00  0.00    +0.019 A 
ATOM     32  C   UNL     1      -5.780 -10.945  18.383  0.00  0.00    +0.052 A 
BRANCH  32  33
ATOM      8  N   UNL     1      -7.978 -10.964  19.751  0.00  0.00    -0.191 NA
ATOM     33  C   UNL     1      -6.993 -10.955  19.138  0.00  0.00    +0.099 C 
ENDBRANCH  32  33
ENDBRANCH  23  25
ENDBRANCH   7  23
ENDBRANCH  17  21
ENDBRANCH  12  17
TORSDOF 10
ENDMDL
MODEL 2
REMARK VINA RESULT:      -6.8      4.277      7.585
REMARK  Name = 38029310
REMARK  13 active torsions:
REMARK  status: ('A' for Active; 'I' for Inactive)
REMARK    1  A    between atoms: S_1  and  N_6
REMARK    2  A    between atoms: S_1  and  C_22
REMARK    3  A    between atoms: N_6  and  C_16
REMARK    4  A    between atoms: N_7  and  C_23
REMARK    5  A    between atoms: C_9  and  C_13
REMARK    6  A    between atoms: C_10  and  C_16
REMARK    7  A    between atoms: C_12  and  C_17
REMARK    8  A    between atoms: C_13  and  C_18
REMARK    9  A    between atoms: C_13  and  C_19
REMARK   10  A    between atoms: C_14  and  C_20
REMARK   11  A    between atoms: C_17  and  C_21
REMARK   12  A    between atoms: C_23  and  C_25
REMARK   13  A    between atoms: C_32  and  C_33
REMARK                            x       y       z     vdW  Elec       q    Type
REMARK                         _______ _______ _______ _____ _____    ______ ____
ROOT
ATOM      9  C   UNL     1      -5.677 -10.573  15.277  0.00  0.00    +0.000 C 
ATOM     10  C   UNL     1      -6.519 -10.568  16.576  0.00  0.00    +0.030 C 
ATOM     11  C   UNL     1      -4.730 -11.781  15.256  0.00  0.00    +0.012 C 
ATOM     12  C   UNL     1      -3.769 -11.790  16.461  0.00  0.00    +0.023 C 
ATOM     14  C   UNL     1      -4.497 -11.523  17.762  0.00  0.00    -0.073 C 
ATOM     15  C   UNL     1      -5.731 -10.989  17.794  0.00  0.00    -0.023 C 
ATOM     20  C   UNL     1      -3.792 -11.927  19.028  0.00  0.00    +0.039 C 
ENDROOT
BRANCH   9  13
ATOM     13  C   UNL     1      -6.561 -10.584  14.026  0.00  0.00    -0.013 C 
ATOM     18  C   UNL     1      -6.020  -9.609  12.984  0.00  0.00    +0.007 C 
ATOM     19  C   UNL     1      -6.651 -11.994  13.452  0.00  0.00    +0.007 C 
ENDBRANCH   9  13
BRANCH  10  16
ATOM     16  C   UNL     1      -7.147  -9.192  16.825  0.00  0.00    +0.113 C 
BRANCH  16   6
ATOM      6  N   UNL     1      -8.213  -9.324  17.830  0.00  0.00    -0.189 NA
ATOM     34  H   UNL     1      -8.095 -10.110  18.482  0.00  0.00    +0.148 HD
BRANCH   6   1
ATOM      1  S   UNL     1      -9.819  -8.914  17.433  0.00  0.00    +0.065 S 
ATOM      4  O   UNL     1      -9.926  -7.472  17.303  0.00  0.00    -0.153 OA
ATOM      5  O   UNL     1     -10.724  -9.635  18.307  0.00  0.00    -0.153 OA
BRANCH   1  22
ATOM      2  S   UNL     1     -10.196 -11.318  15.800  0.00  0.00    -0.077 S 
ATOM     22  C   UNL     1      -9.984  -9.619  15.821  0.00  0.00    +0.142 A 
ATOM     24  C   UNL     1      -9.980  -9.082  14.552  0.00  0.00    +0.036 A 
ATOM     26  C   UNL     1     -10.153 -10.080  13.549  0.00  0.00    +0.010 A 
ATOM     27  C   UNL     1     -10.283 -11.339  14.089  0.00  0.00    +0.047 A 
ENDBRANCH   1  22
ENDBRANCH   6   1
ENDBRANCH  16   6
ENDBRANCH  10  16
BRANCH  12  17
ATOM     17  C   UNL     1      -2.621 -10.795  16.259  0.00  0.00    +0.103 C 
BRANCH  17  21
ATOM      3  O   UNL     1      -1.140 -12.024  14.793  0.00  0.00    -0.276 OA
ATOM      7  N   UNL     1      -2.104 -10.045  14.048  0.00  0.00    -0.311 N 
ATOM     21  C   UNL     1      -1.866 -11.050  14.974  0.00  0.00    +0.214 C 
ATOM     35  H   UNL     1      -2.725  -9.278  14.290  0.00  0.00    +0.149 HD
BRANCH   7  23
ATOM     23  C   UNL     1      -1.510 -10.028  12.732  0.00  0.00    +0.139 C 
BRANCH  23  25
ATOM     25  C   UNL     1      -2.509 -10.361  11.660  0.00  0.00    -0.030 A 
ATOM     28  C   UNL     1      -3.095 -11.625  11.623  0.00  0.00    +0.006 A 
ATOM     29  C   UNL     1      -2.849  -9.404  10.703  0.00  0.00    +0.006 A 
ATOM     30  C   UNL     1      -4.023 -11.933  10.628  0.00  0.00    +0.019 A 
ATOM     31  C   UNL     1      -3.776  -9.713   9.709  0.00  0.00    +0.019 A 
ATOM     32  C   UNL     1      -4.364 -10.977   9.671  0.00  0.00    +0.052 A 
BRANCH  32  33
ATOM      8  N   UNL     1      -6.086 -11.550   7.824  0.00  0.00    -0.191 NA
ATOM     33  C   UNL     1      -5.314 -11.293   8.651  0.00  0.00    +0.099 C 
ENDBRANCH  32  33
ENDBRANCH  23  25
ENDBRANCH   7  23
ENDBRANCH  17  21
ENDBRANCH  12  17
TORSDOF 10
ENDMDL
MODEL 3
REMARK VINA RESULT:      -6.8     27.519     30.234
REMARK  Name = 38029310
REMARK  13 active torsions:
REMARK  status: ('A' for Active; 'I' for Inactive)
REMARK    1  A    between atoms: S_1  and  N_6
REMARK    2  A    between atoms: S_1  and  C_22
REMARK    3  A    between atoms: N_6  and  C_16
REMARK    4  A    between atoms: N_7  and  C_23
REMARK    5  A    between atoms: C_9  and  C_13
REMARK    6  A    between atoms: C_10  and  C_16
REMARK    7  A    between atoms: C_12  and  C_17
REMARK    8  A    between atoms: C_13  and  C_18
REMARK    9  A    between atoms: C_13  and  C_19
REMARK   10  A    between atoms: C_14  and  C_20
REMARK   11  A    between atoms: C_17  and  C_21
REMARK   12  A    between atoms: C_23  and  C_25
REMARK   13  A    between atoms: C_32  and  C_33
REMARK                            x       y       z     vdW  Elec       q    Type
REMARK                         _______ _______ _______ _____ _____    ______ ____
ROOT
ATOM      9  C   UNL     1      12.371  11.184  23.433  0.00  0.00    +0.000 C 
ATOM     10  C   UNL     1      11.435  10.890  22.234  0.00  0.00    +0.030 C 
ATOM     11  C   UNL     1      13.471  12.173  23.024  0.00  0.00    +0.012 C 
ATOM     12  C   UNL     1      14.326  11.646  21.856  0.00  0.00    +0.023 C 
ATOM     14  C   UNL     1      13.468  11.089  20.738  0.00  0.00    -0.073 C 
ATOM     15  C   UNL     1      12.174  10.770  20.922  0.00  0.00    -0.023 C 
ATOM     20  C   UNL     1      14.119  10.949  19.390  0.00  0.00    +0.039 C 
ENDROOT
BRANCH   9  13
ATOM     13  C   UNL     1      11.598  11.733  24.635  0.00  0.00    -0.013 C 
ATOM     18  C   UNL     1      12.556  12.377  25.633  0.00  0.00    +0.007 C 
ATOM     19  C   UNL     1      10.543  12.734  24.177  0.00  0.00    +0.007 C 
ENDBRANCH   9  13
BRANCH  10  16
ATOM     16  C   UNL     1      10.609   9.621  22.473  0.00  0.00    +0.113 C 
BRANCH  16   6
ATOM      6  N   UNL     1      11.507   8.456  22.471  0.00  0.00    -0.189 NA
ATOM     34  H   UNL     1      12.444   8.634  22.854  0.00  0.00    +0.148 HD
BRANCH   6   1
ATOM      1  S   UNL     1      11.415   7.307  21.216  0.00  0.00    +0.065 S 
ATOM      4  O   UNL     1      10.543   7.808  20.171  0.00  0.00    -0.153 OA
ATOM      5  O   UNL     1      11.186   5.995  21.790  0.00  0.00    -0.153 OA
BRANCH   1  22
ATOM      2  S   UNL     1      13.196   7.315  18.887  0.00  0.00    -0.077 S 
ATOM     22  C   UNL     1      13.070   7.317  20.595  0.00  0.00    +0.142 A 
ATOM     24  C   UNL     1      14.305   7.328  21.205  0.00  0.00    +0.036 A 
ATOM     26  C   UNL     1      15.370   7.335  20.257  0.00  0.00    +0.010 A 
ATOM     27  C   UNL     1      14.906   7.328  18.960  0.00  0.00    +0.047 A 
ENDBRANCH   1  22
ENDBRANCH   6   1
ENDBRANCH  16   6
ENDBRANCH  10  16
BRANCH  12  17
ATOM     17  C   UNL     1      15.340  10.604  22.340  0.00  0.00    +0.103 C 
BRANCH  17  21
ATOM      3  O   UNL     1      17.055  11.951  21.293  0.00  0.00    -0.276 OA
ATOM      7  N   UNL     1      17.604   9.860  22.145  0.00  0.00    -0.311 N 
ATOM     21  C   UNL     1      16.742  10.908  21.860  0.00  0.00    +0.214 C 
ATOM     35  H   UNL     1      17.251   9.036  22.623  0.00  0.00    +0.149 HD
BRANCH   7  23
ATOM     23  C   UNL     1      19.006   9.875  21.798  0.00  0.00    +0.139 C 
BRANCH  23  25
ATOM     25  C   UNL     1      19.549   8.490  21.589  0.00  0.00    -0.030 A 
ATOM     28  C   UNL     1      20.882   8.211  21.886  0.00  0.00    +0.006 A 
ATOM     29  C   UNL     1      18.717   7.483  21.098  0.00  0.00    +0.006 A 
ATOM     30  C   UNL     1      21.385   6.925  21.692  0.00  0.00    +0.019 A 
ATOM     31  C   UNL     1      19.220   6.197  20.904  0.00  0.00    +0.019 A 
ATOM     32  C   UNL     1      20.554   5.917  21.201  0.00  0.00    +0.052 A 
BRANCH  32  33
ATOM      8  N   UNL     1      21.488   3.529  20.839  0.00  0.00    -0.191 NA
ATOM     33  C   UNL     1      21.069   4.599  21.001  0.00  0.00    +0.099 C 
ENDBRANCH  32  33
ENDBRANCH  23  25
ENDBRANCH   7  23
ENDBRANCH  17  21
ENDBRANCH  12  17
TORSDOF 10
ENDMDL
MODEL 4
REMARK VINA RESULT:      -6.6      4.377      8.579
REMARK  Name = 38029310
REMARK  13 active torsions:
REMARK  status: ('A' for Active; 'I' for Inactive)
REMARK    1  A    between atoms: S_1  and  N_6
REMARK    2  A    between atoms: S_1  and  C_22
REMARK    3  A    between atoms: N_6  and  C_16
REMARK    4  A    between atoms: N_7  and  C_23
REMARK    5  A    between atoms: C_9  and  C_13
REMARK    6  A    between atoms: C_10  and  C_16
REMARK    7  A    between atoms: C_12  and  C_17
REMARK    8  A    between atoms: C_13  and  C_18
REMARK    9  A    between atoms: C_13  and  C_19
REMARK   10  A    between atoms: C_14  and  C_20
REMARK   11  A    between atoms: C_17  and  C_21
REMARK   12  A    between atoms: C_23  and  C_25
REMARK   13  A    between atoms: C_32  and  C_33
REMARK                            x       y       z     vdW  Elec       q    Type
REMARK                         _______ _______ _______ _____ _____    ______ ____
ROOT
ATOM      9  C   UNL     1      -5.836 -10.689  15.165  0.00  0.00    +0.000 C 
ATOM     10  C   UNL     1      -6.666 -10.652  16.472  0.00  0.00    +0.030 C 
ATOM     11  C   UNL     1      -4.867 -11.880  15.178  0.00  0.00    +0.012 C 
ATOM     12  C   UNL     1      -3.894 -11.827  16.372  0.00  0.00    +0.023 C 
ATOM     14  C   UNL     1      -4.614 -11.526  17.671  0.00  0.00    -0.073 C 
ATOM     15  C   UNL     1      -5.857 -11.014  17.696  0.00  0.00    -0.023 C 
ATOM     20  C   UNL     1      -3.889 -11.870  18.942  0.00  0.00    +0.039 C 
ENDROOT
BRANCH   9  13
ATOM     13  C   UNL     1      -6.732 -10.763  13.925  0.00  0.00    -0.013 C 
ATOM     18  C   UNL     1      -6.350  -9.674  12.927  0.00  0.00    +0.007 C 
ATOM     19  C   UNL     1      -6.638 -12.142  13.282  0.00  0.00    +0.007 C 
ENDBRANCH   9  13
BRANCH  10  16
ATOM     16  C   UNL     1      -7.316  -9.279  16.677  0.00  0.00    +0.113 C 
BRANCH  16   6
ATOM      6  N   UNL     1      -8.232  -9.348  17.826  0.00  0.00    -0.189 NA
ATOM     34  H   UNL     1      -7.779  -9.553  18.726  0.00  0.00    +0.148 HD
BRANCH   6   1
ATOM      1  S   UNL     1      -9.812  -9.954  17.626  0.00  0.00    +0.065 S 
ATOM      4  O   UNL     1      -9.989 -10.387  16.253  0.00  0.00    -0.153 OA
ATOM      5  O   UNL     1     -10.755  -9.030  18.225  0.00  0.00    -0.153 OA
BRANCH   1  22
ATOM      2  S   UNL     1     -10.858 -11.355  19.980  0.00  0.00    -0.077 S 
ATOM     22  C   UNL     1      -9.778 -11.395  18.651  0.00  0.00    +0.142 A 
ATOM     24  C   UNL     1      -9.056 -12.566  18.606  0.00  0.00    +0.036 A 
ATOM     26  C   UNL     1      -9.391 -13.443  19.678  0.00  0.00    +0.010 A 
ATOM     27  C   UNL     1     -10.359 -12.908  20.500  0.00  0.00    +0.047 A 
ENDBRANCH   1  22
ENDBRANCH   6   1
ENDBRANCH  16   6
ENDBRANCH  10  16
BRANCH  12  17
ATOM     17  C   UNL     1      -2.767 -10.819  16.122  0.00  0.00    +0.103 C 
BRANCH  17  21
ATOM      3  O   UNL     1      -1.319 -12.116  14.683  0.00  0.00    -0.276 OA
ATOM      7  N   UNL     1      -2.207 -10.114  13.907  0.00  0.00    -0.311 N 
ATOM     21  C   UNL     1      -2.011 -11.115  14.847  0.00  0.00    +0.214 C 
ATOM     35  H   UNL     1      -2.802  -9.323  14.135  0.00  0.00    +0.149 HD
BRANCH   7  23
ATOM     23  C   UNL     1      -1.602 -10.133  12.596  0.00  0.00    +0.139 C 
BRANCH  23  25
ATOM     25  C   UNL     1      -2.617 -10.369  11.513  0.00  0.00    -0.030 A 
ATOM     28  C   UNL     1      -2.877  -9.373  10.573  0.00  0.00    +0.006 A 
ATOM     29  C   UNL     1      -3.297 -11.585  11.449  0.00  0.00    +0.006 A 
ATOM     30  C   UNL     1      -3.818  -9.593   9.568  0.00  0.00    +0.019 A 
ATOM     31  C   UNL     1      -4.239 -11.805  10.444  0.00  0.00    +0.019 A 
ATOM     32  C   UNL     1      -4.499 -10.809   9.503  0.00  0.00    +0.052 A 
BRANCH  32  33
ATOM      8  N   UNL     1      -6.249 -11.217   7.638  0.00  0.00    -0.191 NA
ATOM     33  C   UNL     1      -5.464 -11.035   8.473  0.00  0.00    +0.099 C 
ENDBRANCH  32  33
ENDBRANCH  23  25
ENDBRANCH   7  23
ENDBRANCH  17  21
ENDBRANCH  12  17
TORSDOF 10
ENDMDL
MODEL 5
REMARK VINA RESULT:      -6.5     27.803     30.500
REMARK  Name = 38029310
REMARK  13 active torsions:
REMARK  status: ('A' for Active; 'I' for Inactive)
REMARK    1  A    between atoms: S_1  and  N_6
REMARK    2  A    between atoms: S_1  and  C_22
REMARK    3  A    between atoms: N_6  and  C_16
REMARK    4  A    between atoms: N_7  and  C_23
REMARK    5  A    between atoms: C_9  and  C_13
REMARK    6  A    between atoms: C_10  and  C_16
REMARK    7  A    between atoms: C_12  and  C_17
REMARK    8  A    between atoms: C_13  and  C_18
REMARK    9  A    between atoms: C_13  and  C_19
REMARK   10  A    between atoms: C_14  and  C_20
REMARK   11  A    between atoms: C_17  and  C_21
REMARK   12  A    between atoms: C_23  and  C_25
REMARK   13  A    between atoms: C_32  and  C_33
REMARK                            x       y       z     vdW  Elec       q    Type
REMARK                         _______ _______ _______ _____ _____    ______ ____
ROOT
ATOM      9  C   UNL     1      16.081   8.617  21.031  0.00  0.00    +0.000 C 
ATOM     10  C   UNL     1      15.455   7.834  19.851  0.00  0.00    +0.030 C 
ATOM     11  C   UNL     1      17.598   8.755  20.838  0.00  0.00    +0.012 C 
ATOM     12  C   UNL     1      18.299   7.386  20.734  0.00  0.00    +0.023 C 
ATOM     14  C   UNL     1      17.577   6.457  19.780  0.00  0.00    -0.073 C 
ATOM     15  C   UNL     1      16.311   6.680  19.386  0.00  0.00    -0.023 C 
ATOM     20  C   UNL     1      18.361   5.287  19.252  0.00  0.00    +0.039 C 
ENDROOT
BRANCH   9  13
ATOM     13  C   UNL     1      15.450  10.003  21.193  0.00  0.00    -0.013 C 
ATOM     18  C   UNL     1      15.018  10.225  22.639  0.00  0.00    +0.007 C 
ATOM     19  C   UNL     1      16.426  11.086  20.747  0.00  0.00    +0.007 C 
ENDBRANCH   9  13
BRANCH  10  16
ATOM     16  C   UNL     1      14.055   7.320  20.207  0.00  0.00    +0.113 C 
BRANCH  16   6
ATOM      6  N   UNL     1      13.050   8.145  19.519  0.00  0.00    -0.189 NA
ATOM     34  H   UNL     1      13.402   9.043  19.164  0.00  0.00    +0.148 HD
BRANCH   6   1
ATOM      1  S   UNL     1      11.427   8.127  20.037  0.00  0.00    +0.065 S 
ATOM      4  O   UNL     1      11.175   6.907  20.780  0.00  0.00    -0.153 OA
ATOM      5  O   UNL     1      10.570   8.494  18.926  0.00  0.00    -0.153 OA
BRANCH   1  22
ATOM      2  S   UNL     1      10.813   9.081  22.740  0.00  0.00    -0.077 S 
ATOM     22  C   UNL     1      11.398   9.476  21.179  0.00  0.00    +0.142 A 
ATOM     24  C   UNL     1      11.753  10.803  21.080  0.00  0.00    +0.036 A 
ATOM     26  C   UNL     1      11.542  11.506  22.302  0.00  0.00    +0.010 A 
ATOM     27  C   UNL     1      11.034  10.689  23.287  0.00  0.00    +0.047 A 
ENDBRANCH   1  22
ENDBRANCH   6   1
ENDBRANCH  16   6
ENDBRANCH  10  16
BRANCH  12  17
ATOM     17  C   UNL     1      18.459   6.741  22.114  0.00  0.00    +0.103 C 
BRANCH  17  21
ATOM      3  O   UNL     1      20.153   7.098  23.805  0.00  0.00    -0.276 OA
ATOM      7  N   UNL     1      20.796   6.642  21.618  0.00  0.00    -0.311 N 
ATOM     21  C   UNL     1      19.875   6.852  22.634  0.00  0.00    +0.214 C 
ATOM     35  H   UNL     1      20.468   6.440  20.679  0.00  0.00    +0.149 HD
BRANCH   7  23
ATOM     23  C   UNL     1      22.225   6.690  21.826  0.00  0.00    +0.139 C 
BRANCH  23  25
ATOM     25  C   UNL     1      22.844   5.322  21.792  0.00  0.00    -0.030 A 
ATOM     28  C   UNL     1      22.037   4.195  21.641  0.00  0.00    +0.006 A 
ATOM     29  C   UNL     1      24.227   5.180  21.912  0.00  0.00    +0.006 A 
ATOM     30  C   UNL     1      22.613   2.925  21.609  0.00  0.00    +0.019 A 
ATOM     31  C   UNL     1      24.803   3.910  21.879  0.00  0.00    +0.019 A 
ATOM     32  C   UNL     1      23.996   2.783  21.727  0.00  0.00    +0.052 A 
BRANCH  32  33
ATOM      8  N   UNL     1      25.065   0.425  21.670  0.00  0.00    -0.191 NA
ATOM     33  C   UNL     1      24.587   1.482  21.695  0.00  0.00    +0.099 C 
ENDBRANCH  32  33
ENDBRANCH  23  25
ENDBRANCH   7  23
ENDBRANCH  17  21
ENDBRANCH  12  17
TORSDOF 10
ENDMDL
MODEL 6
REMARK VINA RESULT:      -6.5     22.298     24.990
REMARK  Name = 38029310
REMARK  13 active torsions:
REMARK  status: ('A' for Active; 'I' for Inactive)
REMARK    1  A    between atoms: S_1  and  N_6
REMARK    2  A    between atoms: S_1  and  C_22
REMARK    3  A    between atoms: N_6  and  C_16
REMARK    4  A    between atoms: N_7  and  C_23
REMARK    5  A    between atoms: C_9  and  C_13
REMARK    6  A    between atoms: C_10  and  C_16
REMARK    7  A    between atoms: C_12  and  C_17
REMARK    8  A    between atoms: C_13  and  C_18
REMARK    9  A    between atoms: C_13  and  C_19
REMARK   10  A    between atoms: C_14  and  C_20
REMARK   11  A    between atoms: C_17  and  C_21
REMARK   12  A    between atoms: C_23  and  C_25
REMARK   13  A    between atoms: C_32  and  C_33
REMARK                            x       y       z     vdW  Elec       q    Type
REMARK                         _______ _______ _______ _____ _____    ______ ____
ROOT
ATOM      9  C   UNL     1      13.753   5.382   0.206  0.00  0.00    +0.000 C 
ATOM     10  C   UNL     1      13.557   3.845   0.206  0.00  0.00    +0.030 C 
ATOM     11  C   UNL     1      13.683   5.931   1.638  0.00  0.00    +0.012 C 
ATOM     12  C   UNL     1      12.340   5.610   2.321  0.00  0.00    +0.023 C 
ATOM     14  C   UNL     1      11.946   4.160   2.132  0.00  0.00    -0.073 C 
ATOM     15  C   UNL     1      12.510   3.382   1.191  0.00  0.00    -0.023 C 
ATOM     20  C   UNL     1      10.919   3.608   3.082  0.00  0.00    +0.039 C 
ENDROOT
BRANCH   9  13
ATOM     13  C   UNL     1      15.081   5.786  -0.441  0.00  0.00    -0.013 C 
ATOM     18  C   UNL     1      15.636   7.041   0.224  0.00  0.00    +0.007 C 
ATOM     19  C   UNL     1      16.084   4.640  -0.356  0.00  0.00    +0.007 C 
ENDBRANCH   9  13
BRANCH  10  16
ATOM     16  C   UNL     1      13.203   3.332  -1.195  0.00  0.00    +0.113 C 
BRANCH  16   6
ATOM      6  N   UNL     1      11.749   3.119  -1.275  0.00  0.00    -0.189 NA
ATOM     34  H   UNL     1      11.351   2.572  -0.501  0.00  0.00    +0.148 HD
BRANCH   6   1
ATOM      1  S   UNL     1      10.993   2.936  -2.791  0.00  0.00    +0.065 S 
ATOM      4  O   UNL     1      10.194   1.724  -2.784  0.00  0.00    -0.153 OA
ATOM      5  O   UNL     1      11.970   3.158  -3.839  0.00  0.00    -0.153 OA
BRANCH   1  22
ATOM      2  S   UNL     1       8.876   4.403  -4.191  0.00  0.00    -0.077 S 
ATOM     22  C   UNL     1       9.888   4.316  -2.812  0.00  0.00    +0.142 A 
ATOM     24  C   UNL     1       9.662   5.355  -1.938  0.00  0.00    +0.036 A 
ATOM     26  C   UNL     1       8.644   6.237  -2.406  0.00  0.00    +0.010 A 
ATOM     27  C   UNL     1       8.132   5.836  -3.620  0.00  0.00    +0.047 A 
ENDBRANCH   1  22
ENDBRANCH   6   1
ENDBRANCH  16   6
ENDBRANCH  10  16
BRANCH  12  17
ATOM     17  C   UNL     1      11.233   6.548   1.829  0.00  0.00    +0.103 C 
BRANCH  17  21
ATOM      3  O   UNL     1      11.127   8.330   3.463  0.00  0.00    -0.276 OA
ATOM      7  N   UNL     1       9.395   6.785   3.341  0.00  0.00    -0.311 N 
ATOM     21  C   UNL     1      10.610   7.336   2.960  0.00  0.00    +0.214 C 
ATOM     35  H   UNL     1       9.047   5.960   2.860  0.00  0.00    +0.149 HD
BRANCH   7  23
ATOM     23  C   UNL     1       8.579   7.330   4.400  0.00  0.00    +0.139 C 
BRANCH  23  25
ATOM     25  C   UNL     1       8.925   6.739   5.737  0.00  0.00    -0.030 A 
ATOM     28  C   UNL     1       9.453   5.450   5.814  0.00  0.00    +0.006 A 
ATOM     29  C   UNL     1       8.718   7.479   6.901  0.00  0.00    +0.006 A 
ATOM     30  C   UNL     1       9.775   4.903   7.056  0.00  0.00    +0.019 A 
ATOM     31  C   UNL     1       9.039   6.931   8.143  0.00  0.00    +0.019 A 
ATOM     32  C   UNL     1       9.568   5.643   8.220  0.00  0.00    +0.052 A 
BRANCH  32  33
ATOM      8  N   UNL     1      10.165   4.626  10.526  0.00  0.00    -0.191 NA
ATOM     33  C   UNL     1       9.897   5.082   9.492  0.00  0.00    +0.099 C 
ENDBRANCH  32  33
ENDBRANCH  23  25
ENDBRANCH   7  23
ENDBRANCH  17  21
ENDBRANCH  12  17
TORSDOF 10
ENDMDL
MODEL 7
REMARK VINA RESULT:      -6.4     23.166     26.248
REMARK  Name = 38029310
REMARK  13 active torsions:
REMARK  status: ('A' for Active; 'I' for Inactive)
REMARK    1  A    between atoms: S_1  and  N_6
REMARK    2  A    between atoms: S_1  and  C_22
REMARK    3  A    between atoms: N_6  and  C_16
REMARK    4  A    between atoms: N_7  and  C_23
REMARK    5  A    between atoms: C_9  and  C_13
REMARK    6  A    between atoms: C_10  and  C_16
REMARK    7  A    between atoms: C_12  and  C_17
REMARK    8  A    between atoms: C_13  and  C_18
REMARK    9  A    between atoms: C_13  and  C_19
REMARK   10  A    between atoms: C_14  and  C_20
REMARK   11  A    between atoms: C_17  and  C_21
REMARK   12  A    between atoms: C_23  and  C_25
REMARK   13  A    between atoms: C_32  and  C_33
REMARK                            x       y       z     vdW  Elec       q    Type
REMARK                         _______ _______ _______ _____ _____    ______ ____
ROOT
ATOM      9  C   UNL     1       9.009   8.219   3.265  0.00  0.00    +0.000 C 
ATOM     10  C   UNL     1       8.032   7.741   4.367  0.00  0.00    +0.030 C 
ATOM     11  C   UNL     1       9.540   7.021   2.464  0.00  0.00    +0.012 C 
ATOM     12  C   UNL     1      10.273   6.001   3.357  0.00  0.00    +0.023 C 
ATOM     14  C   UNL     1       9.482   5.681   4.609  0.00  0.00    -0.073 C 
ATOM     15  C   UNL     1       8.476   6.462   5.038  0.00  0.00    -0.023 C 
ATOM     20  C   UNL     1       9.846   4.414   5.334  0.00  0.00    +0.039 C 
ENDROOT
BRANCH   9  13
ATOM     13  C   UNL     1       8.349   9.225   2.318  0.00  0.00    -0.013 C 
ATOM     18  C   UNL     1       8.923  10.621   2.542  0.00  0.00    +0.007 C 
ATOM     19  C   UNL     1       8.535   8.791   0.868  0.00  0.00    +0.007 C 
ENDBRANCH   9  13
BRANCH  10  16
ATOM     16  C   UNL     1       7.820   8.827   5.429  0.00  0.00    +0.113 C 
BRANCH  16   6
ATOM      6  N   UNL     1       9.129   9.257   5.944  0.00  0.00    -0.189 NA
ATOM     34  H   UNL     1       9.887   9.250   5.251  0.00  0.00    +0.148 HD
BRANCH   6   1
ATOM      1  S   UNL     1       9.576   8.900   7.549  0.00  0.00    +0.065 S 
ATOM      4  O   UNL     1       8.657   7.918   8.095  0.00  0.00    -0.153 OA
ATOM      5  O   UNL     1       9.824  10.139   8.260  0.00  0.00    -0.153 OA
BRANCH   1  22
ATOM      2  S   UNL     1      12.416   9.165   6.871  0.00  0.00    -0.077 S 
ATOM     22  C   UNL     1      11.142   8.112   7.321  0.00  0.00    +0.142 A 
ATOM     24  C   UNL     1      11.564   6.806   7.431  0.00  0.00    +0.036 A 
ATOM     26  C   UNL     1      12.953   6.667   7.142  0.00  0.00    +0.010 A 
ATOM     27  C   UNL     1      13.537   7.872   6.822  0.00  0.00    +0.047 A 
ENDBRANCH   1  22
ENDBRANCH   6   1
ENDBRANCH  16   6
ENDBRANCH  10  16
BRANCH  12  17
ATOM     17  C   UNL     1      11.684   6.487   3.707  0.00  0.00    +0.103 C 
BRANCH  17  21
ATOM      3  O   UNL     1      13.575   6.720   2.217  0.00  0.00    -0.276 OA
ATOM      7  N   UNL     1      12.555   4.646   2.455  0.00  0.00    -0.311 N 
ATOM     21  C   UNL     1      12.716   5.999   2.716  0.00  0.00    +0.214 C 
ATOM     35  H   UNL     1      11.815   4.130   2.921  0.00  0.00    +0.149 HD
BRANCH   7  23
ATOM     23  C   UNL     1      13.402   3.912   1.543  0.00  0.00    +0.139 C 
BRANCH  23  25
ATOM     25  C   UNL     1      12.839   3.888   0.150  0.00  0.00    -0.030 A 
ATOM     28  C   UNL     1      13.680   3.658  -0.938  0.00  0.00    +0.006 A 
ATOM     29  C   UNL     1      11.475   4.097  -0.054  0.00  0.00    +0.006 A 
ATOM     30  C   UNL     1      13.157   3.635  -2.230  0.00  0.00    +0.019 A 
ATOM     31  C   UNL     1      10.952   4.074  -1.347  0.00  0.00    +0.019 A 
ATOM     32  C   UNL     1      11.793   3.843  -2.435  0.00  0.00    +0.052 A 
BRANCH  32  33
ATOM      8  N   UNL     1      10.823   3.803  -4.835  0.00  0.00    -0.191 NA
ATOM     33  C   UNL     1      11.257   3.821  -3.760  0.00  0.00    +0.099 C 
ENDBRANCH  32  33
ENDBRANCH  23  25
ENDBRANCH   7  23
ENDBRANCH  17  21
ENDBRANCH  12  17
TORSDOF 10
ENDMDL
MODEL 8
REMARK VINA RESULT:      -6.3     28.633     31.554
REMARK  Name = 38029310
REMARK  13 active torsions:
REMARK  status: ('A' for Active; 'I' for Inactive)
REMARK    1  A    between atoms: S_1  and  N_6
REMARK    2  A    between atoms: S_1  and  C_22
REMARK    3  A    between atoms: N_6  and  C_16
REMARK    4  A    between atoms: N_7  and  C_23
REMARK    5  A    between atoms: C_9  and  C_13
REMARK    6  A    between atoms: C_10  and  C_16
REMARK    7  A    between atoms: C_12  and  C_17
REMARK    8  A    between atoms: C_13  and  C_18
REMARK    9  A    between atoms: C_13  and  C_19
REMARK   10  A    between atoms: C_14  and  C_20
REMARK   11  A    between atoms: C_17  and  C_21
REMARK   12  A    between atoms: C_23  and  C_25
REMARK   13  A    between atoms: C_32  and  C_33
REMARK                            x       y       z     vdW  Elec       q    Type
REMARK                         _______ _______ _______ _____ _____    ______ ____
ROOT
ATOM      9  C   UNL     1      16.737   8.747  21.643  0.00  0.00    +0.000 C 
ATOM     10  C   UNL     1      15.798   7.922  20.729  0.00  0.00    +0.030 C 
ATOM     11  C   UNL     1      18.159   8.779  21.062  0.00  0.00    +0.012 C 
ATOM     12  C   UNL     1      18.753   7.366  20.900  0.00  0.00    +0.023 C 
ATOM     14  C   UNL     1      17.774   6.417  20.242  0.00  0.00    -0.073 C 
ATOM     15  C   UNL     1      16.459   6.687  20.162  0.00  0.00    -0.023 C 
ATOM     20  C   UNL     1      18.348   5.166  19.634  0.00  0.00    +0.039 C 
ENDROOT
BRANCH   9  13
ATOM     13  C   UNL     1      16.226  10.177  21.840  0.00  0.00    -0.013 C 
ATOM     18  C   UNL     1      17.299  11.040  22.497  0.00  0.00    +0.007 C 
ATOM     19  C   UNL     1      15.792  10.776  20.506  0.00  0.00    +0.007 C 
ENDBRANCH   9  13
BRANCH  10  16
ATOM     16  C   UNL     1      14.517   7.521  21.469  0.00  0.00    +0.113 C 
BRANCH  16   6
ATOM      6  N   UNL     1      13.795   6.517  20.671  0.00  0.00    -0.189 NA
ATOM     34  H   UNL     1      14.381   5.990  20.011  0.00  0.00    +0.148 HD
BRANCH   6   1
ATOM      1  S   UNL     1      12.189   6.806  20.182  0.00  0.00    +0.065 S 
ATOM      4  O   UNL     1      11.304   5.892  20.881  0.00  0.00    -0.153 OA
ATOM      5  O   UNL     1      12.142   6.901  18.736  0.00  0.00    -0.153 OA
BRANCH   1  22
ATOM      2  S   UNL     1      11.054   8.483  22.302  0.00  0.00    -0.077 S 
ATOM     22  C   UNL     1      11.905   8.431  20.817  0.00  0.00    +0.142 A 
ATOM     24  C   UNL     1      12.229   9.690  20.362  0.00  0.00    +0.036 A 
ATOM     26  C   UNL     1      11.773  10.712  21.246  0.00  0.00    +0.010 A 
ATOM     27  C   UNL     1      11.118  10.193  22.340  0.00  0.00    +0.047 A 
ENDBRANCH   1  22
ENDBRANCH   6   1
ENDBRANCH  16   6
ENDBRANCH  10  16
BRANCH  12  17
ATOM     17  C   UNL     1      19.235   6.812  22.245  0.00  0.00    +0.103 C 
BRANCH  17  21
ATOM      3  O   UNL     1      21.181   5.582  22.991  0.00  0.00    -0.276 OA
ATOM      7  N   UNL     1      21.350   6.979  21.141  0.00  0.00    -0.311 N 
ATOM     21  C   UNL     1      20.681   6.373  22.194  0.00  0.00    +0.214 C 
ATOM     35  H   UNL     1      20.848   7.619  20.532  0.00  0.00    +0.149 HD
BRANCH   7  23
ATOM     23  C   UNL     1      22.746   6.746  20.853  0.00  0.00    +0.139 C 
BRANCH  23  25
ATOM     25  C   UNL     1      23.366   7.895  20.110  0.00  0.00    -0.030 A 
ATOM     28  C   UNL     1      22.577   8.970  19.705  0.00  0.00    +0.006 A 
ATOM     29  C   UNL     1      24.732   7.884  19.825  0.00  0.00    +0.006 A 
ATOM     30  C   UNL     1      23.154  10.036  19.016  0.00  0.00    +0.019 A 
ATOM     31  C   UNL     1      25.309   8.950  19.136  0.00  0.00    +0.019 A 
ATOM     32  C   UNL     1      24.520  10.027  18.731  0.00  0.00    +0.052 A 
BRANCH  32  33
ATOM      8  N   UNL     1      25.591  12.006  17.450  0.00  0.00    -0.191 NA
ATOM     33  C   UNL     1      25.111  11.119  18.024  0.00  0.00    +0.099 C 
ENDBRANCH  32  33
ENDBRANCH  23  25
ENDBRANCH   7  23
ENDBRANCH  17  21
ENDBRANCH  12  17
TORSDOF 10
ENDMDL
MODEL 9
REMARK VINA RESULT:      -6.0     29.176     32.209
REMARK  Name = 38029310
REMARK  13 active torsions:
REMARK  status: ('A' for Active; 'I' for Inactive)
REMARK    1  A    between atoms: S_1  and  N_6
REMARK    2  A    between atoms: S_1  and  C_22
REMARK    3  A    between atoms: N_6  and  C_16
REMARK    4  A    between atoms: N_7  and  C_23
REMARK    5  A    between atoms: C_9  and  C_13
REMARK    6  A    between atoms: C_10  and  C_16
REMARK    7  A    between atoms: C_12  and  C_17
REMARK    8  A    between atoms: C_13  and  C_18
REMARK    9  A    between atoms: C_13  and  C_19
REMARK   10  A    between atoms: C_14  and  C_20
REMARK   11  A    between atoms: C_17  and  C_21
REMARK   12  A    between atoms: C_23  and  C_25
REMARK   13  A    between atoms: C_32  and  C_33
REMARK                            x       y       z     vdW  Elec       q    Type
REMARK                         _______ _______ _______ _____ _____    ______ ____
ROOT
ATOM      9  C   UNL     1      21.016   7.186  22.402  0.00  0.00    +0.000 C 
ATOM     10  C   UNL     1      21.450   6.086  21.401  0.00  0.00    +0.030 C 
ATOM     11  C   UNL     1      19.568   6.955  22.857  0.00  0.00    +0.012 C 
ATOM     12  C   UNL     1      18.579   6.952  21.675  0.00  0.00    +0.023 C 
ATOM     14  C   UNL     1      19.074   6.093  20.530  0.00  0.00    -0.073 C 
ATOM     15  C   UNL     1      20.357   5.704  20.431  0.00  0.00    -0.023 C 
ATOM     20  C   UNL     1      18.048   5.651  19.523  0.00  0.00    +0.039 C 
ENDROOT
BRANCH   9  13
ATOM     13  C   UNL     1      21.941   7.242  23.622  0.00  0.00    -0.013 C 
ATOM     18  C   UNL     1      21.398   8.224  24.656  0.00  0.00    +0.007 C 
ATOM     19  C   UNL     1      22.104   5.852  24.229  0.00  0.00    +0.007 C 
ENDBRANCH   9  13
BRANCH  10  16
ATOM     16  C   UNL     1      22.701   6.509  20.621  0.00  0.00    +0.113 C 
BRANCH  16   6
ATOM      6  N   UNL     1      22.362   7.648  19.753  0.00  0.00    -0.189 NA
ATOM     34  H   UNL     1      21.931   7.391  18.856  0.00  0.00    +0.148 HD
BRANCH   6   1
ATOM      1  S   UNL     1      23.347   9.038  19.741  0.00  0.00    +0.065 S 
ATOM      4  O   UNL     1      23.260   9.675  18.440  0.00  0.00    -0.153 OA
ATOM      5  O   UNL     1      24.641   8.709  20.306  0.00  0.00    -0.153 OA
BRANCH   1  22
ATOM      2  S   UNL     1      23.489  10.583  22.229  0.00  0.00    -0.077 S 
ATOM     22  C   UNL     1      22.521  10.075  20.911  0.00  0.00    +0.142 A 
ATOM     24  C   UNL     1      21.238  10.572  20.989  0.00  0.00    +0.036 A 
ATOM     26  C   UNL     1      21.048  11.381  22.147  0.00  0.00    +0.010 A 
ATOM     27  C   UNL     1      22.192  11.471  22.908  0.00  0.00    +0.047 A 
ENDBRANCH   1  22
ENDBRANCH   6   1
ENDBRANCH  16   6
ENDBRANCH  10  16
BRANCH  12  17
ATOM     17  C   UNL     1      18.280   8.379  21.202  0.00  0.00    +0.103 C 
BRANCH  17  21
ATOM      3  O   UNL     1      16.631  10.008  21.896  0.00  0.00    -0.276 OA
ATOM      7  N   UNL     1      16.010   7.781  21.655  0.00  0.00    -0.311 N 
ATOM     21  C   UNL     1      16.904   8.842  21.622  0.00  0.00    +0.214 C 
ATOM     35  H   UNL     1      16.329   6.850  21.407  0.00  0.00    +0.149 HD
BRANCH   7  23
ATOM     23  C   UNL     1      14.622   7.930  22.025  0.00  0.00    +0.139 C 
BRANCH  23  25
ATOM     25  C   UNL     1      13.726   8.018  20.822  0.00  0.00    -0.030 A 
ATOM     28  C   UNL     1      12.395   8.407  20.971  0.00  0.00    +0.006 A 
ATOM     29  C   UNL     1      14.226   7.710  19.556  0.00  0.00    +0.006 A 
ATOM     30  C   UNL     1      11.564   8.489  19.854  0.00  0.00    +0.019 A 
ATOM     31  C   UNL     1      13.395   7.792  18.439  0.00  0.00    +0.019 A 
ATOM     32  C   UNL     1      12.064   8.182  18.588  0.00  0.00    +0.052 A 
BRANCH  32  33
ATOM      8  N   UNL     1      10.521   8.332  16.514  0.00  0.00    -0.191 NA
ATOM     33  C   UNL     1      11.212   8.265  17.443  0.00  0.00    +0.099 C 
ENDBRANCH  32  33
ENDBRANCH  23  25
ENDBRANCH   7  23
ENDBRANCH  17  21
ENDBRANCH  12  17
TORSDOF 10
ENDMDL
MODEL 10
REMARK VINA RESULT:      -5.9     23.213     26.268
REMARK  Name = 38029310
REMARK  13 active torsions:
REMARK  status: ('A' for Active; 'I' for Inactive)
REMARK    1  A    between atoms: S_1  and  N_6
REMARK    2  A    between atoms: S_1  and  C_22
REMARK    3  A    between atoms: N_6  and  C_16
REMARK    4  A    between atoms: N_7  and  C_23
REMARK    5  A    between atoms: C_9  and  C_13
REMARK    6  A    between atoms: C_10  and  C_16
REMARK    7  A    between atoms: C_12  and  C_17
REMARK    8  A    between atoms: C_13  and  C_18
REMARK    9  A    between atoms: C_13  and  C_19
REMARK   10  A    between atoms: C_14  and  C_20
REMARK   11  A    between atoms: C_17  and  C_21
REMARK   12  A    between atoms: C_23  and  C_25
REMARK   13  A    between atoms: C_32  and  C_33
REMARK                            x       y       z     vdW  Elec       q    Type
REMARK                         _______ _______ _______ _____ _____    ______ ____
ROOT
ATOM      9  C   UNL     1       8.868   8.709   4.773  0.00  0.00    +0.000 C 
ATOM     10  C   UNL     1       8.611   9.310   6.177  0.00  0.00    +0.030 C 
ATOM     11  C   UNL     1       8.402   7.246   4.723  0.00  0.00    +0.012 C 
ATOM     12  C   UNL     1       9.118   6.369   5.767  0.00  0.00    +0.023 C 
ATOM     14  C   UNL     1       9.140   7.026   7.132  0.00  0.00    -0.073 C 
ATOM     15  C   UNL     1       8.897   8.339   7.298  0.00  0.00    -0.023 C 
ATOM     20  C   UNL     1       9.402   6.130   8.311  0.00  0.00    +0.039 C 
ENDROOT
BRANCH   9  13
ATOM     13  C   UNL     1       8.170   9.514   3.673  0.00  0.00    -0.013 C 
ATOM     18  C   UNL     1       8.241   8.771   2.343  0.00  0.00    +0.007 C 
ATOM     19  C   UNL     1       6.721   9.795   4.058  0.00  0.00    +0.007 C 
ENDBRANCH   9  13
BRANCH  10  16
ATOM     16  C   UNL     1       9.427  10.590   6.389  0.00  0.00    +0.113 C 
BRANCH  16   6
ATOM      6  N   UNL     1      10.637  10.266   7.161  0.00  0.00    -0.189 NA
ATOM     34  H   UNL     1      10.505  10.246   8.180  0.00  0.00    +0.148 HD
BRANCH   6   1
ATOM      1  S   UNL     1      12.166  10.780   6.612  0.00  0.00    +0.065 S 
ATOM      4  O   UNL     1      12.750  11.676   7.593  0.00  0.00    -0.153 OA
ATOM      5  O   UNL     1      12.060  11.188   5.224  0.00  0.00    -0.153 OA
BRANCH   1  22
ATOM      2  S   UNL     1      14.703   9.407   6.092  0.00  0.00    -0.077 S 
ATOM     22  C   UNL     1      13.086   9.271   6.638  0.00  0.00    +0.142 A 
ATOM     24  C   UNL     1      12.773   7.983   7.013  0.00  0.00    +0.036 A 
ATOM     26  C   UNL     1      13.875   7.095   6.849  0.00  0.00    +0.010 A 
ATOM     27  C   UNL     1      14.988   7.739   6.357  0.00  0.00    +0.047 A 
ENDBRANCH   1  22
ENDBRANCH   6   1
ENDBRANCH  16   6
ENDBRANCH  10  16
BRANCH  12  17
ATOM     17  C   UNL     1      10.536   6.011   5.308  0.00  0.00    +0.103 C 
BRANCH  17  21
ATOM      3  O   UNL     1       9.994   3.690   4.891  0.00  0.00    -0.276 OA
ATOM      7  N   UNL     1      11.334   4.841   3.382  0.00  0.00    -0.311 N 
ATOM     21  C   UNL     1      10.571   4.713   4.533  0.00  0.00    +0.214 C 
ATOM     35  H   UNL     1      11.771   5.733   3.167  0.00  0.00    +0.149 HD
BRANCH   7  23
ATOM     23  C   UNL     1      11.545   3.758   2.449  0.00  0.00    +0.139 C 
BRANCH  23  25
ATOM     25  C   UNL     1      11.220   4.160   1.039  0.00  0.00    -0.030 A 
ATOM     28  C   UNL     1      10.100   4.948   0.779  0.00  0.00    +0.006 A 
ATOM     29  C   UNL     1      12.041   3.744  -0.011  0.00  0.00    +0.006 A 
ATOM     30  C   UNL     1       9.800   5.321  -0.531  0.00  0.00    +0.019 A 
ATOM     31  C   UNL     1      11.740   4.117  -1.320  0.00  0.00    +0.019 A 
ATOM     32  C   UNL     1      10.620   4.906  -1.581  0.00  0.00    +0.052 A 
BRANCH  32  33
ATOM      8  N   UNL     1      10.062   5.598  -4.013  0.00  0.00    -0.191 NA
ATOM     33  C   UNL     1      10.312   5.288  -2.923  0.00  0.00    +0.099 C 
ENDBRANCH  32  33
ENDBRANCH  23  25
ENDBRANCH   7  23
ENDBRANCH  17  21
ENDBRANCH  12  17
TORSDOF 10
ENDMDL
