MODEL 1
REMARK VINA RESULT:      -7.4      0.000      0.000
REMARK  Name = 11911715
REMARK  9 active torsions:
REMARK  status: ('A' for Active; 'I' for Inactive)
REMARK    1  A    between atoms: O_4  and  C_27
REMARK    2  A    between atoms: O_4  and  C_33
REMARK    3  A    between atoms: N_5  and  C_12
REMARK    4  A    between atoms: N_6  and  C_13
REMARK    5  A    between atoms: N_9  and  C_32
REMARK    6  A    between atoms: N_9  and  C_34
REMARK    7  A    between atoms: N_9  and  C_35
REMARK    8  A    between atoms: C_17  and  C_18
REMARK    9  A    between atoms: C_19  and  C_24
REMARK                            x       y       z     vdW  Elec       q    Type
REMARK                         _______ _______ _______ _____ _____    ______ ____
ROOT
ATOM      1  O   UNL     1      -4.906  -8.660  10.083  0.00  0.00    -0.370 OA
ATOM      2  O   UNL     1      -6.000 -11.582  10.014  0.00  0.00    -0.370 OA
ATOM     10  C   UNL     1      -4.715 -11.018  10.332  0.00  0.00    +0.171 C 
ATOM     11  C   UNL     1      -4.492  -9.851   9.393  0.00  0.00    +0.171 C 
ATOM     12  C   UNL     1      -4.746 -10.388  11.705  0.00  0.00    +0.130 C 
ATOM     13  C   UNL     1      -5.416 -10.132   8.229  0.00  0.00    +0.130 C 
ATOM     14  C   UNL     1      -5.293  -9.001  11.422  0.00  0.00    +0.185 C 
ATOM     15  C   UNL     1      -6.557 -10.879   8.895  0.00  0.00    +0.185 C 
ENDROOT
BRANCH  12   5
ATOM      5  N   UNL     1      -3.403 -10.297  12.237  0.00  0.00    -0.306 N 
ATOM      7  N   UNL     1      -4.133 -10.654  14.438  0.00  0.00    -0.214 NA
ATOM      8  N   UNL     1      -1.797 -10.322  13.947  0.00  0.00    -0.223 NA
ATOM     16  C   UNL     1      -3.102 -10.428  13.580  0.00  0.00    +0.216 A 
ATOM     19  C   UNL     1      -3.803 -10.777  15.741  0.00  0.00    +0.076 A 
ATOM     22  C   UNL     1      -1.539 -10.456  15.265  0.00  0.00    +0.116 A 
ATOM     23  C   UNL     1      -2.511 -10.686  16.216  0.00  0.00    +0.048 A 
ATOM     36  H   UNL     1      -2.622 -10.181  11.600  0.00  0.00    +0.149 HD
BRANCH  19  24
ATOM     24  C   UNL     1      -4.912 -11.017  16.633  0.00  0.00    +0.001 A 
ATOM     28  C   UNL     1      -6.180 -11.293  16.116  0.00  0.00    +0.012 A 
ATOM     29  C   UNL     1      -4.720 -10.977  18.016  0.00  0.00    +0.012 A 
ATOM     30  C   UNL     1      -7.252 -11.527  16.979  0.00  0.00    +0.024 A 
ATOM     31  C   UNL     1      -5.792 -11.211  18.878  0.00  0.00    +0.024 A 
ATOM     32  C   UNL     1      -7.057 -11.486  18.359  0.00  0.00    +0.029 A 
BRANCH  32   9
ATOM      9  N   UNL     1      -8.140 -11.722  19.232  0.00  0.00    -0.336 N 
ATOM     34  C   UNL     1      -9.219 -10.760  19.339  0.00  0.00    +0.129 C 
ATOM     35  C   UNL     1      -8.182 -12.922  20.043  0.00  0.00    +0.129 C 
ENDBRANCH  32   9
ENDBRANCH  19  24
ENDBRANCH  12   5
BRANCH  13   6
ATOM      3  O   UNL     1      -6.200 -10.438   5.483  0.00  0.00    -0.270 OA
ATOM      6  N   UNL     1      -4.766 -10.950   7.233  0.00  0.00    -0.304 N 
ATOM     17  C   UNL     1      -5.221 -11.034   5.925  0.00  0.00    +0.244 C 
ATOM     37  H   UNL     1      -4.021 -11.558   7.555  0.00  0.00    +0.149 HD
BRANCH  17  18
ATOM     18  C   UNL     1      -4.458 -11.939   5.028  0.00  0.00    +0.037 A 
ATOM     20  C   UNL     1      -4.935 -12.171   3.754  0.00  0.00    +0.016 A 
ATOM     21  C   UNL     1      -3.296 -12.517   5.496  0.00  0.00    +0.016 A 
ATOM     25  C   UNL     1      -4.219 -13.021   2.911  0.00  0.00    +0.046 A 
ATOM     26  C   UNL     1      -2.580 -13.367   4.653  0.00  0.00    +0.046 A 
ATOM     27  C   UNL     1      -3.042 -13.618   3.360  0.00  0.00    +0.120 A 
BRANCH  27   4
ATOM      4  O   UNL     1      -2.341 -14.447   2.537  0.00  0.00    -0.495 OA
ATOM     33  C   UNL     1      -0.926 -14.270   2.490  0.00  0.00    +0.277 C 
ENDBRANCH  27   4
ENDBRANCH  17  18
ENDBRANCH  13   6
TORSDOF 6
ENDMDL
MODEL 2
REMARK VINA RESULT:      -7.2     21.811     24.846
REMARK  Name = 11911715
REMARK  9 active torsions:
REMARK  status: ('A' for Active; 'I' for Inactive)
REMARK    1  A    between atoms: O_4  and  C_27
REMARK    2  A    between atoms: O_4  and  C_33
REMARK    3  A    between atoms: N_5  and  C_12
REMARK    4  A    between atoms: N_6  and  C_13
REMARK    5  A    between atoms: N_9  and  C_32
REMARK    6  A    between atoms: N_9  and  C_34
REMARK    7  A    between atoms: N_9  and  C_35
REMARK    8  A    between atoms: C_17  and  C_18
REMARK    9  A    between atoms: C_19  and  C_24
REMARK                            x       y       z     vdW  Elec       q    Type
REMARK                         _______ _______ _______ _____ _____    ______ ____
ROOT
ATOM      1  O   UNL     1       7.785   6.911  -5.659  0.00  0.00    -0.370 OA
ATOM      2  O   UNL     1       6.550   6.369  -2.845  0.00  0.00    -0.370 OA
ATOM     10  C   UNL     1       7.419   5.609  -3.702  0.00  0.00    +0.171 C 
ATOM     11  C   UNL     1       6.970   5.853  -5.129  0.00  0.00    +0.171 C 
ATOM     12  C   UNL     1       8.821   6.169  -3.655  0.00  0.00    +0.130 C 
ATOM     13  C   UNL     1       5.536   6.313  -4.990  0.00  0.00    +0.130 C 
ATOM     14  C   UNL     1       8.769   7.284  -4.683  0.00  0.00    +0.185 C 
ATOM     15  C   UNL     1       5.550   7.017  -3.645  0.00  0.00    +0.185 C 
ENDROOT
BRANCH  12   5
ATOM      5  N   UNL     1       9.771   5.156  -4.062  0.00  0.00    -0.306 N 
ATOM      7  N   UNL     1      10.456   4.754  -1.854  0.00  0.00    -0.214 NA
ATOM      8  N   UNL     1      11.425   3.534  -3.693  0.00  0.00    -0.223 NA
ATOM     16  C   UNL     1      10.574   4.461  -3.176  0.00  0.00    +0.216 A 
ATOM     19  C   UNL     1      11.255   4.057  -1.019  0.00  0.00    +0.076 A 
ATOM     22  C   UNL     1      12.194   2.873  -2.801  0.00  0.00    +0.116 A 
ATOM     23  C   UNL     1      12.151   3.095  -1.440  0.00  0.00    +0.048 A 
ATOM     36  H   UNL     1       9.831   4.893  -5.040  0.00  0.00    +0.149 HD
BRANCH  19  24
ATOM     24  C   UNL     1      11.112   4.384   0.380  0.00  0.00    +0.001 A 
ATOM     28  C   UNL     1      10.344   5.484   0.767  0.00  0.00    +0.012 A 
ATOM     29  C   UNL     1      11.738   3.598   1.351  0.00  0.00    +0.012 A 
ATOM     30  C   UNL     1      10.205   5.799   2.120  0.00  0.00    +0.024 A 
ATOM     31  C   UNL     1      11.598   3.913   2.702  0.00  0.00    +0.024 A 
ATOM     32  C   UNL     1      10.831   5.013   3.086  0.00  0.00    +0.029 A 
BRANCH  32   9
ATOM      9  N   UNL     1      10.690   5.331   4.454  0.00  0.00    -0.336 N 
ATOM     34  C   UNL     1       9.808   4.552   5.300  0.00  0.00    +0.129 C 
ATOM     35  C   UNL     1      11.413   6.447   5.027  0.00  0.00    +0.129 C 
ENDBRANCH  32   9
ENDBRANCH  19  24
ENDBRANCH  12   5
BRANCH  13   6
ATOM      3  O   UNL     1       2.673   6.426  -5.184  0.00  0.00    -0.270 OA
ATOM      6  N   UNL     1       4.627   5.192  -4.984  0.00  0.00    -0.304 N 
ATOM     17  C   UNL     1       3.252   5.348  -5.083  0.00  0.00    +0.244 C 
ATOM     37  H   UNL     1       5.025   4.280  -4.788  0.00  0.00    +0.149 HD
BRANCH  17  18
ATOM     18  C   UNL     1       2.451   4.097  -5.036  0.00  0.00    +0.037 A 
ATOM     20  C   UNL     1       2.994   2.940  -5.557  0.00  0.00    +0.016 A 
ATOM     21  C   UNL     1       1.193   4.131  -4.472  0.00  0.00    +0.016 A 
ATOM     25  C   UNL     1       2.243   1.765  -5.514  0.00  0.00    +0.046 A 
ATOM     26  C   UNL     1       0.442   2.956  -4.429  0.00  0.00    +0.046 A 
ATOM     27  C   UNL     1       0.968   1.773  -4.949  0.00  0.00    +0.120 A 
BRANCH  27   4
ATOM      4  O   UNL     1       0.235   0.627  -4.904  0.00  0.00    -0.495 OA
ATOM     33  C   UNL     1      -0.398   0.214  -6.115  0.00  0.00    +0.277 C 
ENDBRANCH  27   4
ENDBRANCH  17  18
ENDBRANCH  13   6
TORSDOF 6
ENDMDL
MODEL 3
REMARK VINA RESULT:      -7.1      2.666     11.850
REMARK  Name = 11911715
REMARK  9 active torsions:
REMARK  status: ('A' for Active; 'I' for Inactive)
REMARK    1  A    between atoms: O_4  and  C_27
REMARK    2  A    between atoms: O_4  and  C_33
REMARK    3  A    between atoms: N_5  and  C_12
REMARK    4  A    between atoms: N_6  and  C_13
REMARK    5  A    between atoms: N_9  and  C_32
REMARK    6  A    between atoms: N_9  and  C_34
REMARK    7  A    between atoms: N_9  and  C_35
REMARK    8  A    between atoms: C_17  and  C_18
REMARK    9  A    between atoms: C_19  and  C_24
REMARK                            x       y       z     vdW  Elec       q    Type
REMARK                         _______ _______ _______ _____ _____    ______ ____
ROOT
ATOM      1  O   UNL     1      -3.194  -9.575  11.402  0.00  0.00    -0.370 OA
ATOM      2  O   UNL     1      -4.284 -12.423  12.062  0.00  0.00    -0.370 OA
ATOM     10  C   UNL     1      -4.915 -11.198  11.650  0.00  0.00    +0.171 C 
ATOM     11  C   UNL     1      -4.178 -10.062  12.330  0.00  0.00    +0.171 C 
ATOM     12  C   UNL     1      -4.683 -10.961  10.176  0.00  0.00    +0.130 C 
ATOM     13  C   UNL     1      -3.505 -10.716  13.515  0.00  0.00    +0.130 C 
ATOM     14  C   UNL     1      -3.328 -10.278  10.158  0.00  0.00    +0.185 C 
ATOM     15  C   UNL     1      -3.245 -12.122  13.005  0.00  0.00    +0.185 C 
ENDROOT
BRANCH  12   5
ATOM      5  N   UNL     1      -5.698 -10.071   9.653  0.00  0.00    -0.306 N 
ATOM      7  N   UNL     1      -5.344 -10.786   7.447  0.00  0.00    -0.214 NA
ATOM      8  N   UNL     1      -6.998  -9.109   7.954  0.00  0.00    -0.223 NA
ATOM     16  C   UNL     1      -6.023  -9.987   8.312  0.00  0.00    +0.216 A 
ATOM     19  C   UNL     1      -5.686 -10.677   6.146  0.00  0.00    +0.076 A 
ATOM     22  C   UNL     1      -7.290  -9.052   6.637  0.00  0.00    +0.116 A 
ATOM     23  C   UNL     1      -6.661  -9.819   5.679  0.00  0.00    +0.048 A 
ATOM     36  H   UNL     1      -6.247  -9.509  10.295  0.00  0.00    +0.149 HD
BRANCH  19  24
ATOM     24  C   UNL     1      -4.953 -11.535   5.246  0.00  0.00    +0.001 A 
ATOM     28  C   UNL     1      -5.499 -11.883   4.009  0.00  0.00    +0.012 A 
ATOM     29  C   UNL     1      -3.693 -12.018   5.609  0.00  0.00    +0.012 A 
ATOM     30  C   UNL     1      -4.790 -12.712   3.139  0.00  0.00    +0.024 A 
ATOM     31  C   UNL     1      -2.984 -12.846   4.738  0.00  0.00    +0.024 A 
ATOM     32  C   UNL     1      -3.533 -13.193   3.504  0.00  0.00    +0.029 A 
BRANCH  32   9
ATOM      9  N   UNL     1      -2.815 -14.031   2.624  0.00  0.00    -0.336 N 
ATOM     34  C   UNL     1      -3.200 -14.131   1.230  0.00  0.00    +0.129 C 
ATOM     35  C   UNL     1      -1.694 -14.812   3.105  0.00  0.00    +0.129 C 
ENDBRANCH  32   9
ENDBRANCH  19  24
ENDBRANCH  12   5
BRANCH  13   6
ATOM      3  O   UNL     1      -2.710 -10.496  16.266  0.00  0.00    -0.270 OA
ATOM      6  N   UNL     1      -4.374 -10.730  14.667  0.00  0.00    -0.304 N 
ATOM     17  C   UNL     1      -3.895 -10.617  15.964  0.00  0.00    +0.244 C 
ATOM     37  H   UNL     1      -5.352 -10.942  14.500  0.00  0.00    +0.149 HD
BRANCH  17  18
ATOM     18  C   UNL     1      -4.916 -10.675  17.042  0.00  0.00    +0.037 A 
ATOM     20  C   UNL     1      -6.144 -10.084  16.827  0.00  0.00    +0.016 A 
ATOM     21  C   UNL     1      -4.605 -11.319  18.221  0.00  0.00    +0.016 A 
ATOM     25  C   UNL     1      -7.103 -10.137  17.838  0.00  0.00    +0.046 A 
ATOM     26  C   UNL     1      -5.564 -11.373  19.232  0.00  0.00    +0.046 A 
ATOM     27  C   UNL     1      -6.814 -10.782  19.040  0.00  0.00    +0.120 A 
BRANCH  27   4
ATOM      4  O   UNL     1      -7.750 -10.837  20.027  0.00  0.00    -0.495 OA
ATOM     33  C   UNL     1      -9.089 -11.139  19.635  0.00  0.00    +0.277 C 
ENDBRANCH  27   4
ENDBRANCH  17  18
ENDBRANCH  13   6
TORSDOF 6
ENDMDL
MODEL 4
REMARK VINA RESULT:      -7.1     24.323     29.946
REMARK  Name = 11911715
REMARK  9 active torsions:
REMARK  status: ('A' for Active; 'I' for Inactive)
REMARK    1  A    between atoms: O_4  and  C_27
REMARK    2  A    between atoms: O_4  and  C_33
REMARK    3  A    between atoms: N_5  and  C_12
REMARK    4  A    between atoms: N_6  and  C_13
REMARK    5  A    between atoms: N_9  and  C_32
REMARK    6  A    between atoms: N_9  and  C_34
REMARK    7  A    between atoms: N_9  and  C_35
REMARK    8  A    between atoms: C_17  and  C_18
REMARK    9  A    between atoms: C_19  and  C_24
REMARK                            x       y       z     vdW  Elec       q    Type
REMARK                         _______ _______ _______ _____ _____    ______ ____
ROOT
ATOM      1  O   UNL     1     -15.909   5.965  34.380  0.00  0.00    -0.370 OA
ATOM      2  O   UNL     1     -14.065   6.926  32.053  0.00  0.00    -0.370 OA
ATOM     10  C   UNL     1     -14.103   5.729  32.849  0.00  0.00    +0.171 C 
ATOM     11  C   UNL     1     -14.487   6.137  34.257  0.00  0.00    +0.171 C 
ATOM     12  C   UNL     1     -15.237   4.838  32.400  0.00  0.00    +0.130 C 
ATOM     13  C   UNL     1     -14.128   7.603  34.327  0.00  0.00    +0.130 C 
ATOM     14  C   UNL     1     -16.422   5.395  33.167  0.00  0.00    +0.185 C 
ATOM     15  C   UNL     1     -14.337   8.057  32.894  0.00  0.00    +0.185 C 
ENDROOT
BRANCH  12   5
ATOM      5  N   UNL     1     -14.981   3.471  32.800  0.00  0.00    -0.306 N 
ATOM      7  N   UNL     1     -15.486   2.636  30.666  0.00  0.00    -0.214 NA
ATOM      8  N   UNL     1     -14.830   1.156  32.451  0.00  0.00    -0.223 NA
ATOM     16  C   UNL     1     -15.102   2.389  31.947  0.00  0.00    +0.216 A 
ATOM     19  C   UNL     1     -15.595   1.558  29.862  0.00  0.00    +0.076 A 
ATOM     22  C   UNL     1     -14.958   0.123  31.592  0.00  0.00    +0.116 A 
ATOM     23  C   UNL     1     -15.341   0.265  30.274  0.00  0.00    +0.048 A 
ATOM     36  H   UNL     1     -14.644   3.281  33.737  0.00  0.00    +0.149 HD
BRANCH  19  24
ATOM     24  C   UNL     1     -16.003   1.843  28.507  0.00  0.00    +0.001 A 
ATOM     28  C   UNL     1     -16.602   0.848  27.731  0.00  0.00    +0.012 A 
ATOM     29  C   UNL     1     -15.802   3.117  27.968  0.00  0.00    +0.012 A 
ATOM     30  C   UNL     1     -16.997   1.125  26.421  0.00  0.00    +0.024 A 
ATOM     31  C   UNL     1     -16.198   3.393  26.660  0.00  0.00    +0.024 A 
ATOM     32  C   UNL     1     -16.795   2.397  25.887  0.00  0.00    +0.029 A 
BRANCH  32   9
ATOM      9  N   UNL     1     -17.195   2.677  24.563  0.00  0.00    -0.336 N 
ATOM     34  C   UNL     1     -16.354   3.482  23.698  0.00  0.00    +0.129 C 
ATOM     35  C   UNL     1     -18.456   2.177  24.055  0.00  0.00    +0.129 C 
ENDBRANCH  32   9
ENDBRANCH  19  24
ENDBRANCH  12   5
BRANCH  13   6
ATOM      3  O   UNL     1     -13.148   9.517  36.232  0.00  0.00    -0.270 OA
ATOM      6  N   UNL     1     -12.756   7.786  34.738  0.00  0.00    -0.304 N 
ATOM     17  C   UNL     1     -12.378   8.742  35.669  0.00  0.00    +0.244 C 
ATOM     37  H   UNL     1     -12.052   7.259  34.232  0.00  0.00    +0.149 HD
BRANCH  17  18
ATOM     18  C   UNL     1     -10.924   8.821  35.967  0.00  0.00    +0.037 A 
ATOM     20  C   UNL     1     -10.131   9.645  35.195  0.00  0.00    +0.016 A 
ATOM     21  C   UNL     1     -10.414   8.069  37.005  0.00  0.00    +0.016 A 
ATOM     25  C   UNL     1      -8.767   9.720  35.473  0.00  0.00    +0.046 A 
ATOM     26  C   UNL     1      -9.049   8.144  37.283  0.00  0.00    +0.046 A 
ATOM     27  C   UNL     1      -8.226   8.970  36.517  0.00  0.00    +0.120 A 
BRANCH  27   4
ATOM      4  O   UNL     1      -6.894   9.044  36.790  0.00  0.00    -0.495 OA
ATOM     33  C   UNL     1      -6.523   9.384  38.125  0.00  0.00    +0.277 C 
ENDBRANCH  27   4
ENDBRANCH  17  18
ENDBRANCH  13   6
TORSDOF 6
ENDMDL
MODEL 5
REMARK VINA RESULT:      -7.0     25.286     27.374
REMARK  Name = 11911715
REMARK  9 active torsions:
REMARK  status: ('A' for Active; 'I' for Inactive)
REMARK    1  A    between atoms: O_4  and  C_27
REMARK    2  A    between atoms: O_4  and  C_33
REMARK    3  A    between atoms: N_5  and  C_12
REMARK    4  A    between atoms: N_6  and  C_13
REMARK    5  A    between atoms: N_9  and  C_32
REMARK    6  A    between atoms: N_9  and  C_34
REMARK    7  A    between atoms: N_9  and  C_35
REMARK    8  A    between atoms: C_17  and  C_18
REMARK    9  A    between atoms: C_19  and  C_24
REMARK                            x       y       z     vdW  Elec       q    Type
REMARK                         _______ _______ _______ _____ _____    ______ ____
ROOT
ATOM      1  O   UNL     1      10.928  14.009  10.357  0.00  0.00    -0.370 OA
ATOM      2  O   UNL     1       9.926  11.779  12.296  0.00  0.00    -0.370 OA
ATOM     10  C   UNL     1      11.207  12.075  11.713  0.00  0.00    +0.171 C 
ATOM     11  C   UNL     1      10.956  12.573  10.304  0.00  0.00    +0.171 C 
ATOM     12  C   UNL     1      11.843  13.252  12.414  0.00  0.00    +0.130 C 
ATOM     13  C   UNL     1       9.585  12.034   9.962  0.00  0.00    +0.130 C 
ATOM     14  C   UNL     1      11.232  14.439  11.692  0.00  0.00    +0.185 C 
ATOM     15  C   UNL     1       8.902  12.001  11.316  0.00  0.00    +0.185 C 
ENDROOT
BRANCH  12   5
ATOM      5  N   UNL     1      13.276  13.230  12.216  0.00  0.00    -0.306 N 
ATOM      7  N   UNL     1      13.618  11.805  14.049  0.00  0.00    -0.214 NA
ATOM      8  N   UNL     1      15.474  12.582  12.723  0.00  0.00    -0.223 NA
ATOM     16  C   UNL     1      14.148  12.517  13.020  0.00  0.00    +0.216 A 
ATOM     19  C   UNL     1      14.497  11.122  14.812  0.00  0.00    +0.076 A 
ATOM     22  C   UNL     1      16.296  11.875  13.527  0.00  0.00    +0.116 A 
ATOM     23  C   UNL     1      15.860  11.120  14.596  0.00  0.00    +0.048 A 
ATOM     36  H   UNL     1      13.677  13.715  11.421  0.00  0.00    +0.149 HD
BRANCH  19  24
ATOM     24  C   UNL     1      13.912  10.372  15.898  0.00  0.00    +0.001 A 
ATOM     28  C   UNL     1      12.696   9.710  15.716  0.00  0.00    +0.012 A 
ATOM     29  C   UNL     1      14.562  10.302  17.132  0.00  0.00    +0.012 A 
ATOM     30  C   UNL     1      12.131   8.983  16.765  0.00  0.00    +0.024 A 
ATOM     31  C   UNL     1      13.997   9.576  18.180  0.00  0.00    +0.024 A 
ATOM     32  C   UNL     1      12.782   8.916  17.997  0.00  0.00    +0.029 A 
BRANCH  32   9
ATOM      9  N   UNL     1      12.212   8.181  19.057  0.00  0.00    -0.336 N 
ATOM     34  C   UNL     1      12.828   6.950  19.511  0.00  0.00    +0.129 C 
ATOM     35  C   UNL     1      10.996   8.639  19.697  0.00  0.00    +0.129 C 
ENDBRANCH  32   9
ENDBRANCH  19  24
ENDBRANCH  12   5
BRANCH  13   6
ATOM      3  O   UNL     1      10.241  11.384   7.242  0.00  0.00    -0.270 OA
ATOM      6  N   UNL     1       9.673  10.712   9.388  0.00  0.00    -0.304 N 
ATOM     17  C   UNL     1       9.998  10.497   8.057  0.00  0.00    +0.244 C 
ATOM     37  H   UNL     1       9.373   9.939   9.972  0.00  0.00    +0.149 HD
BRANCH  17  18
ATOM     18  C   UNL     1      10.021   9.079   7.614  0.00  0.00    +0.037 A 
ATOM     20  C   UNL     1      11.078   8.640   6.844  0.00  0.00    +0.016 A 
ATOM     21  C   UNL     1       8.986   8.247   7.989  0.00  0.00    +0.016 A 
ATOM     25  C   UNL     1      11.100   7.309   6.427  0.00  0.00    +0.046 A 
ATOM     26  C   UNL     1       9.009   6.916   7.572  0.00  0.00    +0.046 A 
ATOM     27  C   UNL     1      10.066   6.447   6.793  0.00  0.00    +0.120 A 
BRANCH  27   4
ATOM      4  O   UNL     1      10.089   5.147   6.388  0.00  0.00    -0.495 OA
ATOM     33  C   UNL     1       9.945   4.899   4.990  0.00  0.00    +0.277 C 
ENDBRANCH  27   4
ENDBRANCH  17  18
ENDBRANCH  13   6
TORSDOF 6
ENDMDL
MODEL 6
REMARK VINA RESULT:      -6.9     29.149     33.289
REMARK  Name = 11911715
REMARK  9 active torsions:
REMARK  status: ('A' for Active; 'I' for Inactive)
REMARK    1  A    between atoms: O_4  and  C_27
REMARK    2  A    between atoms: O_4  and  C_33
REMARK    3  A    between atoms: N_5  and  C_12
REMARK    4  A    between atoms: N_6  and  C_13
REMARK    5  A    between atoms: N_9  and  C_32
REMARK    6  A    between atoms: N_9  and  C_34
REMARK    7  A    between atoms: N_9  and  C_35
REMARK    8  A    between atoms: C_17  and  C_18
REMARK    9  A    between atoms: C_19  and  C_24
REMARK                            x       y       z     vdW  Elec       q    Type
REMARK                         _______ _______ _______ _____ _____    ______ ____
ROOT
ATOM      1  O   UNL     1      22.361   8.480  22.399  0.00  0.00    -0.370 OA
ATOM      2  O   UNL     1      20.994   6.144  23.953  0.00  0.00    -0.370 OA
ATOM     10  C   UNL     1      21.505   6.271  22.614  0.00  0.00    +0.171 C 
ATOM     11  C   UNL     1      21.195   7.679  22.146  0.00  0.00    +0.171 C 
ATOM     12  C   UNL     1      23.014   6.208  22.622  0.00  0.00    +0.130 C 
ATOM     13  C   UNL     1      20.052   8.118  23.032  0.00  0.00    +0.130 C 
ATOM     14  C   UNL     1      23.406   7.644  22.915  0.00  0.00    +0.185 C 
ATOM     15  C   UNL     1      20.330   7.363  24.319  0.00  0.00    +0.185 C 
ENDROOT
BRANCH  12   5
ATOM      5  N   UNL     1      23.499   5.814  21.316  0.00  0.00    -0.306 N 
ATOM      7  N   UNL     1      24.016   3.643  22.041  0.00  0.00    -0.214 NA
ATOM      8  N   UNL     1      24.414   4.314  19.761  0.00  0.00    -0.223 NA
ATOM     16  C   UNL     1      23.990   4.553  21.031  0.00  0.00    +0.216 A 
ATOM     19  C   UNL     1      24.502   2.424  21.728  0.00  0.00    +0.076 A 
ATOM     22  C   UNL     1      24.887   3.073  19.518  0.00  0.00    +0.116 A 
ATOM     23  C   UNL     1      24.955   2.079  20.471  0.00  0.00    +0.048 A 
ATOM     36  H   UNL     1      23.436   6.468  20.543  0.00  0.00    +0.149 HD
BRANCH  19  24
ATOM     24  C   UNL     1      24.519   1.474  22.815  0.00  0.00    +0.001 A 
ATOM     28  C   UNL     1      25.564   0.554  22.926  0.00  0.00    +0.012 A 
ATOM     29  C   UNL     1      23.491   1.474  23.762  0.00  0.00    +0.012 A 
ATOM     30  C   UNL     1      25.580  -0.363  23.978  0.00  0.00    +0.024 A 
ATOM     31  C   UNL     1      23.508   0.557  24.813  0.00  0.00    +0.024 A 
ATOM     32  C   UNL     1      24.553  -0.361  24.920  0.00  0.00    +0.029 A 
BRANCH  32   9
ATOM      9  N   UNL     1      24.569  -1.288  25.984  0.00  0.00    -0.336 N 
ATOM     34  C   UNL     1      24.594  -2.712  25.715  0.00  0.00    +0.129 C 
ATOM     35  C   UNL     1      24.547  -0.830  27.358  0.00  0.00    +0.129 C 
ENDBRANCH  32   9
ENDBRANCH  19  24
ENDBRANCH  12   5
BRANCH  13   6
ATOM      3  O   UNL     1      18.504   9.617  21.133  0.00  0.00    -0.270 OA
ATOM      6  N   UNL     1      18.779   7.740  22.469  0.00  0.00    -0.304 N 
ATOM     17  C   UNL     1      18.103   8.535  21.554  0.00  0.00    +0.244 C 
ATOM     37  H   UNL     1      18.333   6.915  22.856  0.00  0.00    +0.149 HD
BRANCH  17  18
ATOM     18  C   UNL     1      16.791   8.017  21.087  0.00  0.00    +0.037 A 
ATOM     20  C   UNL     1      16.768   7.065  20.089  0.00  0.00    +0.016 A 
ATOM     21  C   UNL     1      15.638   8.503  21.669  0.00  0.00    +0.016 A 
ATOM     25  C   UNL     1      15.536   6.579  19.650  0.00  0.00    +0.046 A 
ATOM     26  C   UNL     1      14.406   8.016  21.230  0.00  0.00    +0.046 A 
ATOM     27  C   UNL     1      14.356   7.054  20.222  0.00  0.00    +0.120 A 
BRANCH  27   4
ATOM      4  O   UNL     1      13.154   6.578  19.796  0.00  0.00    -0.495 OA
ATOM     33  C   UNL     1      12.033   6.783  20.654  0.00  0.00    +0.277 C 
ENDBRANCH  27   4
ENDBRANCH  17  18
ENDBRANCH  13   6
TORSDOF 6
ENDMDL
MODEL 7
REMARK VINA RESULT:      -6.9      4.103     10.280
REMARK  Name = 11911715
REMARK  9 active torsions:
REMARK  status: ('A' for Active; 'I' for Inactive)
REMARK    1  A    between atoms: O_4  and  C_27
REMARK    2  A    between atoms: O_4  and  C_33
REMARK    3  A    between atoms: N_5  and  C_12
REMARK    4  A    between atoms: N_6  and  C_13
REMARK    5  A    between atoms: N_9  and  C_32
REMARK    6  A    between atoms: N_9  and  C_34
REMARK    7  A    between atoms: N_9  and  C_35
REMARK    8  A    between atoms: C_17  and  C_18
REMARK    9  A    between atoms: C_19  and  C_24
REMARK                            x       y       z     vdW  Elec       q    Type
REMARK                         _______ _______ _______ _____ _____    ______ ____
ROOT
ATOM      1  O   UNL     1      -5.865 -12.197  18.735  0.00  0.00    -0.370 OA
ATOM      2  O   UNL     1      -6.715 -12.638  15.765  0.00  0.00    -0.370 OA
ATOM     10  C   UNL     1      -5.761 -11.767  16.398  0.00  0.00    +0.171 C 
ATOM     11  C   UNL     1      -6.364 -11.319  17.713  0.00  0.00    +0.171 C 
ATOM     12  C   UNL     1      -4.530 -12.544  16.801  0.00  0.00    +0.130 C 
ATOM     13  C   UNL     1      -7.850 -11.523  17.525  0.00  0.00    +0.130 C 
ATOM     14  C   UNL     1      -4.922 -13.110  18.153  0.00  0.00    +0.185 C 
ATOM     15  C   UNL     1      -7.898 -12.705  16.575  0.00  0.00    +0.185 C 
ENDROOT
BRANCH  12   5
ATOM      5  N   UNL     1      -3.403 -11.647  16.941  0.00  0.00    -0.306 N 
ATOM      7  N   UNL     1      -3.193 -11.371  14.621  0.00  0.00    -0.214 NA
ATOM      8  N   UNL     1      -1.702 -10.244  16.142  0.00  0.00    -0.223 NA
ATOM     16  C   UNL     1      -2.747 -11.070  15.869  0.00  0.00    +0.216 A 
ATOM     19  C   UNL     1      -2.530 -10.790  13.599  0.00  0.00    +0.076 A 
ATOM     22  C   UNL     1      -1.085  -9.698  15.073  0.00  0.00    +0.116 A 
ATOM     23  C   UNL     1      -1.459  -9.937  13.766  0.00  0.00    +0.048 A 
ATOM     36  H   UNL     1      -3.095 -11.376  17.869  0.00  0.00    +0.149 HD
BRANCH  19  24
ATOM     24  C   UNL     1      -3.022 -11.122  12.283  0.00  0.00    +0.001 A 
ATOM     28  C   UNL     1      -3.278 -12.453  11.946  0.00  0.00    +0.012 A 
ATOM     29  C   UNL     1      -3.246 -10.113  11.343  0.00  0.00    +0.012 A 
ATOM     30  C   UNL     1      -3.756 -12.773  10.674  0.00  0.00    +0.024 A 
ATOM     31  C   UNL     1      -3.723 -10.434  10.072  0.00  0.00    +0.024 A 
ATOM     32  C   UNL     1      -3.977 -11.764   9.738  0.00  0.00    +0.029 A 
BRANCH  32   9
ATOM      9  N   UNL     1      -4.460 -12.087   8.452  0.00  0.00    -0.336 N 
ATOM     34  C   UNL     1      -4.119 -13.356   7.840  0.00  0.00    +0.129 C 
ATOM     35  C   UNL     1      -5.288 -11.150   7.722  0.00  0.00    +0.129 C 
ENDBRANCH  32   9
ENDBRANCH  19  24
ENDBRANCH  12   5
BRANCH  13   6
ATOM      3  O   UNL     1     -10.538 -10.606  17.958  0.00  0.00    -0.270 OA
ATOM      6  N   UNL     1      -8.468 -10.357  16.941  0.00  0.00    -0.304 N 
ATOM     17  C   UNL     1      -9.779  -9.993  17.211  0.00  0.00    +0.244 C 
ATOM     37  H   UNL     1      -7.939  -9.868  16.226  0.00  0.00    +0.149 HD
BRANCH  17  18
ATOM     18  C   UNL     1     -10.275  -8.780  16.510  0.00  0.00    +0.037 A 
ATOM     20  C   UNL     1     -10.583  -8.867  15.168  0.00  0.00    +0.016 A 
ATOM     21  C   UNL     1     -10.414  -7.608  17.223  0.00  0.00    +0.016 A 
ATOM     25  C   UNL     1     -11.049  -7.730  14.509  0.00  0.00    +0.046 A 
ATOM     26  C   UNL     1     -10.880  -6.470  16.564  0.00  0.00    +0.046 A 
ATOM     27  C   UNL     1     -11.198  -6.532  15.207  0.00  0.00    +0.120 A 
BRANCH  27   4
ATOM      4  O   UNL     1     -11.654  -5.421  14.565  0.00  0.00    -0.495 OA
ATOM     33  C   UNL     1     -12.968  -5.485  14.012  0.00  0.00    +0.277 C 
ENDBRANCH  27   4
ENDBRANCH  17  18
ENDBRANCH  13   6
TORSDOF 6
ENDMDL
MODEL 8
REMARK VINA RESULT:      -6.7     26.104     28.722
REMARK  Name = 11911715
REMARK  9 active torsions:
REMARK  status: ('A' for Active; 'I' for Inactive)
REMARK    1  A    between atoms: O_4  and  C_27
REMARK    2  A    between atoms: O_4  and  C_33
REMARK    3  A    between atoms: N_5  and  C_12
REMARK    4  A    between atoms: N_6  and  C_13
REMARK    5  A    between atoms: N_9  and  C_32
REMARK    6  A    between atoms: N_9  and  C_34
REMARK    7  A    between atoms: N_9  and  C_35
REMARK    8  A    between atoms: C_17  and  C_18
REMARK    9  A    between atoms: C_19  and  C_24
REMARK                            x       y       z     vdW  Elec       q    Type
REMARK                         _______ _______ _______ _____ _____    ______ ____
ROOT
ATOM      1  O   UNL     1      13.202  11.128   7.247  0.00  0.00    -0.370 OA
ATOM      2  O   UNL     1      13.454  10.086   4.316  0.00  0.00    -0.370 OA
ATOM     10  C   UNL     1      13.201   9.437   5.575  0.00  0.00    +0.171 C 
ATOM     11  C   UNL     1      14.040  10.142   6.621  0.00  0.00    +0.171 C 
ATOM     12  C   UNL     1      11.777   9.682   6.014  0.00  0.00    +0.130 C 
ATOM     13  C   UNL     1      15.135  10.813   5.824  0.00  0.00    +0.130 C 
ATOM     14  C   UNL     1      11.872  11.024   6.717  0.00  0.00    +0.185 C 
ATOM     15  C   UNL     1      14.444  11.107   4.505  0.00  0.00    +0.185 C 
ENDROOT
BRANCH  12   5
ATOM      5  N   UNL     1      11.364   8.657   6.947  0.00  0.00    -0.306 N 
ATOM      7  N   UNL     1      10.881   7.133   5.230  0.00  0.00    -0.214 NA
ATOM      8  N   UNL     1      10.566   6.532   7.542  0.00  0.00    -0.223 NA
ATOM     16  C   UNL     1      10.925   7.403   6.561  0.00  0.00    +0.216 A 
ATOM     19  C   UNL     1      10.448   5.901   4.889  0.00  0.00    +0.076 A 
ATOM     22  C   UNL     1      10.143   5.318   7.130  0.00  0.00    +0.116 A 
ATOM     23  C   UNL     1      10.062   4.944   5.805  0.00  0.00    +0.048 A 
ATOM     36  H   UNL     1      11.441   8.830   7.944  0.00  0.00    +0.149 HD
BRANCH  19  24
ATOM     24  C   UNL     1      10.412   5.635   3.471  0.00  0.00    +0.001 A 
ATOM     28  C   UNL     1      10.800   4.386   2.982  0.00  0.00    +0.012 A 
ATOM     29  C   UNL     1       9.985   6.626   2.583  0.00  0.00    +0.012 A 
ATOM     30  C   UNL     1      10.763   4.129   1.611  0.00  0.00    +0.024 A 
ATOM     31  C   UNL     1       9.949   6.368   1.212  0.00  0.00    +0.024 A 
ATOM     32  C   UNL     1      10.338   5.120   0.727  0.00  0.00    +0.029 A 
BRANCH  32   9
ATOM      9  N   UNL     1      10.301   4.860  -0.660  0.00  0.00    -0.336 N 
ATOM     34  C   UNL     1       9.388   5.590  -1.518  0.00  0.00    +0.129 C 
ATOM     35  C   UNL     1      11.162   3.852  -1.241  0.00  0.00    +0.129 C 
ENDBRANCH  32   9
ENDBRANCH  19  24
ENDBRANCH  12   5
BRANCH  13   6
ATOM      3  O   UNL     1      17.793  11.184   6.848  0.00  0.00    -0.270 OA
ATOM      6  N   UNL     1      16.262   9.930   5.639  0.00  0.00    -0.304 N 
ATOM     17  C   UNL     1      17.513  10.195   6.175  0.00  0.00    +0.244 C 
ATOM     37  H   UNL     1      16.134   9.153   4.999  0.00  0.00    +0.149 HD
BRANCH  17  18
ATOM     18  C   UNL     1      18.575   9.200   5.872  0.00  0.00    +0.037 A 
ATOM     20  C   UNL     1      18.574   8.582   4.639  0.00  0.00    +0.016 A 
ATOM     21  C   UNL     1      19.527   8.928   6.832  0.00  0.00    +0.016 A 
ATOM     25  C   UNL     1      19.570   7.647   4.353  0.00  0.00    +0.046 A 
ATOM     26  C   UNL     1      20.523   7.994   6.547  0.00  0.00    +0.046 A 
ATOM     27  C   UNL     1      20.544   7.354   5.307  0.00  0.00    +0.120 A 
BRANCH  27   4
ATOM      4  O   UNL     1      21.518   6.444   5.028  0.00  0.00    -0.495 OA
ATOM     33  C   UNL     1      22.010   6.409   3.689  0.00  0.00    +0.277 C 
ENDBRANCH  27   4
ENDBRANCH  17  18
ENDBRANCH  13   6
TORSDOF 6
ENDMDL
MODEL 9
REMARK VINA RESULT:      -6.7     24.157     30.084
REMARK  Name = 11911715
REMARK  9 active torsions:
REMARK  status: ('A' for Active; 'I' for Inactive)
REMARK    1  A    between atoms: O_4  and  C_27
REMARK    2  A    between atoms: O_4  and  C_33
REMARK    3  A    between atoms: N_5  and  C_12
REMARK    4  A    between atoms: N_6  and  C_13
REMARK    5  A    between atoms: N_9  and  C_32
REMARK    6  A    between atoms: N_9  and  C_34
REMARK    7  A    between atoms: N_9  and  C_35
REMARK    8  A    between atoms: C_17  and  C_18
REMARK    9  A    between atoms: C_19  and  C_24
REMARK                            x       y       z     vdW  Elec       q    Type
REMARK                         _______ _______ _______ _____ _____    ______ ____
ROOT
ATOM      1  O   UNL     1     -16.150   7.912  33.284  0.00  0.00    -0.370 OA
ATOM      2  O   UNL     1     -13.313   6.736  33.837  0.00  0.00    -0.370 OA
ATOM     10  C   UNL     1     -13.943   7.277  32.663  0.00  0.00    +0.171 C 
ATOM     11  C   UNL     1     -15.394   6.843  32.691  0.00  0.00    +0.171 C 
ATOM     12  C   UNL     1     -14.006   8.784  32.750  0.00  0.00    +0.130 C 
ATOM     13  C   UNL     1     -15.399   5.631  33.595  0.00  0.00    +0.130 C 
ATOM     14  C   UNL     1     -15.275   9.018  33.549  0.00  0.00    +0.185 C 
ATOM     15  C   UNL     1     -14.265   5.940  34.556  0.00  0.00    +0.185 C 
ENDROOT
BRANCH  12   5
ATOM      5  N   UNL     1     -14.137   9.351  31.425  0.00  0.00    -0.306 N 
ATOM      7  N   UNL     1     -12.071  10.453  31.573  0.00  0.00    -0.214 NA
ATOM      8  N   UNL     1     -13.433  10.636  29.593  0.00  0.00    -0.223 NA
ATOM     16  C   UNL     1     -13.185  10.171  30.847  0.00  0.00    +0.216 A 
ATOM     19  C   UNL     1     -11.164  11.256  30.978  0.00  0.00    +0.076 A 
ATOM     22  C   UNL     1     -12.483  11.433  29.059  0.00  0.00    +0.116 A 
ATOM     23  C   UNL     1     -11.318  11.780  29.711  0.00  0.00    +0.048 A 
ATOM     36  H   UNL     1     -14.939   9.105  30.855  0.00  0.00    +0.149 HD
BRANCH  19  24
ATOM     24  C   UNL     1      -9.989  11.542  31.767  0.00  0.00    +0.001 A 
ATOM     28  C   UNL     1      -9.142  12.592  31.407  0.00  0.00    +0.012 A 
ATOM     29  C   UNL     1      -9.697  10.770  32.894  0.00  0.00    +0.012 A 
ATOM     30  C   UNL     1      -8.007  12.869  32.171  0.00  0.00    +0.024 A 
ATOM     31  C   UNL     1      -8.562  11.047  33.657  0.00  0.00    +0.024 A 
ATOM     32  C   UNL     1      -7.718  12.096  33.295  0.00  0.00    +0.029 A 
BRANCH  32   9
ATOM      9  N   UNL     1      -6.570  12.376  34.067  0.00  0.00    -0.336 N 
ATOM     34  C   UNL     1      -5.716  13.498  33.731  0.00  0.00    +0.129 C 
ATOM     35  C   UNL     1      -6.223  11.538  35.196  0.00  0.00    +0.129 C 
ENDBRANCH  32   9
ENDBRANCH  19  24
ENDBRANCH  12   5
BRANCH  13   6
ATOM      3  O   UNL     1     -17.293   4.133  32.041  0.00  0.00    -0.270 OA
ATOM      6  N   UNL     1     -15.139   4.423  32.851  0.00  0.00    -0.304 N 
ATOM     17  C   UNL     1     -16.124   3.767  32.126  0.00  0.00    +0.244 C 
ATOM     37  H   UNL     1     -14.224   4.000  32.969  0.00  0.00    +0.149 HD
BRANCH  17  18
ATOM     18  C   UNL     1     -15.702   2.521  31.435  0.00  0.00    +0.037 A 
ATOM     20  C   UNL     1     -15.999   2.370  30.096  0.00  0.00    +0.016 A 
ATOM     21  C   UNL     1     -15.025   1.557  32.153  0.00  0.00    +0.016 A 
ATOM     25  C   UNL     1     -15.604   1.200  29.447  0.00  0.00    +0.046 A 
ATOM     26  C   UNL     1     -14.630   0.388  31.504  0.00  0.00    +0.046 A 
ATOM     27  C   UNL     1     -14.918   0.210  30.150  0.00  0.00    +0.120 A 
BRANCH  27   4
ATOM      4  O   UNL     1     -14.530  -0.931  29.516  0.00  0.00    -0.495 OA
ATOM     33  C   UNL     1     -13.134  -1.097  29.275  0.00  0.00    +0.277 C 
ENDBRANCH  27   4
ENDBRANCH  17  18
ENDBRANCH  13   6
TORSDOF 6
ENDMDL
MODEL 10
REMARK VINA RESULT:      -6.7      3.453     11.760
REMARK  Name = 11911715
REMARK  9 active torsions:
REMARK  status: ('A' for Active; 'I' for Inactive)
REMARK    1  A    between atoms: O_4  and  C_27
REMARK    2  A    between atoms: O_4  and  C_33
REMARK    3  A    between atoms: N_5  and  C_12
REMARK    4  A    between atoms: N_6  and  C_13
REMARK    5  A    between atoms: N_9  and  C_32
REMARK    6  A    between atoms: N_9  and  C_34
REMARK    7  A    between atoms: N_9  and  C_35
REMARK    8  A    between atoms: C_17  and  C_18
REMARK    9  A    between atoms: C_19  and  C_24
REMARK                            x       y       z     vdW  Elec       q    Type
REMARK                         _______ _______ _______ _____ _____    ______ ____
ROOT
ATOM      1  O   UNL     1      -3.661  -8.814  10.052  0.00  0.00    -0.370 OA
ATOM      2  O   UNL     1      -5.208 -11.474  10.568  0.00  0.00    -0.370 OA
ATOM     10  C   UNL     1      -5.602 -10.091  10.566  0.00  0.00    +0.171 C 
ATOM     11  C   UNL     1      -4.452  -9.296  11.151  0.00  0.00    +0.171 C 
ATOM     12  C   UNL     1      -5.719  -9.583   9.148  0.00  0.00    +0.130 C 
ATOM     13  C   UNL     1      -3.672 -10.312  11.954  0.00  0.00    +0.130 C 
ATOM     14  C   UNL     1      -4.292  -9.186   8.818  0.00  0.00    +0.185 C 
ATOM     15  C   UNL     1      -3.915 -11.594  11.178  0.00  0.00    +0.185 C 
ENDROOT
BRANCH  12   5
ATOM      5  N   UNL     1      -6.583  -8.423   9.109  0.00  0.00    -0.306 N 
ATOM      7  N   UNL     1      -7.304  -8.897   6.927  0.00  0.00    -0.214 NA
ATOM      8  N   UNL     1      -8.131  -6.968   8.113  0.00  0.00    -0.223 NA
ATOM     16  C   UNL     1      -7.363  -8.086   8.017  0.00  0.00    +0.216 A 
ATOM     19  C   UNL     1      -8.077  -8.539   5.881  0.00  0.00    +0.076 A 
ATOM     22  C   UNL     1      -8.880  -6.670   7.030  0.00  0.00    +0.116 A 
ATOM     23  C   UNL     1      -8.893  -7.426   5.875  0.00  0.00    +0.048 A 
ATOM     36  H   UNL     1      -6.674  -7.841   9.935  0.00  0.00    +0.149 HD
BRANCH  19  24
ATOM     24  C   UNL     1      -8.001  -9.414   4.735  0.00  0.00    +0.001 A 
ATOM     28  C   UNL     1      -7.337 -10.639   4.832  0.00  0.00    +0.012 A 
ATOM     29  C   UNL     1      -8.594  -9.040   3.527  0.00  0.00    +0.012 A 
ATOM     30  C   UNL     1      -7.265 -11.486   3.725  0.00  0.00    +0.024 A 
ATOM     31  C   UNL     1      -8.521  -9.887   2.421  0.00  0.00    +0.024 A 
ATOM     32  C   UNL     1      -7.857 -11.109   2.520  0.00  0.00    +0.029 A 
BRANCH  32   9
ATOM      9  N   UNL     1      -7.784 -11.965   1.401  0.00  0.00    -0.336 N 
ATOM     34  C   UNL     1      -7.207 -13.289   1.527  0.00  0.00    +0.129 C 
ATOM     35  C   UNL     1      -8.270 -11.527   0.109  0.00  0.00    +0.129 C 
ENDBRANCH  32   9
ENDBRANCH  19  24
ENDBRANCH  12   5
BRANCH  13   6
ATOM      3  O   UNL     1      -2.124 -10.677  14.345  0.00  0.00    -0.270 OA
ATOM      6  N   UNL     1      -4.179 -10.413  13.302  0.00  0.00    -0.304 N 
ATOM     17  C   UNL     1      -3.348 -10.590  14.399  0.00  0.00    +0.244 C 
ATOM     37  H   UNL     1      -5.186 -10.465  13.410  0.00  0.00    +0.149 HD
BRANCH  17  18
ATOM     18  C   UNL     1      -4.027 -10.701  15.716  0.00  0.00    +0.037 A 
ATOM     20  C   UNL     1      -5.312 -10.218  15.845  0.00  0.00    +0.016 A 
ATOM     21  C   UNL     1      -3.350 -11.286  16.767  0.00  0.00    +0.016 A 
ATOM     25  C   UNL     1      -5.950 -10.322  17.082  0.00  0.00    +0.046 A 
ATOM     26  C   UNL     1      -3.988 -11.389  18.003  0.00  0.00    +0.046 A 
ATOM     27  C   UNL     1      -5.288 -10.908  18.160  0.00  0.00    +0.120 A 
BRANCH  27   4
ATOM      4  O   UNL     1      -5.910 -11.012  19.366  0.00  0.00    -0.495 OA
ATOM     33  C   UNL     1      -7.327 -10.845  19.382  0.00  0.00    +0.277 C 
ENDBRANCH  27   4
ENDBRANCH  17  18
ENDBRANCH  13   6
TORSDOF 6
ENDMDL
