MODEL 1
REMARK VINA RESULT:      -7.5      0.000      0.000
REMARK  Name = 25390456
REMARK  12 active torsions:
REMARK  status: ('A' for Active; 'I' for Inactive)
REMARK    1  A    between atoms: S_1  and  N_9
REMARK    2  A    between atoms: S_1  and  C_25
REMARK    3  A    between atoms: O_3  and  C_12
REMARK    4  A    between atoms: O_4  and  C_13
REMARK    5  A    between atoms: N_9  and  C_17
REMARK    6  A    between atoms: N_10  and  C_19
REMARK    7  A    between atoms: N_11  and  C_20
REMARK    8  A    between atoms: C_14  and  C_16
REMARK    9  A    between atoms: C_15  and  C_17
REMARK   10  A    between atoms: C_16  and  C_18
REMARK   11  A    between atoms: C_19  and  C_20
REMARK   12  A    between atoms: C_30  and  C_31
REMARK                            x       y       z     vdW  Elec       q    Type
REMARK                         _______ _______ _______ _____ _____    ______ ____
ROOT
ATOM      2  O   UNL     1      15.941   5.914  19.923  0.00  0.00    -0.366 OA
ATOM     12  C   UNL     1      16.646   7.914  20.954  0.00  0.00    +0.175 C 
ATOM     13  C   UNL     1      15.146   7.799  21.138  0.00  0.00    +0.175 C 
ATOM     14  C   UNL     1      17.031   6.470  20.680  0.00  0.00    +0.158 C 
ATOM     15  C   UNL     1      14.778   6.757  20.088  0.00  0.00    +0.165 C 
ENDROOT
BRANCH  12   3
ATOM      3  O   UNL     1      17.309   8.433  22.086  0.00  0.00    -0.387 OA
ATOM     32  H   UNL     1      18.073   7.858  22.267  0.00  0.00    +0.210 HD
ENDBRANCH  12   3
BRANCH  13   4
ATOM      4  O   UNL     1      14.845   7.257  22.424  0.00  0.00    -0.387 OA
ATOM     33  H   UNL     1      13.962   7.576  22.673  0.00  0.00    +0.210 HD
ENDBRANCH  13   4
BRANCH  14  16
ATOM     16  C   UNL     1      18.323   6.330  19.894  0.00  0.00    +0.130 C 
BRANCH  16  18
ATOM      5  O   UNL     1      19.576   6.522  21.954  0.00  0.00    -0.276 OA
ATOM     10  N   UNL     1      20.558   5.482  20.122  0.00  0.00    -0.314 N 
ATOM     18  C   UNL     1      19.532   6.137  20.789  0.00  0.00    +0.216 C 
ATOM     35  H   UNL     1      20.429   5.207  19.153  0.00  0.00    +0.149 HD
BRANCH  10  19
ATOM     19  C   UNL     1      21.827   5.171  20.739  0.00  0.00    +0.119 C 
BRANCH  19  20
ATOM     20  C   UNL     1      21.811   3.783  21.361  0.00  0.00    +0.103 C 
BRANCH  20  11
ATOM      6  O   UNL     1      25.695   2.272  20.860  0.00  0.00    -0.377 OA
ATOM     11  N   UNL     1      22.942   2.995  20.873  0.00  0.00    -0.297 NA
ATOM     21  C   UNL     1      23.533   2.201  21.959  0.00  0.00    +0.112 C 
ATOM     22  C   UNL     1      23.963   3.866  20.273  0.00  0.00    +0.112 C 
ATOM     23  C   UNL     1      24.717   1.399  21.429  0.00  0.00    +0.175 C 
ATOM     24  C   UNL     1      25.137   3.025  19.782  0.00  0.00    +0.175 C 
ENDBRANCH  20  11
ENDBRANCH  19  20
ENDBRANCH  10  19
ENDBRANCH  16  18
ENDBRANCH  14  16
BRANCH  15  17
ATOM     17  C   UNL     1      14.449   7.366  18.732  0.00  0.00    +0.140 C 
BRANCH  17   9
ATOM      9  N   UNL     1      13.006   7.219  18.464  0.00  0.00    -0.187 NA
ATOM     34  H   UNL     1      12.723   6.329  18.036  0.00  0.00    +0.148 HD
BRANCH   9   1
ATOM      1  S   UNL     1      12.049   8.595  18.168  0.00  0.00    +0.058 S 
ATOM      7  O   UNL     1      10.776   8.182  17.607  0.00  0.00    -0.153 OA
ATOM      8  O   UNL     1      12.854   9.594  17.491  0.00  0.00    -0.153 OA
BRANCH   1  25
ATOM     25  C   UNL     1      11.756   9.191  19.806  0.00  0.00    +0.105 A 
ATOM     26  C   UNL     1      10.924   8.477  20.669  0.00  0.00    +0.029 A 
ATOM     27  C   UNL     1      12.354  10.375  20.234  0.00  0.00    +0.029 A 
ATOM     28  C   UNL     1      10.690   8.949  21.961  0.00  0.00    +0.005 A 
ATOM     29  C   UNL     1      12.120  10.847  21.526  0.00  0.00    +0.005 A 
ATOM     30  C   UNL     1      11.288  10.134  22.389  0.00  0.00    -0.050 A 
ATOM     31  C   UNL     1      11.038  10.638  23.770  0.00  0.00    +0.044 C 
ENDBRANCH   1  25
ENDBRANCH   9   1
ENDBRANCH  17   9
ENDBRANCH  15  17
TORSDOF 11
ENDMDL
MODEL 2
REMARK VINA RESULT:      -7.3      5.697      8.846
REMARK  Name = 25390456
REMARK  12 active torsions:
REMARK  status: ('A' for Active; 'I' for Inactive)
REMARK    1  A    between atoms: S_1  and  N_9
REMARK    2  A    between atoms: S_1  and  C_25
REMARK    3  A    between atoms: O_3  and  C_12
REMARK    4  A    between atoms: O_4  and  C_13
REMARK    5  A    between atoms: N_9  and  C_17
REMARK    6  A    between atoms: N_10  and  C_19
REMARK    7  A    between atoms: N_11  and  C_20
REMARK    8  A    between atoms: C_14  and  C_16
REMARK    9  A    between atoms: C_15  and  C_17
REMARK   10  A    between atoms: C_16  and  C_18
REMARK   11  A    between atoms: C_19  and  C_20
REMARK   12  A    between atoms: C_30  and  C_31
REMARK                            x       y       z     vdW  Elec       q    Type
REMARK                         _______ _______ _______ _____ _____    ______ ____
ROOT
ATOM      2  O   UNL     1      12.683  11.293  23.521  0.00  0.00    -0.366 OA
ATOM     12  C   UNL     1      11.052  12.995  23.534  0.00  0.00    +0.175 C 
ATOM     13  C   UNL     1      10.517  11.832  24.344  0.00  0.00    +0.175 C 
ATOM     14  C   UNL     1      12.547  12.725  23.562  0.00  0.00    +0.158 C 
ATOM     15  C   UNL     1      11.424  10.691  23.895  0.00  0.00    +0.165 C 
ENDROOT
BRANCH  12   3
ATOM      3  O   UNL     1      10.731  14.254  24.085  0.00  0.00    -0.387 OA
ATOM     32  H   UNL     1      10.294  14.775  23.389  0.00  0.00    +0.210 HD
ENDBRANCH  12   3
BRANCH  13   4
ATOM      4  O   UNL     1      10.741  12.054  25.736  0.00  0.00    -0.387 OA
ATOM     33  H   UNL     1       9.883  12.273  26.136  0.00  0.00    +0.210 HD
ENDBRANCH  13   4
BRANCH  14  16
ATOM     16  C   UNL     1      13.293  13.343  22.393  0.00  0.00    +0.130 C 
BRANCH  16  18
ATOM      5  O   UNL     1      12.104  13.299  20.287  0.00  0.00    -0.276 OA
ATOM     10  N   UNL     1      13.497  11.522  20.840  0.00  0.00    -0.314 N 
ATOM     18  C   UNL     1      12.883  12.747  21.060  0.00  0.00    +0.216 C 
ATOM     35  H   UNL     1      14.123  11.144  21.544  0.00  0.00    +0.149 HD
BRANCH  10  19
ATOM     19  C   UNL     1      13.281  10.734  19.648  0.00  0.00    +0.119 C 
BRANCH  19  20
ATOM     20  C   UNL     1      14.598  10.407  18.960  0.00  0.00    +0.103 C 
BRANCH  20  11
ATOM      6  O   UNL     1      13.214  10.393  14.997  0.00  0.00    -0.377 OA
ATOM     11  N   UNL     1      14.360  10.006  17.574  0.00  0.00    -0.297 NA
ATOM     21  C   UNL     1      14.887  11.013  16.642  0.00  0.00    +0.112 C 
ATOM     22  C   UNL     1      12.926   9.797  17.332  0.00  0.00    +0.112 C 
ATOM     23  C   UNL     1      14.615  10.580  15.204  0.00  0.00    +0.175 C 
ATOM     24  C   UNL     1      12.700   9.392  15.878  0.00  0.00    +0.175 C 
ENDBRANCH  20  11
ENDBRANCH  19  20
ENDBRANCH  10  19
ENDBRANCH  16  18
ENDBRANCH  14  16
BRANCH  15  17
ATOM     17  C   UNL     1      10.887   9.944  22.682  0.00  0.00    +0.140 C 
BRANCH  17   9
ATOM      9  N   UNL     1      11.299   8.530  22.754  0.00  0.00    -0.187 NA
ATOM     34  H   UNL     1      11.976   8.302  23.492  0.00  0.00    +0.148 HD
BRANCH   9   1
ATOM      1  S   UNL     1      11.282   7.564  21.352  0.00  0.00    +0.058 S 
ATOM      7  O   UNL     1      10.669   8.305  20.266  0.00  0.00    -0.153 OA
ATOM      8  O   UNL     1      10.797   6.241  21.696  0.00  0.00    -0.153 OA
BRANCH   1  25
ATOM     25  C   UNL     1      13.007   7.407  21.000  0.00  0.00    +0.105 A 
ATOM     26  C   UNL     1      13.424   6.904  19.768  0.00  0.00    +0.029 A 
ATOM     27  C   UNL     1      13.950   7.784  21.956  0.00  0.00    +0.029 A 
ATOM     28  C   UNL     1      14.785   6.777  19.491  0.00  0.00    +0.005 A 
ATOM     29  C   UNL     1      15.312   7.656  21.679  0.00  0.00    +0.005 A 
ATOM     30  C   UNL     1      15.730   7.153  20.447  0.00  0.00    -0.050 A 
ATOM     31  C   UNL     1      17.184   7.017  20.151  0.00  0.00    +0.044 C 
ENDBRANCH   1  25
ENDBRANCH   9   1
ENDBRANCH  17   9
ENDBRANCH  15  17
TORSDOF 11
ENDMDL
MODEL 3
REMARK VINA RESULT:      -7.1      5.112      8.330
REMARK  Name = 25390456
REMARK  12 active torsions:
REMARK  status: ('A' for Active; 'I' for Inactive)
REMARK    1  A    between atoms: S_1  and  N_9
REMARK    2  A    between atoms: S_1  and  C_25
REMARK    3  A    between atoms: O_3  and  C_12
REMARK    4  A    between atoms: O_4  and  C_13
REMARK    5  A    between atoms: N_9  and  C_17
REMARK    6  A    between atoms: N_10  and  C_19
REMARK    7  A    between atoms: N_11  and  C_20
REMARK    8  A    between atoms: C_14  and  C_16
REMARK    9  A    between atoms: C_15  and  C_17
REMARK   10  A    between atoms: C_16  and  C_18
REMARK   11  A    between atoms: C_19  and  C_20
REMARK   12  A    between atoms: C_30  and  C_31
REMARK                            x       y       z     vdW  Elec       q    Type
REMARK                         _______ _______ _______ _____ _____    ______ ____
ROOT
ATOM      2  O   UNL     1      11.399   8.630  20.313  0.00  0.00    -0.366 OA
ATOM     12  C   UNL     1      11.808   6.724  21.637  0.00  0.00    +0.175 C 
ATOM     13  C   UNL     1      10.735   7.544  22.323  0.00  0.00    +0.175 C 
ATOM     14  C   UNL     1      11.714   7.230  20.208  0.00  0.00    +0.158 C 
ATOM     15  C   UNL     1      10.887   8.898  21.638  0.00  0.00    +0.165 C 
ENDROOT
BRANCH  12   3
ATOM      3  O   UNL     1      11.586   5.332  21.721  0.00  0.00    -0.387 OA
ATOM     32  H   UNL     1      11.077   5.070  20.935  0.00  0.00    +0.210 HD
ENDBRANCH  12   3
BRANCH  13   4
ATOM      4  O   UNL     1       9.442   7.031  22.007  0.00  0.00    -0.387 OA
ATOM     33  H   UNL     1       9.310   7.145  21.050  0.00  0.00    +0.210 HD
ENDBRANCH  13   4
BRANCH  14  16
ATOM     16  C   UNL     1      13.000   7.053  19.420  0.00  0.00    +0.130 C 
BRANCH  16  18
ATOM      5  O   UNL     1      12.758   7.370  17.035  0.00  0.00    -0.276 OA
ATOM     10  N   UNL     1      13.339   9.185  18.366  0.00  0.00    -0.314 N 
ATOM     18  C   UNL     1      13.011   7.856  18.134  0.00  0.00    +0.216 C 
ATOM     35  H   UNL     1      13.538   9.491  19.313  0.00  0.00    +0.149 HD
BRANCH  10  19
ATOM     19  C   UNL     1      13.426  10.171  17.314  0.00  0.00    +0.119 C 
BRANCH  19  20
ATOM     20  C   UNL     1      14.069  11.456  17.816  0.00  0.00    +0.103 C 
BRANCH  20  11
ATOM      6  O   UNL     1      17.347  12.073  15.268  0.00  0.00    -0.377 OA
ATOM     11  N   UNL     1      14.940  12.022  16.788  0.00  0.00    -0.297 NA
ATOM     21  C   UNL     1      15.199  11.040  15.725  0.00  0.00    +0.112 C 
ATOM     22  C   UNL     1      16.209  12.476  17.373  0.00  0.00    +0.112 C 
ATOM     23  C   UNL     1      16.120  11.648  14.671  0.00  0.00    +0.175 C 
ATOM     24  C   UNL     1      17.106  13.051  16.281  0.00  0.00    +0.175 C 
ENDBRANCH  20  11
ENDBRANCH  19  20
ENDBRANCH  10  19
ENDBRANCH  16  18
ENDBRANCH  14  16
BRANCH  15  17
ATOM     17  C   UNL     1      11.878   9.815  22.343  0.00  0.00    +0.140 C 
BRANCH  17   9
ATOM      9  N   UNL     1      12.978  10.152  21.420  0.00  0.00    -0.187 NA
ATOM     34  H   UNL     1      13.021   9.594  20.559  0.00  0.00    +0.148 HD
BRANCH   9   1
ATOM      1  S   UNL     1      14.426  10.812  22.025  0.00  0.00    +0.058 S 
ATOM      7  O   UNL     1      14.332  10.935  23.467  0.00  0.00    -0.153 OA
ATOM      8  O   UNL     1      14.796  11.959  21.218  0.00  0.00    -0.153 OA
BRANCH   1  25
ATOM     25  C   UNL     1      15.587   9.529  21.662  0.00  0.00    +0.105 A 
ATOM     26  C   UNL     1      15.209   8.192  21.781  0.00  0.00    +0.029 A 
ATOM     27  C   UNL     1      16.882   9.855  21.258  0.00  0.00    +0.029 A 
ATOM     28  C   UNL     1      16.125   7.180  21.497  0.00  0.00    +0.005 A 
ATOM     29  C   UNL     1      17.799   8.842  20.974  0.00  0.00    +0.005 A 
ATOM     30  C   UNL     1      17.421   7.505  21.094  0.00  0.00    -0.050 A 
ATOM     31  C   UNL     1      18.401   6.423  20.791  0.00  0.00    +0.044 C 
ENDBRANCH   1  25
ENDBRANCH   9   1
ENDBRANCH  17   9
ENDBRANCH  15  17
TORSDOF 11
ENDMDL
MODEL 4
REMARK VINA RESULT:      -6.9      5.145      8.759
REMARK  Name = 25390456
REMARK  12 active torsions:
REMARK  status: ('A' for Active; 'I' for Inactive)
REMARK    1  A    between atoms: S_1  and  N_9
REMARK    2  A    between atoms: S_1  and  C_25
REMARK    3  A    between atoms: O_3  and  C_12
REMARK    4  A    between atoms: O_4  and  C_13
REMARK    5  A    between atoms: N_9  and  C_17
REMARK    6  A    between atoms: N_10  and  C_19
REMARK    7  A    between atoms: N_11  and  C_20
REMARK    8  A    between atoms: C_14  and  C_16
REMARK    9  A    between atoms: C_15  and  C_17
REMARK   10  A    between atoms: C_16  and  C_18
REMARK   11  A    between atoms: C_19  and  C_20
REMARK   12  A    between atoms: C_30  and  C_31
REMARK                            x       y       z     vdW  Elec       q    Type
REMARK                         _______ _______ _______ _____ _____    ______ ____
ROOT
ATOM      2  O   UNL     1      15.146   8.361  18.951  0.00  0.00    -0.366 OA
ATOM     12  C   UNL     1      15.902   7.491  21.008  0.00  0.00    +0.175 C 
ATOM     13  C   UNL     1      15.631   6.324  20.080  0.00  0.00    +0.175 C 
ATOM     14  C   UNL     1      16.070   8.633  20.020  0.00  0.00    +0.158 C 
ATOM     15  C   UNL     1      14.761   6.969  19.006  0.00  0.00    +0.165 C 
ENDROOT
BRANCH  12   3
ATOM      3  O   UNL     1      17.049   7.312  21.810  0.00  0.00    -0.387 OA
ATOM     32  H   UNL     1      17.050   8.017  22.480  0.00  0.00    +0.210 HD
ENDBRANCH  12   3
BRANCH  13   4
ATOM      4  O   UNL     1      16.843   5.889  19.465  0.00  0.00    -0.387 OA
ATOM     33  H   UNL     1      16.962   4.951  19.689  0.00  0.00    +0.210 HD
ENDBRANCH  13   4
BRANCH  14  16
ATOM     16  C   UNL     1      15.771   9.996  20.619  0.00  0.00    +0.130 C 
BRANCH  16  18
ATOM      5  O   UNL     1      14.923   9.895  22.882  0.00  0.00    -0.276 OA
ATOM     10  N   UNL     1      13.420   9.953  21.110  0.00  0.00    -0.314 N 
ATOM     18  C   UNL     1      14.687   9.942  21.678  0.00  0.00    +0.216 C 
ATOM     35  H   UNL     1      13.327   9.988  20.099  0.00  0.00    +0.149 HD
BRANCH  10  19
ATOM     19  C   UNL     1      12.206   9.907  21.891  0.00  0.00    +0.119 C 
BRANCH  19  20
ATOM     20  C   UNL     1      11.362  11.154  21.669  0.00  0.00    +0.103 C 
BRANCH  20  11
ATOM      6  O   UNL     1      12.203  12.645  25.502  0.00  0.00    -0.377 OA
ATOM     11  N   UNL     1      11.291  11.943  22.898  0.00  0.00    -0.297 NA
ATOM     21  C   UNL     1      12.528  12.711  23.098  0.00  0.00    +0.112 C 
ATOM     22  C   UNL     1      11.043  11.076  24.059  0.00  0.00    +0.112 C 
ATOM     23  C   UNL     1      12.435  13.514  24.392  0.00  0.00    +0.175 C 
ATOM     24  C   UNL     1      10.986  11.918  25.330  0.00  0.00    +0.175 C 
ENDBRANCH  20  11
ENDBRANCH  19  20
ENDBRANCH  10  19
ENDBRANCH  16  18
ENDBRANCH  14  16
BRANCH  15  17
ATOM     17  C   UNL     1      13.275   6.909  19.328  0.00  0.00    +0.140 C 
BRANCH  17   9
ATOM      9  N   UNL     1      12.498   6.973  18.076  0.00  0.00    -0.187 NA
ATOM     34  H   UNL     1      12.861   6.408  17.299  0.00  0.00    +0.148 HD
BRANCH   9   1
ATOM      1  S   UNL     1      11.593   8.366  17.703  0.00  0.00    +0.058 S 
ATOM      7  O   UNL     1      11.066   8.938  18.928  0.00  0.00    -0.153 OA
ATOM      8  O   UNL     1      10.704   8.069  16.597  0.00  0.00    -0.153 OA
BRANCH   1  25
ATOM     25  C   UNL     1      12.842   9.454  17.086  0.00  0.00    +0.105 A 
ATOM     26  C   UNL     1      13.535   9.128  15.920  0.00  0.00    +0.029 A 
ATOM     27  C   UNL     1      13.136  10.636  17.765  0.00  0.00    +0.029 A 
ATOM     28  C   UNL     1      14.523   9.985  15.433  0.00  0.00    +0.005 A 
ATOM     29  C   UNL     1      14.124  11.492  17.279  0.00  0.00    +0.005 A 
ATOM     30  C   UNL     1      14.817  11.167  16.114  0.00  0.00    -0.050 A 
ATOM     31  C   UNL     1      15.873  12.082  15.594  0.00  0.00    +0.044 C 
ENDBRANCH   1  25
ENDBRANCH   9   1
ENDBRANCH  17   9
ENDBRANCH  15  17
TORSDOF 11
ENDMDL
MODEL 5
REMARK VINA RESULT:      -6.8     27.461     30.789
REMARK  Name = 25390456
REMARK  12 active torsions:
REMARK  status: ('A' for Active; 'I' for Inactive)
REMARK    1  A    between atoms: S_1  and  N_9
REMARK    2  A    between atoms: S_1  and  C_25
REMARK    3  A    between atoms: O_3  and  C_12
REMARK    4  A    between atoms: O_4  and  C_13
REMARK    5  A    between atoms: N_9  and  C_17
REMARK    6  A    between atoms: N_10  and  C_19
REMARK    7  A    between atoms: N_11  and  C_20
REMARK    8  A    between atoms: C_14  and  C_16
REMARK    9  A    between atoms: C_15  and  C_17
REMARK   10  A    between atoms: C_16  and  C_18
REMARK   11  A    between atoms: C_19  and  C_20
REMARK   12  A    between atoms: C_30  and  C_31
REMARK                            x       y       z     vdW  Elec       q    Type
REMARK                         _______ _______ _______ _____ _____    ______ ____
ROOT
ATOM      2  O   UNL     1      -5.299 -11.199  18.985  0.00  0.00    -0.366 OA
ATOM     12  C   UNL     1      -6.448 -12.920  17.856  0.00  0.00    +0.175 C 
ATOM     13  C   UNL     1      -4.990 -12.992  17.454  0.00  0.00    +0.175 C 
ATOM     14  C   UNL     1      -6.367 -12.148  19.162  0.00  0.00    +0.158 C 
ATOM     15  C   UNL     1      -4.477 -11.619  17.873  0.00  0.00    +0.165 C 
ENDROOT
BRANCH  12   3
ATOM      3  O   UNL     1      -7.044 -14.188  18.028  0.00  0.00    -0.387 OA
ATOM     32  H   UNL     1      -7.402 -14.462  17.166  0.00  0.00    +0.210 HD
ENDBRANCH  12   3
BRANCH  13   4
ATOM      4  O   UNL     1      -4.309 -13.975  18.232  0.00  0.00    -0.387 OA
ATOM     33  H   UNL     1      -3.358 -13.879  18.055  0.00  0.00    +0.210 HD
ENDBRANCH  13   4
BRANCH  14  16
ATOM     16  C   UNL     1      -7.650 -11.415  19.510  0.00  0.00    +0.130 C 
BRANCH  16  18
ATOM      5  O   UNL     1      -9.231 -11.462  17.680  0.00  0.00    -0.276 OA
ATOM     10  N   UNL     1      -7.874  -9.595  17.957  0.00  0.00    -0.314 N 
ATOM     18  C   UNL     1      -8.352 -10.856  18.287  0.00  0.00    +0.216 C 
ATOM     35  H   UNL     1      -7.138  -9.178  18.519  0.00  0.00    +0.149 HD
BRANCH  10  19
ATOM     19  C   UNL     1      -8.367  -8.834  16.833  0.00  0.00    +0.119 C 
BRANCH  19  20
ATOM     20  C   UNL     1      -9.598  -8.025  17.214  0.00  0.00    +0.103 C 
BRANCH  20  11
ATOM      6  O   UNL     1     -12.547  -6.864  14.462  0.00  0.00    -0.377 OA
ATOM     11  N   UNL     1     -10.246  -7.494  16.016  0.00  0.00    -0.297 NA
ATOM     21  C   UNL     1     -11.113  -6.356  16.352  0.00  0.00    +0.112 C 
ATOM     22  C   UNL     1     -11.028  -8.540  15.341  0.00  0.00    +0.112 C 
ATOM     23  C   UNL     1     -11.789  -5.829  15.090  0.00  0.00    +0.175 C 
ATOM     24  C   UNL     1     -11.706  -7.961  14.103  0.00  0.00    +0.175 C 
ENDBRANCH  20  11
ENDBRANCH  19  20
ENDBRANCH  10  19
ENDBRANCH  16  18
ENDBRANCH  14  16
BRANCH  15  17
ATOM     17  C   UNL     1      -4.609 -10.572  16.776  0.00  0.00    +0.140 C 
BRANCH  17   9
ATOM      9  N   UNL     1      -4.423 -11.212  15.460  0.00  0.00    -0.187 NA
ATOM     34  H   UNL     1      -5.091 -11.959  15.232  0.00  0.00    +0.148 HD
BRANCH   9   1
ATOM      1  S   UNL     1      -2.877 -11.270  14.751  0.00  0.00    +0.058 S 
ATOM      7  O   UNL     1      -2.478 -12.655  14.582  0.00  0.00    -0.153 OA
ATOM      8  O   UNL     1      -2.005 -10.340  15.441  0.00  0.00    -0.153 OA
BRANCH   1  25
ATOM     25  C   UNL     1      -3.189 -10.594  13.148  0.00  0.00    +0.105 A 
ATOM     26  C   UNL     1      -4.496 -10.303  12.757  0.00  0.00    +0.029 A 
ATOM     27  C   UNL     1      -2.129 -10.352  12.274  0.00  0.00    +0.029 A 
ATOM     28  C   UNL     1      -4.743  -9.772  11.491  0.00  0.00    +0.005 A 
ATOM     29  C   UNL     1      -2.377  -9.821  11.008  0.00  0.00    +0.005 A 
ATOM     30  C   UNL     1      -3.683  -9.531  10.616  0.00  0.00    -0.050 A 
ATOM     31  C   UNL     1      -3.947  -8.963   9.263  0.00  0.00    +0.044 C 
ENDBRANCH   1  25
ENDBRANCH   9   1
ENDBRANCH  17   9
ENDBRANCH  15  17
TORSDOF 11
ENDMDL
MODEL 6
REMARK VINA RESULT:      -6.8      3.475      5.373
REMARK  Name = 25390456
REMARK  12 active torsions:
REMARK  status: ('A' for Active; 'I' for Inactive)
REMARK    1  A    between atoms: S_1  and  N_9
REMARK    2  A    between atoms: S_1  and  C_25
REMARK    3  A    between atoms: O_3  and  C_12
REMARK    4  A    between atoms: O_4  and  C_13
REMARK    5  A    between atoms: N_9  and  C_17
REMARK    6  A    between atoms: N_10  and  C_19
REMARK    7  A    between atoms: N_11  and  C_20
REMARK    8  A    between atoms: C_14  and  C_16
REMARK    9  A    between atoms: C_15  and  C_17
REMARK   10  A    between atoms: C_16  and  C_18
REMARK   11  A    between atoms: C_19  and  C_20
REMARK   12  A    between atoms: C_30  and  C_31
REMARK                            x       y       z     vdW  Elec       q    Type
REMARK                         _______ _______ _______ _____ _____    ______ ____
ROOT
ATOM      2  O   UNL     1      12.750   9.419  21.388  0.00  0.00    -0.366 OA
ATOM     12  C   UNL     1      11.921   7.235  21.072  0.00  0.00    +0.175 C 
ATOM     13  C   UNL     1      10.833   8.209  20.668  0.00  0.00    +0.175 C 
ATOM     14  C   UNL     1      13.162   8.105  20.970  0.00  0.00    +0.158 C 
ATOM     15  C   UNL     1      11.309   9.502  21.319  0.00  0.00    +0.165 C 
ENDROOT
BRANCH  12   3
ATOM      3  O   UNL     1      11.997   6.103  20.231  0.00  0.00    -0.387 OA
ATOM     32  H   UNL     1      11.280   6.175  19.578  0.00  0.00    +0.210 HD
ENDBRANCH  12   3
BRANCH  13   4
ATOM      4  O   UNL     1      10.837   8.398  19.253  0.00  0.00    -0.387 OA
ATOM     33  H   UNL     1      11.693   8.791  19.016  0.00  0.00    +0.210 HD
ENDBRANCH  13   4
BRANCH  14  16
ATOM     16  C   UNL     1      14.306   7.626  21.845  0.00  0.00    +0.130 C 
BRANCH  16  18
ATOM      5  O   UNL     1      15.185   6.255  20.056  0.00  0.00    -0.276 OA
ATOM     10  N   UNL     1      16.656   7.198  21.590  0.00  0.00    -0.314 N 
ATOM     18  C   UNL     1      15.403   6.943  21.050  0.00  0.00    +0.216 C 
ATOM     35  H   UNL     1      16.734   7.776  22.421  0.00  0.00    +0.149 HD
BRANCH  10  19
ATOM     19  C   UNL     1      17.878   6.667  21.031  0.00  0.00    +0.119 C 
BRANCH  19  20
ATOM     20  C   UNL     1      19.074   7.530  21.405  0.00  0.00    +0.103 C 
BRANCH  20  11
ATOM      6  O   UNL     1      21.706   4.330  22.077  0.00  0.00    -0.377 OA
ATOM     11  N   UNL     1      20.289   6.719  21.451  0.00  0.00    -0.297 NA
ATOM     21  C   UNL     1      20.134   5.499  20.646  0.00  0.00    +0.112 C 
ATOM     22  C   UNL     1      20.628   6.366  22.837  0.00  0.00    +0.112 C 
ATOM     23  C   UNL     1      21.408   4.663  20.720  0.00  0.00    +0.175 C 
ATOM     24  C   UNL     1      21.891   5.510  22.860  0.00  0.00    +0.175 C 
ENDBRANCH  20  11
ENDBRANCH  19  20
ENDBRANCH  10  19
ENDBRANCH  16  18
ENDBRANCH  14  16
BRANCH  15  17
ATOM     17  C   UNL     1      10.785   9.684  22.737  0.00  0.00    +0.140 C 
BRANCH  17   9
ATOM      9  N   UNL     1      10.509  11.112  22.981  0.00  0.00    -0.187 NA
ATOM     34  H   UNL     1      10.444  11.700  22.141  0.00  0.00    +0.148 HD
BRANCH   9   1
ATOM      1  S   UNL     1      11.001  11.840  24.438  0.00  0.00    +0.058 S 
ATOM      7  O   UNL     1      10.878  10.882  25.520  0.00  0.00    -0.153 OA
ATOM      8  O   UNL     1      10.379  13.146  24.547  0.00  0.00    -0.153 OA
BRANCH   1  25
ATOM     25  C   UNL     1      12.723  12.112  24.143  0.00  0.00    +0.105 A 
ATOM     26  C   UNL     1      13.152  12.576  22.900  0.00  0.00    +0.029 A 
ATOM     27  C   UNL     1      13.651  11.860  25.153  0.00  0.00    +0.029 A 
ATOM     28  C   UNL     1      14.511  12.788  22.665  0.00  0.00    +0.005 A 
ATOM     29  C   UNL     1      15.010  12.071  24.918  0.00  0.00    +0.005 A 
ATOM     30  C   UNL     1      15.440  12.535  23.675  0.00  0.00    -0.050 A 
ATOM     31  C   UNL     1      16.892  12.761  23.425  0.00  0.00    +0.044 C 
ENDBRANCH   1  25
ENDBRANCH   9   1
ENDBRANCH  17   9
ENDBRANCH  15  17
TORSDOF 11
ENDMDL
MODEL 7
REMARK VINA RESULT:      -6.7      3.326      5.678
REMARK  Name = 25390456
REMARK  12 active torsions:
REMARK  status: ('A' for Active; 'I' for Inactive)
REMARK    1  A    between atoms: S_1  and  N_9
REMARK    2  A    between atoms: S_1  and  C_25
REMARK    3  A    between atoms: O_3  and  C_12
REMARK    4  A    between atoms: O_4  and  C_13
REMARK    5  A    between atoms: N_9  and  C_17
REMARK    6  A    between atoms: N_10  and  C_19
REMARK    7  A    between atoms: N_11  and  C_20
REMARK    8  A    between atoms: C_14  and  C_16
REMARK    9  A    between atoms: C_15  and  C_17
REMARK   10  A    between atoms: C_16  and  C_18
REMARK   11  A    between atoms: C_19  and  C_20
REMARK   12  A    between atoms: C_30  and  C_31
REMARK                            x       y       z     vdW  Elec       q    Type
REMARK                         _______ _______ _______ _____ _____    ______ ____
ROOT
ATOM      2  O   UNL     1      13.889   8.437  18.222  0.00  0.00    -0.366 OA
ATOM     12  C   UNL     1      11.674   8.417  17.415  0.00  0.00    +0.175 C 
ATOM     13  C   UNL     1      12.470   9.387  16.565  0.00  0.00    +0.175 C 
ATOM     14  C   UNL     1      12.775   7.552  18.004  0.00  0.00    +0.158 C 
ATOM     15  C   UNL     1      13.698   9.634  17.435  0.00  0.00    +0.165 C 
ENDROOT
BRANCH  12   3
ATOM      3  O   UNL     1      10.745   7.658  16.673  0.00  0.00    -0.387 OA
ATOM     32  H   UNL     1       9.868   7.801  17.068  0.00  0.00    +0.210 HD
ENDBRANCH  12   3
BRANCH  13   4
ATOM      4  O   UNL     1      12.901   8.752  15.362  0.00  0.00    -0.387 OA
ATOM     33  H   UNL     1      12.293   8.014  15.189  0.00  0.00    +0.210 HD
ENDBRANCH  13   4
BRANCH  14  16
ATOM     16  C   UNL     1      12.385   6.889  19.313  0.00  0.00    +0.130 C 
BRANCH  16  18
ATOM      5  O   UNL     1      13.130   7.988  21.335  0.00  0.00    -0.276 OA
ATOM     10  N   UNL     1      14.532   6.451  20.298  0.00  0.00    -0.314 N 
ATOM     18  C   UNL     1      13.364   7.189  20.432  0.00  0.00    +0.216 C 
ATOM     35  H   UNL     1      14.635   5.818  19.510  0.00  0.00    +0.149 HD
BRANCH  10  19
ATOM     19  C   UNL     1      15.635   6.545  21.226  0.00  0.00    +0.119 C 
BRANCH  19  20
ATOM     20  C   UNL     1      16.632   7.608  20.790  0.00  0.00    +0.103 C 
BRANCH  20  11
ATOM      6  O   UNL     1      20.794   7.063  20.739  0.00  0.00    -0.377 OA
ATOM     11  N   UNL     1      17.987   7.224  21.184  0.00  0.00    -0.297 NA
ATOM     21  C   UNL     1      18.852   8.407  21.298  0.00  0.00    +0.112 C 
ATOM     22  C   UNL     1      18.559   6.273  20.222  0.00  0.00    +0.112 C 
ATOM     23  C   UNL     1      20.262   7.980  21.696  0.00  0.00    +0.175 C 
ATOM     24  C   UNL     1      19.976   5.896  20.645  0.00  0.00    +0.175 C 
ENDBRANCH  20  11
ENDBRANCH  19  20
ENDBRANCH  10  19
ENDBRANCH  16  18
ENDBRANCH  14  16
BRANCH  15  17
ATOM     17  C   UNL     1      13.523  10.800  18.397  0.00  0.00    +0.140 C 
BRANCH  17   9
ATOM      9  N   UNL     1      13.999  10.409  19.737  0.00  0.00    -0.187 NA
ATOM     34  H   UNL     1      13.491   9.634  20.179  0.00  0.00    +0.148 HD
BRANCH   9   1
ATOM      1  S   UNL     1      14.752  11.556  20.744  0.00  0.00    +0.058 S 
ATOM      7  O   UNL     1      15.250  12.652  19.934  0.00  0.00    -0.153 OA
ATOM      8  O   UNL     1      15.637  10.869  21.664  0.00  0.00    -0.153 OA
BRANCH   1  25
ATOM     25  C   UNL     1      13.386  12.156  21.692  0.00  0.00    +0.105 A 
ATOM     26  C   UNL     1      13.466  13.398  22.322  0.00  0.00    +0.029 A 
ATOM     27  C   UNL     1      12.229  11.387  21.812  0.00  0.00    +0.029 A 
ATOM     28  C   UNL     1      12.390  13.871  23.073  0.00  0.00    +0.005 A 
ATOM     29  C   UNL     1      11.152  11.859  22.563  0.00  0.00    +0.005 A 
ATOM     30  C   UNL     1      11.232  13.100  23.194  0.00  0.00    -0.050 A 
ATOM     31  C   UNL     1      10.082  13.605  23.996  0.00  0.00    +0.044 C 
ENDBRANCH   1  25
ENDBRANCH   9   1
ENDBRANCH  17   9
ENDBRANCH  15  17
TORSDOF 11
ENDMDL
MODEL 8
REMARK VINA RESULT:      -6.7      4.176      8.373
REMARK  Name = 25390456
REMARK  12 active torsions:
REMARK  status: ('A' for Active; 'I' for Inactive)
REMARK    1  A    between atoms: S_1  and  N_9
REMARK    2  A    between atoms: S_1  and  C_25
REMARK    3  A    between atoms: O_3  and  C_12
REMARK    4  A    between atoms: O_4  and  C_13
REMARK    5  A    between atoms: N_9  and  C_17
REMARK    6  A    between atoms: N_10  and  C_19
REMARK    7  A    between atoms: N_11  and  C_20
REMARK    8  A    between atoms: C_14  and  C_16
REMARK    9  A    between atoms: C_15  and  C_17
REMARK   10  A    between atoms: C_16  and  C_18
REMARK   11  A    between atoms: C_19  and  C_20
REMARK   12  A    between atoms: C_30  and  C_31
REMARK                            x       y       z     vdW  Elec       q    Type
REMARK                         _______ _______ _______ _____ _____    ______ ____
ROOT
ATOM      2  O   UNL     1      16.869   8.411  20.477  0.00  0.00    -0.366 OA
ATOM     12  C   UNL     1      18.519   7.087  21.517  0.00  0.00    +0.175 C 
ATOM     13  C   UNL     1      17.727   6.195  20.582  0.00  0.00    +0.175 C 
ATOM     14  C   UNL     1      18.230   8.464  20.943  0.00  0.00    +0.158 C 
ATOM     15  C   UNL     1      16.474   7.028  20.337  0.00  0.00    +0.165 C 
ENDROOT
BRANCH  12   3
ATOM      3  O   UNL     1      19.901   6.798  21.527  0.00  0.00    -0.387 OA
ATOM     32  H   UNL     1      20.000   5.852  21.729  0.00  0.00    +0.210 HD
ENDBRANCH  12   3
BRANCH  13   4
ATOM      4  O   UNL     1      18.412   6.049  19.339  0.00  0.00    -0.387 OA
ATOM     33  H   UNL     1      18.979   5.263  19.410  0.00  0.00    +0.210 HD
ENDBRANCH  13   4
BRANCH  14  16
ATOM     16  C   UNL     1      18.380   9.582  21.958  0.00  0.00    +0.130 C 
BRANCH  16  18
ATOM      5  O   UNL     1      17.567  11.714  21.154  0.00  0.00    -0.276 OA
ATOM     10  N   UNL     1      16.147  10.355  22.395  0.00  0.00    -0.314 N 
ATOM     18  C   UNL     1      17.347  10.678  21.776  0.00  0.00    +0.216 C 
ATOM     35  H   UNL     1      16.064   9.473  22.892  0.00  0.00    +0.149 HD
BRANCH  10  19
ATOM     19  C   UNL     1      14.993  11.223  22.380  0.00  0.00    +0.119 C 
BRANCH  19  20
ATOM     20  C   UNL     1      14.653  11.710  23.781  0.00  0.00    +0.103 C 
BRANCH  20  11
ATOM      6  O   UNL     1      10.544  11.515  24.616  0.00  0.00    -0.377 OA
ATOM     11  N   UNL     1      13.236  12.059  23.866  0.00  0.00    -0.297 NA
ATOM     21  C   UNL     1      12.798  12.129  25.268  0.00  0.00    +0.112 C 
ATOM     22  C   UNL     1      12.415  11.086  23.132  0.00  0.00    +0.112 C 
ATOM     23  C   UNL     1      11.315  12.482  25.331  0.00  0.00    +0.175 C 
ATOM     24  C   UNL     1      10.941  11.463  23.245  0.00  0.00    +0.175 C 
ENDBRANCH  20  11
ENDBRANCH  19  20
ENDBRANCH  10  19
ENDBRANCH  16  18
ENDBRANCH  14  16
BRANCH  15  17
ATOM     17  C   UNL     1      15.369   6.755  21.349  0.00  0.00    +0.140 C 
BRANCH  17   9
ATOM      9  N   UNL     1      14.193   6.200  20.654  0.00  0.00    -0.187 NA
ATOM     34  H   UNL     1      14.395   5.513  19.917  0.00  0.00    +0.148 HD
BRANCH   9   1
ATOM      1  S   UNL     1      12.765   7.119  20.526  0.00  0.00    +0.058 S 
ATOM      7  O   UNL     1      12.619   7.945  21.710  0.00  0.00    -0.153 OA
ATOM      8  O   UNL     1      11.682   6.252  20.104  0.00  0.00    -0.153 OA
BRANCH   1  25
ATOM     25  C   UNL     1      13.139   8.180  19.163  0.00  0.00    +0.105 A 
ATOM     26  C   UNL     1      12.944   9.556  19.277  0.00  0.00    +0.029 A 
ATOM     27  C   UNL     1      13.627   7.640  17.973  0.00  0.00    +0.029 A 
ATOM     28  C   UNL     1      13.236  10.394  18.200  0.00  0.00    +0.005 A 
ATOM     29  C   UNL     1      13.918   8.478  16.896  0.00  0.00    +0.005 A 
ATOM     30  C   UNL     1      13.723   9.854  17.009  0.00  0.00    -0.050 A 
ATOM     31  C   UNL     1      14.035  10.749  15.858  0.00  0.00    +0.044 C 
ENDBRANCH   1  25
ENDBRANCH   9   1
ENDBRANCH  17   9
ENDBRANCH  15  17
TORSDOF 11
ENDMDL
MODEL 9
REMARK VINA RESULT:      -6.7     27.849     31.260
REMARK  Name = 25390456
REMARK  12 active torsions:
REMARK  status: ('A' for Active; 'I' for Inactive)
REMARK    1  A    between atoms: S_1  and  N_9
REMARK    2  A    between atoms: S_1  and  C_25
REMARK    3  A    between atoms: O_3  and  C_12
REMARK    4  A    between atoms: O_4  and  C_13
REMARK    5  A    between atoms: N_9  and  C_17
REMARK    6  A    between atoms: N_10  and  C_19
REMARK    7  A    between atoms: N_11  and  C_20
REMARK    8  A    between atoms: C_14  and  C_16
REMARK    9  A    between atoms: C_15  and  C_17
REMARK   10  A    between atoms: C_16  and  C_18
REMARK   11  A    between atoms: C_19  and  C_20
REMARK   12  A    between atoms: C_30  and  C_31
REMARK                            x       y       z     vdW  Elec       q    Type
REMARK                         _______ _______ _______ _____ _____    ______ ____
ROOT
ATOM      2  O   UNL     1      -6.497  -9.473  16.980  0.00  0.00    -0.366 OA
ATOM     12  C   UNL     1      -8.162 -10.531  18.270  0.00  0.00    +0.175 C 
ATOM     13  C   UNL     1      -6.819 -10.839  18.900  0.00  0.00    +0.175 C 
ATOM     14  C   UNL     1      -7.840  -9.286  17.460  0.00  0.00    +0.158 C 
ATOM     15  C   UNL     1      -5.854 -10.498  17.770  0.00  0.00    +0.165 C 
ENDROOT
BRANCH  12   3
ATOM      3  O   UNL     1      -9.183 -10.296  19.216  0.00  0.00    -0.387 OA
ATOM     32  H   UNL     1     -10.026 -10.558  18.808  0.00  0.00    +0.210 HD
ENDBRANCH  12   3
BRANCH  13   4
ATOM      4  O   UNL     1      -6.564  -9.947  19.984  0.00  0.00    -0.387 OA
ATOM     33  H   UNL     1      -6.971  -9.093  19.760  0.00  0.00    +0.210 HD
ENDBRANCH  13   4
BRANCH  14  16
ATOM     16  C   UNL     1      -8.778  -9.074  16.285  0.00  0.00    +0.130 C 
BRANCH  16  18
ATOM      5  O   UNL     1     -10.630  -8.184  17.559  0.00  0.00    -0.276 OA
ATOM     10  N   UNL     1      -9.929  -7.065  15.647  0.00  0.00    -0.314 N 
ATOM     18  C   UNL     1      -9.882  -8.081  16.591  0.00  0.00    +0.216 C 
ATOM     35  H   UNL     1      -9.268  -7.070  14.875  0.00  0.00    +0.149 HD
BRANCH  10  19
ATOM     19  C   UNL     1     -10.888  -5.986  15.696  0.00  0.00    +0.119 C 
BRANCH  19  20
ATOM     20  C   UNL     1     -12.121  -6.308  14.863  0.00  0.00    +0.103 C 
BRANCH  20  11
ATOM      6  O   UNL     1     -13.131  -4.678  11.129  0.00  0.00    -0.377 OA
ATOM     11  N   UNL     1     -12.010  -5.699  13.538  0.00  0.00    -0.297 NA
ATOM     21  C   UNL     1     -12.700  -4.402  13.500  0.00  0.00    +0.112 C 
ATOM     22  C   UNL     1     -12.559  -6.591  12.507  0.00  0.00    +0.112 C 
ATOM     23  C   UNL     1     -12.582  -3.793  12.106  0.00  0.00    +0.175 C 
ATOM     24  C   UNL     1     -12.444  -5.931  11.137  0.00  0.00    +0.175 C 
ENDBRANCH  20  11
ENDBRANCH  19  20
ENDBRANCH  10  19
ENDBRANCH  16  18
ENDBRANCH  14  16
BRANCH  15  17
ATOM     17  C   UNL     1      -5.566 -11.680  16.855  0.00  0.00    +0.140 C 
BRANCH  17   9
ATOM      9  N   UNL     1      -5.165 -11.185  15.525  0.00  0.00    -0.187 NA
ATOM     34  H   UNL     1      -5.914 -11.144  14.822  0.00  0.00    +0.148 HD
BRANCH   9   1
ATOM      1  S   UNL     1      -3.565 -11.394  14.983  0.00  0.00    +0.058 S 
ATOM      7  O   UNL     1      -3.282 -12.811  14.857  0.00  0.00    -0.153 OA
ATOM      8  O   UNL     1      -2.688 -10.542  15.763  0.00  0.00    -0.153 OA
BRANCH   1  25
ATOM     25  C   UNL     1      -3.641 -10.707  13.356  0.00  0.00    +0.105 A 
ATOM     26  C   UNL     1      -4.863 -10.280  12.837  0.00  0.00    +0.029 A 
ATOM     27  C   UNL     1      -2.480 -10.593  12.592  0.00  0.00    +0.029 A 
ATOM     28  C   UNL     1      -4.925  -9.740  11.552  0.00  0.00    +0.005 A 
ATOM     29  C   UNL     1      -2.542 -10.053  11.307  0.00  0.00    +0.005 A 
ATOM     30  C   UNL     1      -3.763  -9.626  10.787  0.00  0.00    -0.050 A 
ATOM     31  C   UNL     1      -3.829  -9.049   9.414  0.00  0.00    +0.044 C 
ENDBRANCH   1  25
ENDBRANCH   9   1
ENDBRANCH  17   9
ENDBRANCH  15  17
TORSDOF 11
ENDMDL
MODEL 10
REMARK VINA RESULT:      -6.6      3.739      6.802
REMARK  Name = 25390456
REMARK  12 active torsions:
REMARK  status: ('A' for Active; 'I' for Inactive)
REMARK    1  A    between atoms: S_1  and  N_9
REMARK    2  A    between atoms: S_1  and  C_25
REMARK    3  A    between atoms: O_3  and  C_12
REMARK    4  A    between atoms: O_4  and  C_13
REMARK    5  A    between atoms: N_9  and  C_17
REMARK    6  A    between atoms: N_10  and  C_19
REMARK    7  A    between atoms: N_11  and  C_20
REMARK    8  A    between atoms: C_14  and  C_16
REMARK    9  A    between atoms: C_15  and  C_17
REMARK   10  A    between atoms: C_16  and  C_18
REMARK   11  A    between atoms: C_19  and  C_20
REMARK   12  A    between atoms: C_30  and  C_31
REMARK                            x       y       z     vdW  Elec       q    Type
REMARK                         _______ _______ _______ _____ _____    ______ ____
ROOT
ATOM      2  O   UNL     1      11.886  10.492  20.795  0.00  0.00    -0.366 OA
ATOM     12  C   UNL     1      11.054   8.743  22.139  0.00  0.00    +0.175 C 
ATOM     13  C   UNL     1      11.337   9.928  23.040  0.00  0.00    +0.175 C 
ATOM     14  C   UNL     1      10.933   9.414  20.781  0.00  0.00    +0.158 C 
ATOM     15  C   UNL     1      12.249  10.780  22.164  0.00  0.00    +0.165 C 
ENDROOT
BRANCH  12   3
ATOM      3  O   UNL     1       9.880   8.043  22.489  0.00  0.00    -0.387 OA
ATOM     32  H   UNL     1       9.319   8.650  23.002  0.00  0.00    +0.210 HD
ENDBRANCH  12   3
BRANCH  13   4
ATOM      4  O   UNL     1      10.138  10.665  23.280  0.00  0.00    -0.387 OA
ATOM     33  H   UNL     1      10.343  11.605  23.144  0.00  0.00    +0.210 HD
ENDBRANCH  13   4
BRANCH  14  16
ATOM     16  C   UNL     1      11.232   8.483  19.621  0.00  0.00    +0.130 C 
BRANCH  16  18
ATOM      5  O   UNL     1      11.724   6.219  20.316  0.00  0.00    -0.276 OA
ATOM     10  N   UNL     1      13.477   7.710  19.986  0.00  0.00    -0.314 N 
ATOM     18  C   UNL     1      12.141   7.334  20.014  0.00  0.00    +0.216 C 
ATOM     35  H   UNL     1      13.723   8.661  19.727  0.00  0.00    +0.149 HD
BRANCH  10  19
ATOM     19  C   UNL     1      14.556   6.809  20.319  0.00  0.00    +0.119 C 
BRANCH  19  20
ATOM     20  C   UNL     1      15.607   6.779  19.218  0.00  0.00    +0.103 C 
BRANCH  20  11
ATOM      6  O   UNL     1      18.992   6.867  21.698  0.00  0.00    -0.377 OA
ATOM     11  N   UNL     1      16.921   7.119  19.762  0.00  0.00    -0.297 NA
ATOM     21  C   UNL     1      17.788   5.933  19.810  0.00  0.00    +0.112 C 
ATOM     22  C   UNL     1      16.793   7.704  21.104  0.00  0.00    +0.112 C 
ATOM     23  C   UNL     1      19.147   6.309  20.392  0.00  0.00    +0.175 C 
ATOM     24  C   UNL     1      18.176   8.039  21.656  0.00  0.00    +0.175 C 
ENDBRANCH  20  11
ENDBRANCH  19  20
ENDBRANCH  10  19
ENDBRANCH  16  18
ENDBRANCH  14  16
BRANCH  15  17
ATOM     17  C   UNL     1      13.724  10.445  22.335  0.00  0.00    +0.140 C 
BRANCH  17   9
ATOM      9  N   UNL     1      14.372  10.387  21.012  0.00  0.00    -0.187 NA
ATOM     34  H   UNL     1      14.521   9.444  20.632  0.00  0.00    +0.148 HD
BRANCH   9   1
ATOM      1  S   UNL     1      15.430  11.628  20.525  0.00  0.00    +0.058 S 
ATOM      7  O   UNL     1      16.776  11.309  20.962  0.00  0.00    -0.153 OA
ATOM      8  O   UNL     1      14.840  12.910  20.859  0.00  0.00    -0.153 OA
BRANCH   1  25
ATOM     25  C   UNL     1      15.378  11.478  18.764  0.00  0.00    +0.105 A 
ATOM     26  C   UNL     1      14.629  10.460  18.174  0.00  0.00    +0.029 A 
ATOM     27  C   UNL     1      16.087  12.375  17.967  0.00  0.00    +0.029 A 
ATOM     28  C   UNL     1      14.590  10.339  16.785  0.00  0.00    +0.005 A 
ATOM     29  C   UNL     1      16.048  12.254  16.577  0.00  0.00    +0.005 A 
ATOM     30  C   UNL     1      15.300  11.237  15.986  0.00  0.00    -0.050 A 
ATOM     31  C   UNL     1      15.258  11.107  14.502  0.00  0.00    +0.044 C 
ENDBRANCH   1  25
ENDBRANCH   9   1
ENDBRANCH  17   9
ENDBRANCH  15  17
TORSDOF 11
ENDMDL
