MODEL 1
REMARK VINA RESULT:      -6.7      0.000      0.000
REMARK  Name = 45783914
REMARK  12 active torsions:
REMARK  status: ('A' for Active; 'I' for Inactive)
REMARK    1  A    between atoms: O_2  and  C_26
REMARK    2  A    between atoms: N_3  and  C_13
REMARK    3  A    between atoms: N_4  and  C_25
REMARK    4  A    between atoms: C_8  and  C_12
REMARK    5  A    between atoms: C_9  and  C_13
REMARK    6  A    between atoms: C_11  and  C_16
REMARK    7  A    between atoms: C_12  and  C_19
REMARK    8  A    between atoms: C_12  and  C_20
REMARK    9  A    between atoms: C_15  and  C_23
REMARK   10  A    between atoms: C_16  and  C_24
REMARK   11  A    between atoms: C_25  and  C_26
REMARK   12  A    between atoms: C_27  and  C_28
REMARK                            x       y       z     vdW  Elec       q    Type
REMARK                         _______ _______ _______ _____ _____    ______ ____
ROOT
ATOM      8  C   UNL     1      -5.908 -10.204  10.118  0.00  0.00    +0.000 C 
ATOM      9  C   UNL     1      -5.059  -9.805   8.888  0.00  0.00    +0.029 C 
ATOM     10  C   UNL     1      -5.066 -11.017  11.111  0.00  0.00    +0.012 C 
ATOM     11  C   UNL     1      -3.794 -10.281  11.581  0.00  0.00    +0.024 C 
ATOM     14  C   UNL     1      -3.685  -9.314   9.266  0.00  0.00    -0.023 C 
ATOM     15  C   UNL     1      -3.108  -9.505  10.467  0.00  0.00    -0.073 C 
ATOM     23  C   UNL     1      -1.766  -8.896  10.768  0.00  0.00    +0.039 C 
ENDROOT
BRANCH   8  12
ATOM     12  C   UNL     1      -6.526  -8.972  10.794  0.00  0.00    -0.013 C 
ATOM     19  C   UNL     1      -7.685  -8.433   9.959  0.00  0.00    +0.007 C 
ATOM     20  C   UNL     1      -6.990  -9.316  12.204  0.00  0.00    +0.007 C 
ENDBRANCH   8  12
BRANCH   9  13
ATOM     13  C   UNL     1      -4.924 -10.963   7.895  0.00  0.00    +0.092 C 
BRANCH  13   3
ATOM      3  N   UNL     1      -5.359 -10.554   6.561  0.00  0.00    -0.299 NA
ATOM      4  N   UNL     1      -7.351 -10.216   4.494  0.00  0.00    -0.298 NA
ATOM     17  C   UNL     1      -5.877 -11.702   5.806  0.00  0.00    +0.100 C 
ATOM     18  C   UNL     1      -6.373  -9.496   6.645  0.00  0.00    +0.100 C 
ATOM     21  C   UNL     1      -6.337 -11.273   4.409  0.00  0.00    +0.100 C 
ATOM     22  C   UNL     1      -6.831  -9.068   5.246  0.00  0.00    +0.100 C 
BRANCH   4  25
ATOM     25  C   UNL     1      -7.788  -9.808   3.159  0.00  0.00    +0.112 C 
BRANCH  25  26
ATOM     26  C   UNL     1      -8.016  -8.305   3.105  0.00  0.00    +0.171 C 
BRANCH  26   2
ATOM      2  O   UNL     1      -7.366  -7.787   1.952  0.00  0.00    -0.394 OA
ATOM     33  H   UNL     1      -8.033  -7.742   1.245  0.00  0.00    +0.209 HD
ENDBRANCH  26   2
ENDBRANCH  25  26
ENDBRANCH   4  25
ENDBRANCH  13   3
ENDBRANCH   9  13
BRANCH  11  16
ATOM     16  C   UNL     1      -2.865 -11.294  12.262  0.00  0.00    +0.105 C 
BRANCH  16  24
ATOM      1  O   UNL     1      -4.014 -10.939  14.386  0.00  0.00    -0.420 OA
ATOM      5  N   UNL     1      -1.784 -11.017  14.553  0.00  0.00    -0.112 NA
ATOM      6  N   UNL     1      -2.301 -10.814  15.819  0.00  0.00    -0.107 NA
ATOM     24  C   UNL     1      -2.821 -11.085  13.749  0.00  0.00    +0.218 A 
ATOM     27  C   UNL     1      -3.605 -10.775  15.674  0.00  0.00    +0.248 A 
BRANCH  27  28
ATOM      7  N   UNL     1      -6.673 -10.232  18.534  0.00  0.00    -0.263 NA
ATOM     28  C   UNL     1      -4.645 -10.590  16.644  0.00  0.00    +0.041 A 
ATOM     29  C   UNL     1      -5.789  -9.873  16.312  0.00  0.00    +0.033 A 
ATOM     30  C   UNL     1      -4.513 -11.128  17.919  0.00  0.00    +0.033 A 
ATOM     31  C   UNL     1      -6.765  -9.724  17.285  0.00  0.00    +0.111 A 
ATOM     32  C   UNL     1      -5.546 -10.922  18.820  0.00  0.00    +0.111 A 
ENDBRANCH  27  28
ENDBRANCH  16  24
ENDBRANCH  11  16
TORSDOF 9
ENDMDL
MODEL 2
REMARK VINA RESULT:      -6.4     21.781     26.637
REMARK  Name = 45783914
REMARK  12 active torsions:
REMARK  status: ('A' for Active; 'I' for Inactive)
REMARK    1  A    between atoms: O_2  and  C_26
REMARK    2  A    between atoms: N_3  and  C_13
REMARK    3  A    between atoms: N_4  and  C_25
REMARK    4  A    between atoms: C_8  and  C_12
REMARK    5  A    between atoms: C_9  and  C_13
REMARK    6  A    between atoms: C_11  and  C_16
REMARK    7  A    between atoms: C_12  and  C_19
REMARK    8  A    between atoms: C_12  and  C_20
REMARK    9  A    between atoms: C_15  and  C_23
REMARK   10  A    between atoms: C_16  and  C_24
REMARK   11  A    between atoms: C_25  and  C_26
REMARK   12  A    between atoms: C_27  and  C_28
REMARK                            x       y       z     vdW  Elec       q    Type
REMARK                         _______ _______ _______ _____ _____    ______ ____
ROOT
ATOM      8  C   UNL     1     -15.089   2.286  30.170  0.00  0.00    +0.000 C 
ATOM      9  C   UNL     1     -16.290   2.428  29.207  0.00  0.00    +0.029 C 
ATOM     10  C   UNL     1     -14.830   3.611  30.903  0.00  0.00    +0.012 C 
ATOM     11  C   UNL     1     -16.057   4.128  31.683  0.00  0.00    +0.024 C 
ATOM     14  C   UNL     1     -17.449   3.166  29.828  0.00  0.00    -0.023 C 
ATOM     15  C   UNL     1     -17.367   3.920  30.940  0.00  0.00    -0.073 C 
ATOM     23  C   UNL     1     -18.605   4.544  31.524  0.00  0.00    +0.039 C 
ENDROOT
BRANCH   8  12
ATOM     12  C   UNL     1     -15.301   1.135  31.163  0.00  0.00    -0.013 C 
ATOM     19  C   UNL     1     -15.071  -0.208  30.477  0.00  0.00    +0.007 C 
ATOM     20  C   UNL     1     -14.376   1.293  32.365  0.00  0.00    +0.007 C 
ENDBRANCH   8  12
BRANCH   9  13
ATOM     13  C   UNL     1     -15.890   3.124  27.902  0.00  0.00    +0.092 C 
BRANCH  13   3
ATOM      3  N   UNL     1     -16.720   2.659  26.793  0.00  0.00    -0.299 NA
ATOM      4  N   UNL     1     -17.176   1.131  24.382  0.00  0.00    -0.298 NA
ATOM     17  C   UNL     1     -16.153   3.079  25.506  0.00  0.00    +0.100 C 
ATOM     18  C   UNL     1     -16.877   1.200  26.833  0.00  0.00    +0.100 C 
ATOM     21  C   UNL     1     -17.021   2.590  24.341  0.00  0.00    +0.100 C 
ATOM     22  C   UNL     1     -17.745   0.713  25.668  0.00  0.00    +0.100 C 
BRANCH   4  25
ATOM     25  C   UNL     1     -18.005   0.666  23.271  0.00  0.00    +0.112 C 
BRANCH  25  26
ATOM     26  C   UNL     1     -18.400  -0.789  23.467  0.00  0.00    +0.171 C 
BRANCH  26   2
ATOM      2  O   UNL     1     -17.265  -1.607  23.219  0.00  0.00    -0.394 OA
ATOM     33  H   UNL     1     -17.556  -2.531  23.302  0.00  0.00    +0.209 HD
ENDBRANCH  26   2
ENDBRANCH  25  26
ENDBRANCH   4  25
ENDBRANCH  13   3
ENDBRANCH   9  13
BRANCH  11  16
ATOM     16  C   UNL     1     -15.813   5.594  32.063  0.00  0.00    +0.105 C 
BRANCH  16  24
ATOM      1  O   UNL     1     -14.285   6.835  33.507  0.00  0.00    -0.420 OA
ATOM      5  N   UNL     1     -14.942   4.867  34.344  0.00  0.00    -0.112 NA
ATOM      6  N   UNL     1     -14.088   5.457  35.258  0.00  0.00    -0.107 NA
ATOM     24  C   UNL     1     -15.028   5.708  33.339  0.00  0.00    +0.218 A 
ATOM     27  C   UNL     1     -13.730   6.603  34.727  0.00  0.00    +0.248 A 
BRANCH  27  28
ATOM      7  N   UNL     1     -11.167   9.629  36.200  0.00  0.00    -0.263 NA
ATOM     28  C   UNL     1     -12.861   7.628  35.227  0.00  0.00    +0.041 A 
ATOM     29  C   UNL     1     -12.473   8.678  34.401  0.00  0.00    +0.033 A 
ATOM     30  C   UNL     1     -12.402   7.577  36.538  0.00  0.00    +0.033 A 
ATOM     31  C   UNL     1     -11.633   9.644  34.931  0.00  0.00    +0.111 A 
ATOM     32  C   UNL     1     -11.565   8.593  36.973  0.00  0.00    +0.111 A 
ENDBRANCH  27  28
ENDBRANCH  16  24
ENDBRANCH  11  16
TORSDOF 9
ENDMDL
MODEL 3
REMARK VINA RESULT:      -6.4     23.578     28.866
REMARK  Name = 45783914
REMARK  12 active torsions:
REMARK  status: ('A' for Active; 'I' for Inactive)
REMARK    1  A    between atoms: O_2  and  C_26
REMARK    2  A    between atoms: N_3  and  C_13
REMARK    3  A    between atoms: N_4  and  C_25
REMARK    4  A    between atoms: C_8  and  C_12
REMARK    5  A    between atoms: C_9  and  C_13
REMARK    6  A    between atoms: C_11  and  C_16
REMARK    7  A    between atoms: C_12  and  C_19
REMARK    8  A    between atoms: C_12  and  C_20
REMARK    9  A    between atoms: C_15  and  C_23
REMARK   10  A    between atoms: C_16  and  C_24
REMARK   11  A    between atoms: C_25  and  C_26
REMARK   12  A    between atoms: C_27  and  C_28
REMARK                            x       y       z     vdW  Elec       q    Type
REMARK                         _______ _______ _______ _____ _____    ______ ____
ROOT
ATOM      8  C   UNL     1     -14.846   5.321  32.812  0.00  0.00    +0.000 C 
ATOM      9  C   UNL     1     -15.906   5.631  31.730  0.00  0.00    +0.029 C 
ATOM     10  C   UNL     1     -13.587   6.172  32.590  0.00  0.00    +0.012 C 
ATOM     11  C   UNL     1     -13.870   7.689  32.568  0.00  0.00    +0.024 C 
ATOM     14  C   UNL     1     -16.051   7.109  31.467  0.00  0.00    -0.023 C 
ATOM     15  C   UNL     1     -15.160   8.044  31.844  0.00  0.00    -0.073 C 
ATOM     23  C   UNL     1     -15.446   9.502  31.607  0.00  0.00    +0.039 C 
ENDROOT
BRANCH   8  12
ATOM     12  C   UNL     1     -15.411   5.525  34.224  0.00  0.00    -0.013 C 
ATOM     19  C   UNL     1     -16.841   4.999  34.305  0.00  0.00    +0.007 C 
ATOM     20  C   UNL     1     -14.523   4.839  35.257  0.00  0.00    +0.007 C 
ENDBRANCH   8  12
BRANCH   9  13
ATOM     13  C   UNL     1     -15.598   4.913  30.413  0.00  0.00    +0.092 C 
BRANCH  13   3
ATOM      3  N   UNL     1     -15.342   3.493  30.646  0.00  0.00    -0.299 NA
ATOM      4  N   UNL     1     -14.584   0.839  29.787  0.00  0.00    -0.298 NA
ATOM     17  C   UNL     1     -16.251   2.662  29.847  0.00  0.00    +0.100 C 
ATOM     18  C   UNL     1     -13.944   3.159  30.346  0.00  0.00    +0.100 C 
ATOM     21  C   UNL     1     -15.982   1.172  30.088  0.00  0.00    +0.100 C 
ATOM     22  C   UNL     1     -13.677   1.669  30.588  0.00  0.00    +0.100 C 
BRANCH   4  25
ATOM     25  C   UNL     1     -14.329  -0.582  30.019  0.00  0.00    +0.112 C 
BRANCH  25  26
ATOM     26  C   UNL     1     -13.005  -0.998  29.398  0.00  0.00    +0.171 C 
BRANCH  26   2
ATOM      2  O   UNL     1     -13.068  -2.380  29.070  0.00  0.00    -0.394 OA
ATOM     33  H   UNL     1     -12.279  -2.583  28.540  0.00  0.00    +0.209 HD
ENDBRANCH  26   2
ENDBRANCH  25  26
ENDBRANCH   4  25
ENDBRANCH  13   3
ENDBRANCH   9  13
BRANCH  11  16
ATOM     16  C   UNL     1     -12.645   8.408  31.990  0.00  0.00    +0.105 C 
BRANCH  16  24
ATOM      1  O   UNL     1     -10.671   9.664  32.688  0.00  0.00    -0.420 OA
ATOM      5  N   UNL     1     -11.943   8.941  34.381  0.00  0.00    -0.112 NA
ATOM      6  N   UNL     1     -10.870   9.630  34.916  0.00  0.00    -0.107 NA
ATOM     24  C   UNL     1     -11.785   8.987  33.078  0.00  0.00    +0.218 A 
ATOM     27  C   UNL     1     -10.155  10.034  33.891  0.00  0.00    +0.248 A 
BRANCH  27  28
ATOM      7  N   UNL     1      -6.562  12.262  33.759  0.00  0.00    -0.263 NA
ATOM     28  C   UNL     1      -8.938  10.790  33.847  0.00  0.00    +0.041 A 
ATOM     29  C   UNL     1      -8.045  10.741  34.913  0.00  0.00    +0.033 A 
ATOM     30  C   UNL     1      -8.644  11.575  32.738  0.00  0.00    +0.033 A 
ATOM     31  C   UNL     1      -6.883  11.489  34.820  0.00  0.00    +0.111 A 
ATOM     32  C   UNL     1      -7.454  12.286  32.743  0.00  0.00    +0.111 A 
ENDBRANCH  27  28
ENDBRANCH  16  24
ENDBRANCH  11  16
TORSDOF 9
ENDMDL
MODEL 4
REMARK VINA RESULT:      -6.3     20.927     22.350
REMARK  Name = 45783914
REMARK  12 active torsions:
REMARK  status: ('A' for Active; 'I' for Inactive)
REMARK    1  A    between atoms: O_2  and  C_26
REMARK    2  A    between atoms: N_3  and  C_13
REMARK    3  A    between atoms: N_4  and  C_25
REMARK    4  A    between atoms: C_8  and  C_12
REMARK    5  A    between atoms: C_9  and  C_13
REMARK    6  A    between atoms: C_11  and  C_16
REMARK    7  A    between atoms: C_12  and  C_19
REMARK    8  A    between atoms: C_12  and  C_20
REMARK    9  A    between atoms: C_15  and  C_23
REMARK   10  A    between atoms: C_16  and  C_24
REMARK   11  A    between atoms: C_25  and  C_26
REMARK   12  A    between atoms: C_27  and  C_28
REMARK                            x       y       z     vdW  Elec       q    Type
REMARK                         _______ _______ _______ _____ _____    ______ ____
ROOT
ATOM      8  C   UNL     1     -13.300   8.989  20.408  0.00  0.00    +0.000 C 
ATOM      9  C   UNL     1     -11.955   8.250  20.211  0.00  0.00    +0.029 C 
ATOM     10  C   UNL     1     -14.475   8.008  20.287  0.00  0.00    +0.012 C 
ATOM     11  C   UNL     1     -14.388   6.826  21.275  0.00  0.00    +0.024 C 
ATOM     14  C   UNL     1     -11.901   6.938  20.952  0.00  0.00    -0.023 C 
ATOM     15  C   UNL     1     -12.974   6.293  21.445  0.00  0.00    -0.073 C 
ATOM     23  C   UNL     1     -12.798   5.031  22.245  0.00  0.00    +0.039 C 
ENDROOT
BRANCH   8  12
ATOM     12  C   UNL     1     -13.337   9.736  21.749  0.00  0.00    -0.013 C 
ATOM     19  C   UNL     1     -12.241  10.796  21.797  0.00  0.00    +0.007 C 
ATOM     20  C   UNL     1     -14.708  10.364  21.970  0.00  0.00    +0.007 C 
ENDBRANCH   8  12
BRANCH   9  13
ATOM     13  C   UNL     1     -11.657   8.005  18.729  0.00  0.00    +0.092 C 
BRANCH  13   3
ATOM      3  N   UNL     1     -11.421   9.268  18.033  0.00  0.00    -0.299 NA
ATOM      4  N   UNL     1      -9.745  11.166  16.639  0.00  0.00    -0.298 NA
ATOM     17  C   UNL     1     -10.432  10.082  18.750  0.00  0.00    +0.100 C 
ATOM     18  C   UNL     1     -10.985   9.029  16.652  0.00  0.00    +0.100 C 
ATOM     21  C   UNL     1     -10.181  11.406  18.019  0.00  0.00    +0.100 C 
ATOM     22  C   UNL     1     -10.735  10.354  15.922  0.00  0.00    +0.100 C 
BRANCH   4  25
ATOM     25  C   UNL     1      -9.507  12.430  15.943  0.00  0.00    +0.112 C 
BRANCH  25  26
ATOM     26  C   UNL     1      -8.233  13.089  16.446  0.00  0.00    +0.171 C 
BRANCH  26   2
ATOM      2  O   UNL     1      -7.440  13.462  15.327  0.00  0.00    -0.394 OA
ATOM     33  H   UNL     1      -7.775  12.963  14.562  0.00  0.00    +0.209 HD
ENDBRANCH  26   2
ENDBRANCH  25  26
ENDBRANCH   4  25
ENDBRANCH  13   3
ENDBRANCH   9  13
BRANCH  11  16
ATOM     16  C   UNL     1     -15.383   5.744  20.833  0.00  0.00    +0.105 C 
BRANCH  16  24
ATOM      1  O   UNL     1     -16.146   3.926  22.273  0.00  0.00    -0.420 OA
ATOM      5  N   UNL     1     -17.009   5.926  22.786  0.00  0.00    -0.112 NA
ATOM      6  N   UNL     1     -17.522   4.998  23.674  0.00  0.00    -0.107 NA
ATOM     24  C   UNL     1     -16.211   5.256  21.988  0.00  0.00    +0.218 A 
ATOM     27  C   UNL     1     -16.991   3.846  23.337  0.00  0.00    +0.248 A 
BRANCH  27  28
ATOM      7  N   UNL     1     -17.489  -0.005  25.014  0.00  0.00    -0.263 NA
ATOM     28  C   UNL     1     -17.160   2.541  23.906  0.00  0.00    +0.041 A 
ATOM     29  C   UNL     1     -17.934   1.588  23.251  0.00  0.00    +0.033 A 
ATOM     30  C   UNL     1     -16.552   2.222  25.114  0.00  0.00    +0.033 A 
ATOM     31  C   UNL     1     -18.065   0.342  23.842  0.00  0.00    +0.111 A 
ATOM     32  C   UNL     1     -16.746   0.947  25.622  0.00  0.00    +0.111 A 
ENDBRANCH  27  28
ENDBRANCH  16  24
ENDBRANCH  11  16
TORSDOF 9
ENDMDL
MODEL 5
REMARK VINA RESULT:      -6.3      2.824      9.805
REMARK  Name = 45783914
REMARK  12 active torsions:
REMARK  status: ('A' for Active; 'I' for Inactive)
REMARK    1  A    between atoms: O_2  and  C_26
REMARK    2  A    between atoms: N_3  and  C_13
REMARK    3  A    between atoms: N_4  and  C_25
REMARK    4  A    between atoms: C_8  and  C_12
REMARK    5  A    between atoms: C_9  and  C_13
REMARK    6  A    between atoms: C_11  and  C_16
REMARK    7  A    between atoms: C_12  and  C_19
REMARK    8  A    between atoms: C_12  and  C_20
REMARK    9  A    between atoms: C_15  and  C_23
REMARK   10  A    between atoms: C_16  and  C_24
REMARK   11  A    between atoms: C_25  and  C_26
REMARK   12  A    between atoms: C_27  and  C_28
REMARK                            x       y       z     vdW  Elec       q    Type
REMARK                         _______ _______ _______ _____ _____    ______ ____
ROOT
ATOM      8  C   UNL     1      -4.945 -12.059  15.330  0.00  0.00    +0.000 C 
ATOM      9  C   UNL     1      -4.669 -11.061  16.478  0.00  0.00    +0.029 C 
ATOM     10  C   UNL     1      -4.338 -11.548  14.015  0.00  0.00    +0.012 C 
ATOM     11  C   UNL     1      -2.821 -11.277  14.107  0.00  0.00    +0.024 C 
ATOM     14  C   UNL     1      -3.251 -10.547  16.471  0.00  0.00    -0.023 C 
ATOM     15  C   UNL     1      -2.407 -10.645  15.427  0.00  0.00    -0.073 C 
ATOM     23  C   UNL     1      -0.983 -10.175  15.557  0.00  0.00    +0.039 C 
ENDROOT
BRANCH   8  12
ATOM     12  C   UNL     1      -4.426 -13.463  15.672  0.00  0.00    -0.013 C 
ATOM     19  C   UNL     1      -5.078 -13.972  16.954  0.00  0.00    +0.007 C 
ATOM     20  C   UNL     1      -4.684 -14.421  14.515  0.00  0.00    +0.007 C 
ENDBRANCH   8  12
BRANCH   9  13
ATOM     13  C   UNL     1      -5.635  -9.873  16.440  0.00  0.00    +0.092 C 
BRANCH  13   3
ATOM      3  N   UNL     1      -6.725 -10.063  17.395  0.00  0.00    -0.299 NA
ATOM      4  N   UNL     1      -8.565 -11.699  18.910  0.00  0.00    -0.298 NA
ATOM     17  C   UNL     1      -7.874 -10.714  16.752  0.00  0.00    +0.100 C 
ATOM     18  C   UNL     1      -6.274 -10.845  18.552  0.00  0.00    +0.100 C 
ATOM     21  C   UNL     1      -9.016 -10.917  17.753  0.00  0.00    +0.100 C 
ATOM     22  C   UNL     1      -7.418 -11.047  19.553  0.00  0.00    +0.100 C 
BRANCH   4  25
ATOM     25  C   UNL     1      -9.656 -11.890  19.864  0.00  0.00    +0.112 C 
BRANCH  25  26
ATOM     26  C   UNL     1     -10.610 -10.707  19.833  0.00  0.00    +0.171 C 
BRANCH  26   2
ATOM      2  O   UNL     1     -10.342  -9.876  20.955  0.00  0.00    -0.394 OA
ATOM     33  H   UNL     1     -10.630  -8.977  20.720  0.00  0.00    +0.209 HD
ENDBRANCH  26   2
ENDBRANCH  25  26
ENDBRANCH   4  25
ENDBRANCH  13   3
ENDBRANCH   9  13
BRANCH  11  16
ATOM     16  C   UNL     1      -2.397 -10.447  12.889  0.00  0.00    +0.105 C 
BRANCH  16  24
ATOM      1  O   UNL     1      -3.874 -10.058  10.985  0.00  0.00    -0.420 OA
ATOM      5  N   UNL     1      -2.979 -12.108  11.048  0.00  0.00    -0.112 NA
ATOM      6  N   UNL     1      -3.785 -12.028   9.927  0.00  0.00    -0.107 NA
ATOM     24  C   UNL     1      -3.060 -10.935  11.634  0.00  0.00    +0.218 A 
ATOM     27  C   UNL     1      -4.287 -10.814   9.932  0.00  0.00    +0.248 A 
BRANCH  27  28
ATOM      7  N   UNL     1      -6.934  -8.926   7.226  0.00  0.00    -0.263 NA
ATOM     28  C   UNL     1      -5.185 -10.175   9.014  0.00  0.00    +0.041 A 
ATOM     29  C   UNL     1      -6.140  -9.279   9.483  0.00  0.00    +0.033 A 
ATOM     30  C   UNL     1      -5.104 -10.448   7.654  0.00  0.00    +0.033 A 
ATOM     31  C   UNL     1      -6.983  -8.687   8.556  0.00  0.00    +0.111 A 
ATOM     32  C   UNL     1      -5.994  -9.804   6.809  0.00  0.00    +0.111 A 
ENDBRANCH  27  28
ENDBRANCH  16  24
ENDBRANCH  11  16
TORSDOF 9
ENDMDL
MODEL 6
REMARK VINA RESULT:      -6.2     20.647     21.763
REMARK  Name = 45783914
REMARK  12 active torsions:
REMARK  status: ('A' for Active; 'I' for Inactive)
REMARK    1  A    between atoms: O_2  and  C_26
REMARK    2  A    between atoms: N_3  and  C_13
REMARK    3  A    between atoms: N_4  and  C_25
REMARK    4  A    between atoms: C_8  and  C_12
REMARK    5  A    between atoms: C_9  and  C_13
REMARK    6  A    between atoms: C_11  and  C_16
REMARK    7  A    between atoms: C_12  and  C_19
REMARK    8  A    between atoms: C_12  and  C_20
REMARK    9  A    between atoms: C_15  and  C_23
REMARK   10  A    between atoms: C_16  and  C_24
REMARK   11  A    between atoms: C_25  and  C_26
REMARK   12  A    between atoms: C_27  and  C_28
REMARK                            x       y       z     vdW  Elec       q    Type
REMARK                         _______ _______ _______ _____ _____    ______ ____
ROOT
ATOM      8  C   UNL     1     -13.121   8.835  20.144  0.00  0.00    +0.000 C 
ATOM      9  C   UNL     1     -11.829   8.005  19.962  0.00  0.00    +0.029 C 
ATOM     10  C   UNL     1     -14.350   7.915  20.185  0.00  0.00    +0.012 C 
ATOM     11  C   UNL     1     -14.271   6.839  21.289  0.00  0.00    +0.024 C 
ATOM     14  C   UNL     1     -11.801   6.777  20.836  0.00  0.00    -0.023 C 
ATOM     15  C   UNL     1     -12.878   6.248  21.446  0.00  0.00    -0.073 C 
ATOM     23  C   UNL     1     -12.723   5.068  22.367  0.00  0.00    +0.039 C 
ENDROOT
BRANCH   8  12
ATOM     12  C   UNL     1     -13.048   9.718  21.397  0.00  0.00    -0.013 C 
ATOM     19  C   UNL     1     -11.941  10.758  21.250  0.00  0.00    +0.007 C 
ATOM     20  C   UNL     1     -14.392  10.391  21.653  0.00  0.00    +0.007 C 
ENDBRANCH   8  12
BRANCH   9  13
ATOM     13  C   UNL     1     -11.624   7.590  18.502  0.00  0.00    +0.092 C 
BRANCH  13   3
ATOM      3  N   UNL     1     -11.780   8.738  17.611  0.00  0.00    -0.299 NA
ATOM      4  N   UNL     1     -11.639  10.032  15.030  0.00  0.00    -0.298 NA
ATOM     17  C   UNL     1     -10.491   9.115  17.017  0.00  0.00    +0.100 C 
ATOM     18  C   UNL     1     -12.766   8.454  16.562  0.00  0.00    +0.100 C 
ATOM     21  C   UNL     1     -10.654  10.317  16.079  0.00  0.00    +0.100 C 
ATOM     22  C   UNL     1     -12.927   9.657  15.626  0.00  0.00    +0.100 C 
BRANCH   4  25
ATOM     25  C   UNL     1     -11.794  11.180  14.138  0.00  0.00    +0.112 C 
BRANCH  25  26
ATOM     26  C   UNL     1     -11.988  10.721  12.701  0.00  0.00    +0.171 C 
BRANCH  26   2
ATOM      2  O   UNL     1     -11.329   9.474  12.528  0.00  0.00    -0.394 OA
ATOM     33  H   UNL     1     -11.981   8.778  12.722  0.00  0.00    +0.209 HD
ENDBRANCH  26   2
ENDBRANCH  25  26
ENDBRANCH   4  25
ENDBRANCH  13   3
ENDBRANCH   9  13
BRANCH  11  16
ATOM     16  C   UNL     1     -15.342   5.775  21.014  0.00  0.00    +0.105 C 
BRANCH  16  24
ATOM      1  O   UNL     1     -16.148   3.949  22.419  0.00  0.00    -0.420 OA
ATOM      5  N   UNL     1     -16.400   5.981  23.322  0.00  0.00    -0.112 NA
ATOM      6  N   UNL     1     -16.894   5.050  24.218  0.00  0.00    -0.107 NA
ATOM     24  C   UNL     1     -15.975   5.293  22.288  0.00  0.00    +0.218 A 
ATOM     27  C   UNL     1     -16.726   3.879  23.649  0.00  0.00    +0.248 A 
BRANCH  27  28
ATOM      7  N   UNL     1     -17.689  -0.003  25.026  0.00  0.00    -0.263 NA
ATOM     28  C   UNL     1     -17.052   2.563  24.115  0.00  0.00    +0.041 A 
ATOM     29  C   UNL     1     -16.537   2.102  25.322  0.00  0.00    +0.033 A 
ATOM     30  C   UNL     1     -17.884   1.742  23.363  0.00  0.00    +0.033 A 
ATOM     31  C   UNL     1     -16.882   0.824  25.729  0.00  0.00    +0.111 A 
ATOM     32  C   UNL     1     -18.169   0.478  23.857  0.00  0.00    +0.111 A 
ENDBRANCH  27  28
ENDBRANCH  16  24
ENDBRANCH  11  16
TORSDOF 9
ENDMDL
MODEL 7
REMARK VINA RESULT:      -6.2     23.966     29.211
REMARK  Name = 45783914
REMARK  12 active torsions:
REMARK  status: ('A' for Active; 'I' for Inactive)
REMARK    1  A    between atoms: O_2  and  C_26
REMARK    2  A    between atoms: N_3  and  C_13
REMARK    3  A    between atoms: N_4  and  C_25
REMARK    4  A    between atoms: C_8  and  C_12
REMARK    5  A    between atoms: C_9  and  C_13
REMARK    6  A    between atoms: C_11  and  C_16
REMARK    7  A    between atoms: C_12  and  C_19
REMARK    8  A    between atoms: C_12  and  C_20
REMARK    9  A    between atoms: C_15  and  C_23
REMARK   10  A    between atoms: C_16  and  C_24
REMARK   11  A    between atoms: C_25  and  C_26
REMARK   12  A    between atoms: C_27  and  C_28
REMARK                            x       y       z     vdW  Elec       q    Type
REMARK                         _______ _______ _______ _____ _____    ______ ____
ROOT
ATOM      8  C   UNL     1     -14.716   5.474  32.980  0.00  0.00    +0.000 C 
ATOM      9  C   UNL     1     -15.828   5.776  31.949  0.00  0.00    +0.029 C 
ATOM     10  C   UNL     1     -13.472   6.327  32.692  0.00  0.00    +0.012 C 
ATOM     11  C   UNL     1     -13.761   7.843  32.676  0.00  0.00    +0.024 C 
ATOM     14  C   UNL     1     -15.991   7.251  31.685  0.00  0.00    -0.023 C 
ATOM     15  C   UNL     1     -15.084   8.191  32.012  0.00  0.00    -0.073 C 
ATOM     23  C   UNL     1     -15.386   9.647  31.781  0.00  0.00    +0.039 C 
ENDROOT
BRANCH   8  12
ATOM     12  C   UNL     1     -15.213   5.685  34.417  0.00  0.00    -0.013 C 
ATOM     19  C   UNL     1     -16.666   5.240  34.547  0.00  0.00    +0.007 C 
ATOM     20  C   UNL     1     -14.326   4.932  35.402  0.00  0.00    +0.007 C 
ENDBRANCH   8  12
BRANCH   9  13
ATOM     13  C   UNL     1     -15.582   5.051  30.622  0.00  0.00    +0.092 C 
BRANCH  13   3
ATOM      3  N   UNL     1     -15.371   3.622  30.845  0.00  0.00    -0.299 NA
ATOM      4  N   UNL     1     -14.472   0.995  30.039  0.00  0.00    -0.298 NA
ATOM     17  C   UNL     1     -16.124   2.825  29.870  0.00  0.00    +0.100 C 
ATOM     18  C   UNL     1     -13.942   3.290  30.785  0.00  0.00    +0.100 C 
ATOM     21  C   UNL     1     -15.900   1.326  30.100  0.00  0.00    +0.100 C 
ATOM     22  C   UNL     1     -13.720   1.791  31.017  0.00  0.00    +0.100 C 
BRANCH   4  25
ATOM     25  C   UNL     1     -14.260  -0.434  30.261  0.00  0.00    +0.112 C 
BRANCH  25  26
ATOM     26  C   UNL     1     -13.419  -1.032  29.144  0.00  0.00    +0.171 C 
BRANCH  26   2
ATOM      2  O   UNL     1     -12.221  -1.552  29.705  0.00  0.00    -0.394 OA
ATOM     33  H   UNL     1     -12.480  -2.156  30.422  0.00  0.00    +0.209 HD
ENDBRANCH  26   2
ENDBRANCH  25  26
ENDBRANCH   4  25
ENDBRANCH  13   3
ENDBRANCH   9  13
BRANCH  11  16
ATOM     16  C   UNL     1     -12.566   8.563  32.035  0.00  0.00    +0.105 C 
BRANCH  16  24
ATOM      1  O   UNL     1     -11.867   8.756  34.366  0.00  0.00    -0.420 OA
ATOM      5  N   UNL     1     -10.636   9.960  32.936  0.00  0.00    -0.112 NA
ATOM      6  N   UNL     1     -10.133  10.162  34.208  0.00  0.00    -0.107 NA
ATOM     24  C   UNL     1     -11.646   9.133  33.076  0.00  0.00    +0.218 A 
ATOM     27  C   UNL     1     -10.882   9.440  35.009  0.00  0.00    +0.248 A 
BRANCH  27  28
ATOM      7  N   UNL     1     -10.709   8.920  39.204  0.00  0.00    -0.263 NA
ATOM     28  C   UNL     1     -10.823   9.264  36.431  0.00  0.00    +0.041 A 
ATOM     29  C   UNL     1     -11.718   9.938  37.256  0.00  0.00    +0.033 A 
ATOM     30  C   UNL     1      -9.872   8.419  36.991  0.00  0.00    +0.033 A 
ATOM     31  C   UNL     1     -11.620   9.734  38.623  0.00  0.00    +0.111 A 
ATOM     32  C   UNL     1      -9.856   8.283  38.371  0.00  0.00    +0.111 A 
ENDBRANCH  27  28
ENDBRANCH  16  24
ENDBRANCH  11  16
TORSDOF 9
ENDMDL
MODEL 8
REMARK VINA RESULT:      -6.2      2.921      6.146
REMARK  Name = 45783914
REMARK  12 active torsions:
REMARK  status: ('A' for Active; 'I' for Inactive)
REMARK    1  A    between atoms: O_2  and  C_26
REMARK    2  A    between atoms: N_3  and  C_13
REMARK    3  A    between atoms: N_4  and  C_25
REMARK    4  A    between atoms: C_8  and  C_12
REMARK    5  A    between atoms: C_9  and  C_13
REMARK    6  A    between atoms: C_11  and  C_16
REMARK    7  A    between atoms: C_12  and  C_19
REMARK    8  A    between atoms: C_12  and  C_20
REMARK    9  A    between atoms: C_15  and  C_23
REMARK   10  A    between atoms: C_16  and  C_24
REMARK   11  A    between atoms: C_25  and  C_26
REMARK   12  A    between atoms: C_27  and  C_28
REMARK                            x       y       z     vdW  Elec       q    Type
REMARK                         _______ _______ _______ _____ _____    ______ ____
ROOT
ATOM      8  C   UNL     1      -3.545 -10.660  15.237  0.00  0.00    +0.000 C 
ATOM      9  C   UNL     1      -4.640 -11.559  14.616  0.00  0.00    +0.029 C 
ATOM     10  C   UNL     1      -3.911 -10.288  16.681  0.00  0.00    +0.012 C 
ATOM     11  C   UNL     1      -4.145 -11.515  17.588  0.00  0.00    +0.024 C 
ATOM     14  C   UNL     1      -5.109 -12.638  15.559  0.00  0.00    -0.023 C 
ATOM     15  C   UNL     1      -4.887 -12.642  16.887  0.00  0.00    -0.073 C 
ATOM     23  C   UNL     1      -5.325 -13.813  17.724  0.00  0.00    +0.039 C 
ENDROOT
BRANCH   8  12
ATOM     12  C   UNL     1      -2.166 -11.330  15.169  0.00  0.00    -0.013 C 
ATOM     19  C   UNL     1      -1.903 -11.864  13.764  0.00  0.00    +0.007 C 
ATOM     20  C   UNL     1      -1.077 -10.349  15.589  0.00  0.00    +0.007 C 
ENDBRANCH   8  12
BRANCH   9  13
ATOM     13  C   UNL     1      -5.846 -10.740  14.147  0.00  0.00    +0.092 C 
BRANCH  13   3
ATOM      3  N   UNL     1      -5.582 -10.128  12.847  0.00  0.00    -0.299 NA
ATOM      4  N   UNL     1      -6.045  -9.804  10.012  0.00  0.00    -0.298 NA
ATOM     17  C   UNL     1      -5.124 -11.134  11.880  0.00  0.00    +0.100 C 
ATOM     18  C   UNL     1      -6.775  -9.438  12.343  0.00  0.00    +0.100 C 
ATOM     21  C   UNL     1      -4.851 -10.494  10.515  0.00  0.00    +0.100 C 
ATOM     22  C   UNL     1      -6.499  -8.798  10.978  0.00  0.00    +0.100 C 
BRANCH   4  25
ATOM     25  C   UNL     1      -5.781  -9.194   8.710  0.00  0.00    +0.112 C 
BRANCH  25  26
ATOM     26  C   UNL     1      -7.071  -9.031   7.922  0.00  0.00    +0.171 C 
BRANCH  26   2
ATOM      2  O   UNL     1      -7.281  -7.647   7.673  0.00  0.00    -0.394 OA
ATOM     33  H   UNL     1      -6.419  -7.207   7.764  0.00  0.00    +0.209 HD
ENDBRANCH  26   2
ENDBRANCH  25  26
ENDBRANCH   4  25
ENDBRANCH  13   3
ENDBRANCH   9  13
BRANCH  11  16
ATOM     16  C   UNL     1      -4.843 -11.050  18.872  0.00  0.00    +0.105 C 
BRANCH  16  24
ATOM      1  O   UNL     1      -6.741 -10.010  17.742  0.00  0.00    -0.420 OA
ATOM      5  N   UNL     1      -7.310 -11.544  19.268  0.00  0.00    -0.112 NA
ATOM      6  N   UNL     1      -8.473 -11.043  18.712  0.00  0.00    -0.107 NA
ATOM     24  C   UNL     1      -6.326 -10.914  18.672  0.00  0.00    +0.218 A 
ATOM     27  C   UNL     1      -8.092 -10.151  17.827  0.00  0.00    +0.248 A 
BRANCH  27  28
ATOM      7  N   UNL     1     -10.376  -7.697  15.248  0.00  0.00    -0.263 NA
ATOM     28  C   UNL     1      -8.866  -9.319  16.953  0.00  0.00    +0.041 A 
ATOM     29  C   UNL     1      -8.967  -9.631  15.601  0.00  0.00    +0.033 A 
ATOM     30  C   UNL     1      -9.518  -8.198  17.452  0.00  0.00    +0.033 A 
ATOM     31  C   UNL     1      -9.727  -8.795  14.798  0.00  0.00    +0.111 A 
ATOM     32  C   UNL     1     -10.254  -7.426  16.566  0.00  0.00    +0.111 A 
ENDBRANCH  27  28
ENDBRANCH  16  24
ENDBRANCH  11  16
TORSDOF 9
ENDMDL
MODEL 9
REMARK VINA RESULT:      -6.1     23.029     25.380
REMARK  Name = 45783914
REMARK  12 active torsions:
REMARK  status: ('A' for Active; 'I' for Inactive)
REMARK    1  A    between atoms: O_2  and  C_26
REMARK    2  A    between atoms: N_3  and  C_13
REMARK    3  A    between atoms: N_4  and  C_25
REMARK    4  A    between atoms: C_8  and  C_12
REMARK    5  A    between atoms: C_9  and  C_13
REMARK    6  A    between atoms: C_11  and  C_16
REMARK    7  A    between atoms: C_12  and  C_19
REMARK    8  A    between atoms: C_12  and  C_20
REMARK    9  A    between atoms: C_15  and  C_23
REMARK   10  A    between atoms: C_16  and  C_24
REMARK   11  A    between atoms: C_25  and  C_26
REMARK   12  A    between atoms: C_27  and  C_28
REMARK                            x       y       z     vdW  Elec       q    Type
REMARK                         _______ _______ _______ _____ _____    ______ ____
ROOT
ATOM      8  C   UNL     1       9.865   7.663   5.287  0.00  0.00    +0.000 C 
ATOM      9  C   UNL     1       9.063   7.402   3.990  0.00  0.00    +0.029 C 
ATOM     10  C   UNL     1      10.051   9.171   5.509  0.00  0.00    +0.012 C 
ATOM     11  C   UNL     1       8.720   9.950   5.562  0.00  0.00    +0.024 C 
ATOM     14  C   UNL     1       7.876   8.321   3.848  0.00  0.00    -0.023 C 
ATOM     15  C   UNL     1       7.699   9.456   4.549  0.00  0.00    -0.073 C 
ATOM     23  C   UNL     1       6.434  10.255   4.390  0.00  0.00    +0.039 C 
ENDROOT
BRANCH   8  12
ATOM     12  C   UNL     1       9.197   7.002   6.501  0.00  0.00    -0.013 C 
ATOM     19  C   UNL     1       9.181   5.485   6.337  0.00  0.00    +0.007 C 
ATOM     20  C   UNL     1       9.916   7.401   7.785  0.00  0.00    +0.007 C 
ENDBRANCH   8  12
BRANCH   9  13
ATOM     13  C   UNL     1       9.946   7.522   2.745  0.00  0.00    +0.092 C 
BRANCH  13   3
ATOM      3  N   UNL     1      10.964   6.474   2.729  0.00  0.00    -0.299 NA
ATOM      4  N   UNL     1      12.331   4.231   1.524  0.00  0.00    -0.298 NA
ATOM     17  C   UNL     1      10.343   5.145   2.670  0.00  0.00    +0.100 C 
ATOM     18  C   UNL     1      11.887   6.659   1.603  0.00  0.00    +0.100 C 
ATOM     21  C   UNL     1      11.409   4.045   2.650  0.00  0.00    +0.100 C 
ATOM     22  C   UNL     1      12.953   5.558   1.585  0.00  0.00    +0.100 C 
BRANCH   4  25
ATOM     25  C   UNL     1      13.349   3.181   1.507  0.00  0.00    +0.112 C 
BRANCH  25  26
ATOM     26  C   UNL     1      14.742   3.784   1.437  0.00  0.00    +0.171 C 
BRANCH  26   2
ATOM      2  O   UNL     1      15.569   3.134   2.393  0.00  0.00    -0.394 OA
ATOM     33  H   UNL     1      15.831   3.806   3.047  0.00  0.00    +0.209 HD
ENDBRANCH  26   2
ENDBRANCH  25  26
ENDBRANCH   4  25
ENDBRANCH  13   3
ENDBRANCH   9  13
BRANCH  11  16
ATOM     16  C   UNL     1       9.023  11.448   5.422  0.00  0.00    +0.105 C 
BRANCH  16  24
ATOM      1  O   UNL     1       9.244  11.771   7.831  0.00  0.00    -0.420 OA
ATOM      5  N   UNL     1       7.872  13.229   6.833  0.00  0.00    -0.112 NA
ATOM      6  N   UNL     1       7.903  13.527   8.183  0.00  0.00    -0.107 NA
ATOM     24  C   UNL     1       8.670  12.198   6.674  0.00  0.00    +0.218 A 
ATOM     27  C   UNL     1       8.716  12.650   8.725  0.00  0.00    +0.248 A 
BRANCH  27  28
ATOM      7  N   UNL     1       9.923  12.147  12.748  0.00  0.00    -0.263 NA
ATOM     28  C   UNL     1       9.125  12.480  10.089  0.00  0.00    +0.041 A 
ATOM     29  C   UNL     1       8.226  12.720  11.123  0.00  0.00    +0.033 A 
ATOM     30  C   UNL     1      10.422  12.075  10.383  0.00  0.00    +0.033 A 
ATOM     31  C   UNL     1       8.671  12.541  12.423  0.00  0.00    +0.111 A 
ATOM     32  C   UNL     1      10.768  11.924  11.717  0.00  0.00    +0.111 A 
ENDBRANCH  27  28
ENDBRANCH  16  24
ENDBRANCH  11  16
TORSDOF 9
ENDMDL
MODEL 10
REMARK VINA RESULT:      -6.1     22.638     26.364
REMARK  Name = 45783914
REMARK  12 active torsions:
REMARK  status: ('A' for Active; 'I' for Inactive)
REMARK    1  A    between atoms: O_2  and  C_26
REMARK    2  A    between atoms: N_3  and  C_13
REMARK    3  A    between atoms: N_4  and  C_25
REMARK    4  A    between atoms: C_8  and  C_12
REMARK    5  A    between atoms: C_9  and  C_13
REMARK    6  A    between atoms: C_11  and  C_16
REMARK    7  A    between atoms: C_12  and  C_19
REMARK    8  A    between atoms: C_12  and  C_20
REMARK    9  A    between atoms: C_15  and  C_23
REMARK   10  A    between atoms: C_16  and  C_24
REMARK   11  A    between atoms: C_25  and  C_26
REMARK   12  A    between atoms: C_27  and  C_28
REMARK                            x       y       z     vdW  Elec       q    Type
REMARK                         _______ _______ _______ _____ _____    ______ ____
ROOT
ATOM      8  C   UNL     1      11.189   7.376   3.803  0.00  0.00    +0.000 C 
ATOM      9  C   UNL     1       9.737   7.677   3.365  0.00  0.00    +0.029 C 
ATOM     10  C   UNL     1      11.636   6.005   3.273  0.00  0.00    +0.012 C 
ATOM     11  C   UNL     1      11.525   5.877   1.739  0.00  0.00    +0.024 C 
ATOM     14  C   UNL     1       9.481   7.325   1.921  0.00  0.00    -0.023 C 
ATOM     15  C   UNL     1      10.274   6.533   1.175  0.00  0.00    -0.073 C 
ATOM     23  C   UNL     1       9.972   6.317  -0.283  0.00  0.00    +0.039 C 
ENDROOT
BRANCH   8  12
ATOM     12  C   UNL     1      12.150   8.485   3.354  0.00  0.00    -0.013 C 
ATOM     19  C   UNL     1      11.625   9.851   3.785  0.00  0.00    +0.007 C 
ATOM     20  C   UNL     1      13.546   8.239   3.917  0.00  0.00    +0.007 C 
ENDBRANCH   8  12
BRANCH   9  13
ATOM     13  C   UNL     1       8.717   6.952   4.248  0.00  0.00    +0.092 C 
BRANCH  13   3
ATOM      3  N   UNL     1       9.262   6.723   5.585  0.00  0.00    -0.299 NA
ATOM      4  N   UNL     1       9.104   5.723   8.293  0.00  0.00    -0.298 NA
ATOM     17  C   UNL     1       8.449   7.402   6.602  0.00  0.00    +0.100 C 
ATOM     18  C   UNL     1       9.350   5.287   5.874  0.00  0.00    +0.100 C 
ATOM     21  C   UNL     1       9.017   7.160   8.005  0.00  0.00    +0.100 C 
ATOM     22  C   UNL     1       9.918   5.047   7.277  0.00  0.00    +0.100 C 
BRANCH   4  25
ATOM     25  C   UNL     1       9.647   5.495   9.631  0.00  0.00    +0.112 C 
BRANCH  25  26
ATOM     26  C   UNL     1       8.966   4.307  10.291  0.00  0.00    +0.171 C 
BRANCH  26   2
ATOM      2  O   UNL     1       7.885   4.783  11.083  0.00  0.00    -0.394 OA
ATOM     33  H   UNL     1       7.071   4.397  10.716  0.00  0.00    +0.209 HD
ENDBRANCH  26   2
ENDBRANCH  25  26
ENDBRANCH   4  25
ENDBRANCH  13   3
ENDBRANCH   9  13
BRANCH  11  16
ATOM     16  C   UNL     1      11.642   4.394   1.362  0.00  0.00    +0.105 C 
BRANCH  16  24
ATOM      1  O   UNL     1      13.579   4.519  -0.119  0.00  0.00    -0.420 OA
ATOM      5  N   UNL     1      13.901   3.269   1.709  0.00  0.00    -0.112 NA
ATOM      6  N   UNL     1      15.069   3.252   0.968  0.00  0.00    -0.107 NA
ATOM     24  C   UNL     1      13.060   4.021   1.037  0.00  0.00    +0.218 A 
ATOM     27  C   UNL     1      14.834   3.995  -0.089  0.00  0.00    +0.248 A 
BRANCH  27  28
ATOM      7  N   UNL     1      17.333   4.992  -3.353  0.00  0.00    -0.263 NA
ATOM     28  C   UNL     1      15.681   4.332  -1.195  0.00  0.00    +0.041 A 
ATOM     29  C   UNL     1      15.126   4.788  -2.386  0.00  0.00    +0.033 A 
ATOM     30  C   UNL     1      17.061   4.205  -1.083  0.00  0.00    +0.033 A 
ATOM     31  C   UNL     1      15.987   5.102  -3.425  0.00  0.00    +0.111 A 
ATOM     32  C   UNL     1      17.836   4.545  -2.180  0.00  0.00    +0.111 A 
ENDBRANCH  27  28
ENDBRANCH  16  24
ENDBRANCH  11  16
TORSDOF 9
ENDMDL
