MODEL 1
REMARK VINA RESULT:      -7.5      0.000      0.000
REMARK  Name = 11943318
REMARK  7 active torsions:
REMARK  status: ('A' for Active; 'I' for Inactive)
REMARK    1  A    between atoms: O_2  and  C_22
REMARK    2  A    between atoms: O_2  and  C_23
REMARK    3  A    between atoms: N_4  and  C_14
REMARK    4  A    between atoms: N_5  and  C_17
REMARK    5  A    between atoms: C_7  and  C_13
REMARK    6  A    between atoms: C_8  and  C_14
REMARK    7  A    between atoms: C_13  and  C_15
REMARK                            x       y       z     vdW  Elec       q    Type
REMARK                         _______ _______ _______ _____ _____    ______ ____
ROOT
ATOM      1  O   UNL     1      15.723   6.015  20.967  0.00  0.00    -0.253 OA
ATOM      4  N   UNL     1      15.268   7.114  18.982  0.00  0.00    -0.298 N 
ATOM      5  N   UNL     1      17.462   6.640  19.520  0.00  0.00    -0.269 N 
ATOM     16  C   UNL     1      16.131   6.534  19.931  0.00  0.00    +0.304 C 
ATOM     29  H   UNL     1      15.678   7.527  18.150  0.00  0.00    +0.150 HD
ATOM     30  H   UNL     1      17.628   7.102  18.629  0.00  0.00    +0.156 HD
ENDROOT
BRANCH   5  17
ATOM     17  C   UNL     1      18.618   6.181  20.195  0.00  0.00    +0.035 A 
ATOM     18  C   UNL     1      19.236   5.017  19.767  0.00  0.00    +0.027 A 
ATOM     19  C   UNL     1      19.107   6.905  21.270  0.00  0.00    +0.027 A 
ATOM     20  C   UNL     1      20.374   4.565  20.434  0.00  0.00    +0.048 A 
ATOM     21  C   UNL     1      20.246   6.453  21.935  0.00  0.00    +0.048 A 
ATOM     22  C   UNL     1      20.880   5.283  21.517  0.00  0.00    +0.129 A 
BRANCH  22   2
ATOM      2  O   UNL     1      21.991   4.841  22.168  0.00  0.00    -0.456 OA
BRANCH   2  23
ATOM     23  C   UNL     1      22.935   4.146  21.430  0.00  0.00    +0.128 A 
ATOM     24  C   UNL     1      23.760   4.842  20.565  0.00  0.00    +0.046 A 
ATOM     25  C   UNL     1      23.027   2.774  21.577  0.00  0.00    +0.046 A 
ATOM     26  C   UNL     1      24.710   4.142  19.823  0.00  0.00    +0.004 A 
ATOM     27  C   UNL     1      23.978   2.074  20.834  0.00  0.00    +0.004 A 
ATOM     28  C   UNL     1      24.819   2.758  19.956  0.00  0.00    +0.000 A 
ENDBRANCH   2  23
ENDBRANCH  22   2
ENDBRANCH   5  17
BRANCH   4  14
ATOM     14  C   UNL     1      13.847   7.157  19.128  0.00  0.00    +0.124 C 
BRANCH  14   8
ATOM      3  N   UNL     1      13.778   8.809  21.016  0.00  0.00    -0.298 NA
ATOM      6  C   UNL     1      11.271   9.402  20.655  0.00  0.00    -0.004 C 
ATOM      7  C   UNL     1      11.446   8.459  21.867  0.00  0.00    +0.006 C 
ATOM      8  C   UNL     1      13.388   8.536  19.606  0.00  0.00    +0.074 C 
ATOM      9  C   UNL     1      11.869   8.738  19.401  0.00  0.00    +0.024 C 
ATOM     10  C   UNL     1      12.927   8.026  21.945  0.00  0.00    +0.088 C 
ATOM     11  C   UNL     1      12.106  10.663  20.946  0.00  0.00    +0.019 C 
ATOM     12  C   UNL     1      13.549  10.249  21.283  0.00  0.00    +0.085 C 
BRANCH   7  13
ATOM     13  C   UNL     1      10.508   7.253  21.832  0.00  0.00    +0.002 C 
ATOM     15  C   UNL     1      11.269   5.967  21.581  0.00  0.00    +0.004 C 
ENDBRANCH   7  13
ENDBRANCH  14   8
ENDBRANCH   4  14
TORSDOF 6
ENDMDL
MODEL 2
REMARK VINA RESULT:      -7.3      1.530      2.473
REMARK  Name = 11943318
REMARK  7 active torsions:
REMARK  status: ('A' for Active; 'I' for Inactive)
REMARK    1  A    between atoms: O_2  and  C_22
REMARK    2  A    between atoms: O_2  and  C_23
REMARK    3  A    between atoms: N_4  and  C_14
REMARK    4  A    between atoms: N_5  and  C_17
REMARK    5  A    between atoms: C_7  and  C_13
REMARK    6  A    between atoms: C_8  and  C_14
REMARK    7  A    between atoms: C_13  and  C_15
REMARK                            x       y       z     vdW  Elec       q    Type
REMARK                         _______ _______ _______ _____ _____    ______ ____
ROOT
ATOM      1  O   UNL     1      17.739   8.902  20.842  0.00  0.00    -0.253 OA
ATOM      4  N   UNL     1      15.798   7.821  21.488  0.00  0.00    -0.298 N 
ATOM      5  N   UNL     1      17.819   6.738  21.749  0.00  0.00    -0.269 N 
ATOM     16  C   UNL     1      17.192   7.908  21.315  0.00  0.00    +0.304 C 
ATOM     29  H   UNL     1      15.416   6.967  21.883  0.00  0.00    +0.150 HD
ATOM     30  H   UNL     1      17.215   6.007  22.116  0.00  0.00    +0.156 HD
ENDROOT
BRANCH   5  17
ATOM     17  C   UNL     1      19.202   6.440  21.740  0.00  0.00    +0.035 A 
ATOM     18  C   UNL     1      19.767   5.872  20.609  0.00  0.00    +0.027 A 
ATOM     19  C   UNL     1      19.963   6.723  22.862  0.00  0.00    +0.027 A 
ATOM     20  C   UNL     1      21.130   5.578  20.602  0.00  0.00    +0.048 A 
ATOM     21  C   UNL     1      21.327   6.430  22.853  0.00  0.00    +0.048 A 
ATOM     22  C   UNL     1      21.910   5.858  21.724  0.00  0.00    +0.129 A 
BRANCH  22   2
ATOM      2  O   UNL     1      23.241   5.569  21.716  0.00  0.00    -0.456 OA
BRANCH   2  23
ATOM     23  C   UNL     1      23.612   4.251  21.513  0.00  0.00    +0.128 A 
ATOM     24  C   UNL     1      24.242   3.902  20.332  0.00  0.00    +0.046 A 
ATOM     25  C   UNL     1      23.343   3.317  22.497  0.00  0.00    +0.046 A 
ATOM     26  C   UNL     1      24.615   2.574  20.128  0.00  0.00    +0.004 A 
ATOM     27  C   UNL     1      23.717   1.988  22.292  0.00  0.00    +0.004 A 
ATOM     28  C   UNL     1      24.352   1.617  21.108  0.00  0.00    +0.000 A 
ENDBRANCH   2  23
ENDBRANCH  22   2
ENDBRANCH   5  17
BRANCH   4  14
ATOM     14  C   UNL     1      14.890   8.868  21.134  0.00  0.00    +0.124 C 
BRANCH  14   8
ATOM      3  N   UNL     1      13.128   7.104  20.847  0.00  0.00    -0.298 NA
ATOM      6  C   UNL     1      11.273   8.800  20.176  0.00  0.00    -0.004 C 
ATOM      7  C   UNL     1      11.815   8.054  18.935  0.00  0.00    +0.006 C 
ATOM      8  C   UNL     1      13.443   8.449  21.401  0.00  0.00    +0.074 C 
ATOM      9  C   UNL     1      12.437   9.507  20.894  0.00  0.00    +0.024 C 
ATOM     10  C   UNL     1      13.006   7.172  19.370  0.00  0.00    +0.088 C 
ATOM     11  C   UNL     1      10.728   7.727  21.139  0.00  0.00    +0.019 C 
ATOM     12  C   UNL     1      11.821   6.677  21.399  0.00  0.00    +0.085 C 
BRANCH   7  13
ATOM     13  C   UNL     1      12.196   8.989  17.789  0.00  0.00    +0.002 C 
ATOM     15  C   UNL     1      11.273   8.813  16.600  0.00  0.00    +0.004 C 
ENDBRANCH   7  13
ENDBRANCH  14   8
ENDBRANCH   4  14
TORSDOF 6
ENDMDL
MODEL 3
REMARK VINA RESULT:      -7.2      2.976     10.682
REMARK  Name = 11943318
REMARK  7 active torsions:
REMARK  status: ('A' for Active; 'I' for Inactive)
REMARK    1  A    between atoms: O_2  and  C_22
REMARK    2  A    between atoms: O_2  and  C_23
REMARK    3  A    between atoms: N_4  and  C_14
REMARK    4  A    between atoms: N_5  and  C_17
REMARK    5  A    between atoms: C_7  and  C_13
REMARK    6  A    between atoms: C_8  and  C_14
REMARK    7  A    between atoms: C_13  and  C_15
REMARK                            x       y       z     vdW  Elec       q    Type
REMARK                         _______ _______ _______ _____ _____    ______ ____
ROOT
ATOM      1  O   UNL     1      20.286   5.849  22.741  0.00  0.00    -0.253 OA
ATOM      4  N   UNL     1      22.085   5.293  21.396  0.00  0.00    -0.298 N 
ATOM      5  N   UNL     1      20.092   5.899  20.402  0.00  0.00    -0.269 N 
ATOM     16  C   UNL     1      20.756   5.700  21.615  0.00  0.00    +0.304 C 
ATOM     29  H   UNL     1      22.403   5.188  20.437  0.00  0.00    +0.150 HD
ATOM     30  H   UNL     1      20.630   5.731  19.555  0.00  0.00    +0.156 HD
ENDROOT
BRANCH   5  17
ATOM     17  C   UNL     1      18.753   6.308  20.203  0.00  0.00    +0.035 A 
ATOM     18  C   UNL     1      17.963   5.627  19.290  0.00  0.00    +0.027 A 
ATOM     19  C   UNL     1      18.258   7.383  20.925  0.00  0.00    +0.027 A 
ATOM     20  C   UNL     1      16.643   6.032  19.094  0.00  0.00    +0.048 A 
ATOM     21  C   UNL     1      16.937   7.786  20.729  0.00  0.00    +0.048 A 
ATOM     22  C   UNL     1      16.130   7.111  19.814  0.00  0.00    +0.129 A 
BRANCH  22   2
ATOM      2  O   UNL     1      14.842   7.506  19.621  0.00  0.00    -0.456 OA
BRANCH   2  23
ATOM     23  C   UNL     1      14.576   8.330  18.540  0.00  0.00    +0.128 A 
ATOM     24  C   UNL     1      14.709   9.699  18.687  0.00  0.00    +0.046 A 
ATOM     25  C   UNL     1      14.185   7.762  17.341  0.00  0.00    +0.046 A 
ATOM     26  C   UNL     1      14.441  10.528  17.597  0.00  0.00    +0.004 A 
ATOM     27  C   UNL     1      13.917   8.591  16.252  0.00  0.00    +0.004 A 
ATOM     28  C   UNL     1      14.044   9.974  16.380  0.00  0.00    +0.000 A 
ENDBRANCH   2  23
ENDBRANCH  22   2
ENDBRANCH   5  17
BRANCH   4  14
ATOM     14  C   UNL     1      23.011   5.014  22.449  0.00  0.00    +0.124 C 
BRANCH  14   8
ATOM      3  N   UNL     1      24.756   3.265  22.887  0.00  0.00    -0.298 NA
ATOM      6  C   UNL     1      24.126   1.844  20.801  0.00  0.00    -0.004 C 
ATOM      7  C   UNL     1      25.415   2.657  20.546  0.00  0.00    +0.006 C 
ATOM      8  C   UNL     1      23.340   3.521  22.505  0.00  0.00    +0.074 C 
ATOM      9  C   UNL     1      22.984   2.804  21.183  0.00  0.00    +0.024 C 
ATOM     10  C   UNL     1      25.659   3.586  21.756  0.00  0.00    +0.088 C 
ATOM     11  C   UNL     1      24.397   0.949  22.026  0.00  0.00    +0.019 C 
ATOM     12  C   UNL     1      24.893   1.821  23.192  0.00  0.00    +0.085 C 
BRANCH   7  13
ATOM     13  C   UNL     1      25.385   3.437  19.233  0.00  0.00    +0.002 C 
ATOM     15  C   UNL     1      26.784   3.689  18.708  0.00  0.00    +0.004 C 
ENDBRANCH   7  13
ENDBRANCH  14   8
ENDBRANCH   4  14
TORSDOF 6
ENDMDL
MODEL 4
REMARK VINA RESULT:      -6.9      2.314     10.917
REMARK  Name = 11943318
REMARK  7 active torsions:
REMARK  status: ('A' for Active; 'I' for Inactive)
REMARK    1  A    between atoms: O_2  and  C_22
REMARK    2  A    between atoms: O_2  and  C_23
REMARK    3  A    between atoms: N_4  and  C_14
REMARK    4  A    between atoms: N_5  and  C_17
REMARK    5  A    between atoms: C_7  and  C_13
REMARK    6  A    between atoms: C_8  and  C_14
REMARK    7  A    between atoms: C_13  and  C_15
REMARK                            x       y       z     vdW  Elec       q    Type
REMARK                         _______ _______ _______ _____ _____    ______ ____
ROOT
ATOM      1  O   UNL     1      20.800   6.693  20.663  0.00  0.00    -0.253 OA
ATOM      4  N   UNL     1      21.325   4.456  20.388  0.00  0.00    -0.298 N 
ATOM      5  N   UNL     1      19.158   5.152  19.997  0.00  0.00    -0.269 N 
ATOM     16  C   UNL     1      20.443   5.553  20.374  0.00  0.00    +0.304 C 
ATOM     29  H   UNL     1      20.957   3.543  20.140  0.00  0.00    +0.150 HD
ATOM     30  H   UNL     1      19.032   4.164  19.791  0.00  0.00    +0.156 HD
ENDROOT
BRANCH   5  17
ATOM     17  C   UNL     1      18.002   5.957  19.866  0.00  0.00    +0.035 A 
ATOM     18  C   UNL     1      17.155   5.757  18.788  0.00  0.00    +0.027 A 
ATOM     19  C   UNL     1      17.740   6.928  20.819  0.00  0.00    +0.027 A 
ATOM     20  C   UNL     1      16.016   6.551  18.659  0.00  0.00    +0.048 A 
ATOM     21  C   UNL     1      16.600   7.721  20.690  0.00  0.00    +0.048 A 
ATOM     22  C   UNL     1      15.738   7.532  19.610  0.00  0.00    +0.129 A 
BRANCH  22   2
ATOM      2  O   UNL     1      14.626   8.307  19.483  0.00  0.00    -0.456 OA
BRANCH   2  23
ATOM     23  C   UNL     1      13.543   8.016  20.294  0.00  0.00    +0.128 A 
ATOM     24  C   UNL     1      12.897   6.802  20.147  0.00  0.00    +0.046 A 
ATOM     25  C   UNL     1      13.134   8.949  21.231  0.00  0.00    +0.046 A 
ATOM     26  C   UNL     1      11.805   6.511  20.965  0.00  0.00    +0.004 A 
ATOM     27  C   UNL     1      12.042   8.657  22.048  0.00  0.00    +0.004 A 
ATOM     28  C   UNL     1      11.377   7.438  21.915  0.00  0.00    +0.000 A 
ENDBRANCH   2  23
ENDBRANCH  22   2
ENDBRANCH   5  17
BRANCH   4  14
ATOM     14  C   UNL     1      22.708   4.558  20.735  0.00  0.00    +0.124 C 
BRANCH  14   8
ATOM      3  N   UNL     1      24.129   3.671  22.603  0.00  0.00    -0.298 NA
ATOM      6  C   UNL     1      25.021   1.657  21.220  0.00  0.00    -0.004 C 
ATOM      7  C   UNL     1      26.087   2.771  21.322  0.00  0.00    +0.006 C 
ATOM      8  C   UNL     1      23.165   3.328  21.522  0.00  0.00    +0.074 C 
ATOM      9  C   UNL     1      23.738   2.233  20.594  0.00  0.00    +0.024 C 
ATOM     10  C   UNL     1      25.456   3.994  22.025  0.00  0.00    +0.088 C 
ATOM     11  C   UNL     1      24.676   1.235  22.662  0.00  0.00    +0.019 C 
ATOM     12  C   UNL     1      24.282   2.481  23.474  0.00  0.00    +0.085 C 
BRANCH   7  13
ATOM     13  C   UNL     1      26.695   3.149  19.973  0.00  0.00    +0.002 C 
ATOM     15  C   UNL     1      26.366   4.580  19.598  0.00  0.00    +0.004 C 
ENDBRANCH   7  13
ENDBRANCH  14   8
ENDBRANCH   4  14
TORSDOF 6
ENDMDL
MODEL 5
REMARK VINA RESULT:      -6.8      2.905     10.832
REMARK  Name = 11943318
REMARK  7 active torsions:
REMARK  status: ('A' for Active; 'I' for Inactive)
REMARK    1  A    between atoms: O_2  and  C_22
REMARK    2  A    between atoms: O_2  and  C_23
REMARK    3  A    between atoms: N_4  and  C_14
REMARK    4  A    between atoms: N_5  and  C_17
REMARK    5  A    between atoms: C_7  and  C_13
REMARK    6  A    between atoms: C_8  and  C_14
REMARK    7  A    between atoms: C_13  and  C_15
REMARK                            x       y       z     vdW  Elec       q    Type
REMARK                         _______ _______ _______ _____ _____    ______ ____
ROOT
ATOM      1  O   UNL     1      20.405   5.684  22.614  0.00  0.00    -0.253 OA
ATOM      4  N   UNL     1      22.122   5.172  21.150  0.00  0.00    -0.298 N 
ATOM      5  N   UNL     1      20.104   5.898  20.296  0.00  0.00    -0.269 N 
ATOM     16  C   UNL     1      20.818   5.599  21.460  0.00  0.00    +0.304 C 
ATOM     29  H   UNL     1      22.392   5.125  20.172  0.00  0.00    +0.150 HD
ATOM     30  H   UNL     1      20.598   5.773  19.415  0.00  0.00    +0.156 HD
ENDROOT
BRANCH   5  17
ATOM     17  C   UNL     1      18.770   6.356  20.189  0.00  0.00    +0.035 A 
ATOM     18  C   UNL     1      17.897   5.708  19.330  0.00  0.00    +0.027 A 
ATOM     19  C   UNL     1      18.364   7.442  20.946  0.00  0.00    +0.027 A 
ATOM     20  C   UNL     1      16.582   6.161  19.225  0.00  0.00    +0.048 A 
ATOM     21  C   UNL     1      17.049   7.894  20.842  0.00  0.00    +0.048 A 
ATOM     22  C   UNL     1      16.158   7.253  19.982  0.00  0.00    +0.129 A 
BRANCH  22   2
ATOM      2  O   UNL     1      14.874   7.695  19.878  0.00  0.00    -0.456 OA
BRANCH   2  23
ATOM     23  C   UNL     1      14.554   8.492  18.791  0.00  0.00    +0.128 A 
ATOM     24  C   UNL     1      14.059   7.900  17.644  0.00  0.00    +0.046 A 
ATOM     25  C   UNL     1      14.739   9.860  18.883  0.00  0.00    +0.046 A 
ATOM     26  C   UNL     1      13.737   8.704  16.550  0.00  0.00    +0.004 A 
ATOM     27  C   UNL     1      14.417  10.663  17.789  0.00  0.00    +0.004 A 
ATOM     28  C   UNL     1      13.916  10.085  16.622  0.00  0.00    +0.000 A 
ENDBRANCH   2  23
ENDBRANCH  22   2
ENDBRANCH   5  17
BRANCH   4  14
ATOM     14  C   UNL     1      23.087   4.797  22.136  0.00  0.00    +0.124 C 
BRANCH  14   8
ATOM      3  N   UNL     1      24.248   3.546  20.297  0.00  0.00    -0.298 NA
ATOM      6  C   UNL     1      26.093   2.585  21.860  0.00  0.00    -0.004 C 
ATOM      7  C   UNL     1      25.032   1.510  21.532  0.00  0.00    +0.006 C 
ATOM      8  C   UNL     1      24.420   4.427  21.484  0.00  0.00    +0.074 C 
ATOM      9  C   UNL     1      25.403   3.803  22.501  0.00  0.00    +0.024 C 
ATOM     10  C   UNL     1      23.892   2.171  20.725  0.00  0.00    +0.088 C 
ATOM     11  C   UNL     1      26.686   3.052  20.516  0.00  0.00    +0.019 C 
ATOM     12  C   UNL     1      25.544   3.486  19.581  0.00  0.00    +0.085 C 
BRANCH   7  13
ATOM     13  C   UNL     1      24.502   0.789  22.769  0.00  0.00    +0.002 C 
ATOM     15  C   UNL     1      25.596   0.003  23.463  0.00  0.00    +0.004 C 
ENDBRANCH   7  13
ENDBRANCH  14   8
ENDBRANCH   4  14
TORSDOF 6
ENDMDL
MODEL 6
REMARK VINA RESULT:      -6.6     29.091     30.908
REMARK  Name = 11943318
REMARK  7 active torsions:
REMARK  status: ('A' for Active; 'I' for Inactive)
REMARK    1  A    between atoms: O_2  and  C_22
REMARK    2  A    between atoms: O_2  and  C_23
REMARK    3  A    between atoms: N_4  and  C_14
REMARK    4  A    between atoms: N_5  and  C_17
REMARK    5  A    between atoms: C_7  and  C_13
REMARK    6  A    between atoms: C_8  and  C_14
REMARK    7  A    between atoms: C_13  and  C_15
REMARK                            x       y       z     vdW  Elec       q    Type
REMARK                         _______ _______ _______ _____ _____    ______ ____
ROOT
ATOM      1  O   UNL     1     -13.857  10.503  24.111  0.00  0.00    -0.253 OA
ATOM      4  N   UNL     1     -12.388  10.919  22.372  0.00  0.00    -0.298 N 
ATOM      5  N   UNL     1     -11.629  11.103  24.545  0.00  0.00    -0.269 N 
ATOM     16  C   UNL     1     -12.729  10.813  23.733  0.00  0.00    +0.304 C 
ATOM     29  H   UNL     1     -11.436  11.183  22.136  0.00  0.00    +0.150 HD
ATOM     30  H   UNL     1     -10.763  11.342  24.068  0.00  0.00    +0.156 HD
ENDROOT
BRANCH   5  17
ATOM     17  C   UNL     1     -11.570  11.104  25.958  0.00  0.00    +0.035 A 
ATOM     18  C   UNL     1     -12.096  12.178  26.658  0.00  0.00    +0.027 A 
ATOM     19  C   UNL     1     -10.986  10.032  26.613  0.00  0.00    +0.027 A 
ATOM     20  C   UNL     1     -12.036  12.179  28.051  0.00  0.00    +0.048 A 
ATOM     21  C   UNL     1     -10.928  10.033  28.007  0.00  0.00    +0.048 A 
ATOM     22  C   UNL     1     -11.453  11.106  28.726  0.00  0.00    +0.129 A 
BRANCH  22   2
ATOM      2  O   UNL     1     -11.394  11.109  30.086  0.00  0.00    -0.456 OA
BRANCH   2  23
ATOM     23  C   UNL     1     -12.122  10.145  30.763  0.00  0.00    +0.128 A 
ATOM     24  C   UNL     1     -11.451   9.204  31.523  0.00  0.00    +0.046 A 
ATOM     25  C   UNL     1     -13.501  10.148  30.660  0.00  0.00    +0.046 A 
ATOM     26  C   UNL     1     -12.185   8.234  32.205  0.00  0.00    +0.004 A 
ATOM     27  C   UNL     1     -14.235   9.177  31.342  0.00  0.00    +0.004 A 
ATOM     28  C   UNL     1     -13.578   8.220  32.114  0.00  0.00    +0.000 A 
ENDBRANCH   2  23
ENDBRANCH  22   2
ENDBRANCH   5  17
BRANCH   4  14
ATOM     14  C   UNL     1     -13.308  10.681  21.305  0.00  0.00    +0.124 C 
BRANCH  14   8
ATOM      3  N   UNL     1     -13.340   9.799  18.956  0.00  0.00    -0.298 NA
ATOM      6  C   UNL     1     -10.865   9.000  19.022  0.00  0.00    -0.004 C 
ATOM      7  C   UNL     1     -11.835   7.806  19.178  0.00  0.00    +0.006 C 
ATOM      8  C   UNL     1     -12.578  10.585  19.964  0.00  0.00    +0.074 C 
ATOM      9  C   UNL     1     -11.144  10.032  20.130  0.00  0.00    +0.024 C 
ATOM     10  C   UNL     1     -13.277   8.353  19.277  0.00  0.00    +0.088 C 
ATOM     11  C   UNL     1     -11.199   9.674  17.677  0.00  0.00    +0.019 C 
ATOM     12  C   UNL     1     -12.700  10.008  17.635  0.00  0.00    +0.085 C 
BRANCH   7  13
ATOM     13  C   UNL     1     -11.493   6.902  20.360  0.00  0.00    +0.002 C 
ATOM     15  C   UNL     1     -12.711   6.630  21.220  0.00  0.00    +0.004 C 
ENDBRANCH   7  13
ENDBRANCH  14   8
ENDBRANCH   4  14
TORSDOF 6
ENDMDL
MODEL 7
REMARK VINA RESULT:      -6.6     17.926     20.429
REMARK  Name = 11943318
REMARK  7 active torsions:
REMARK  status: ('A' for Active; 'I' for Inactive)
REMARK    1  A    between atoms: O_2  and  C_22
REMARK    2  A    between atoms: O_2  and  C_23
REMARK    3  A    between atoms: N_4  and  C_14
REMARK    4  A    between atoms: N_5  and  C_17
REMARK    5  A    between atoms: C_7  and  C_13
REMARK    6  A    between atoms: C_8  and  C_14
REMARK    7  A    between atoms: C_13  and  C_15
REMARK                            x       y       z     vdW  Elec       q    Type
REMARK                         _______ _______ _______ _____ _____    ______ ____
ROOT
ATOM      1  O   UNL     1      11.438   7.045   2.813  0.00  0.00    -0.253 OA
ATOM      4  N   UNL     1      12.753   6.820   4.704  0.00  0.00    -0.298 N 
ATOM      5  N   UNL     1      13.265   5.571   2.832  0.00  0.00    -0.269 N 
ATOM     16  C   UNL     1      12.396   6.519   3.377  0.00  0.00    +0.304 C 
ATOM     29  H   UNL     1      13.556   6.344   5.104  0.00  0.00    +0.150 HD
ATOM     30  H   UNL     1      14.011   5.236   3.437  0.00  0.00    +0.156 HD
ENDROOT
BRANCH   5  17
ATOM     17  C   UNL     1      13.238   5.014   1.532  0.00  0.00    +0.035 A 
ATOM     18  C   UNL     1      13.454   5.835   0.437  0.00  0.00    +0.027 A 
ATOM     19  C   UNL     1      12.994   3.658   1.380  0.00  0.00    +0.027 A 
ATOM     20  C   UNL     1      13.426   5.285  -0.844  0.00  0.00    +0.048 A 
ATOM     21  C   UNL     1      12.967   3.109   0.098  0.00  0.00    +0.048 A 
ATOM     22  C   UNL     1      13.183   3.922  -1.014  0.00  0.00    +0.129 A 
BRANCH  22   2
ATOM      2  O   UNL     1      13.154   3.387  -2.265  0.00  0.00    -0.456 OA
BRANCH   2  23
ATOM     23  C   UNL     1      11.915   3.158  -2.839  0.00  0.00    +0.128 A 
ATOM     24  C   UNL     1      11.264   1.965  -2.585  0.00  0.00    +0.046 A 
ATOM     25  C   UNL     1      11.361   4.131  -3.653  0.00  0.00    +0.046 A 
ATOM     26  C   UNL     1      10.016   1.736  -3.164  0.00  0.00    +0.004 A 
ATOM     27  C   UNL     1      10.113   3.900  -4.232  0.00  0.00    +0.004 A 
ATOM     28  C   UNL     1       9.441   2.703  -3.988  0.00  0.00    +0.000 A 
ENDBRANCH   2  23
ENDBRANCH  22   2
ENDBRANCH   5  17
BRANCH   4  14
ATOM     14  C   UNL     1      12.047   7.757   5.520  0.00  0.00    +0.124 C 
BRANCH  14   8
ATOM      3  N   UNL     1      10.529   5.880   6.204  0.00  0.00    -0.298 NA
ATOM      6  C   UNL     1       9.094   7.365   7.786  0.00  0.00    -0.004 C 
ATOM      7  C   UNL     1       8.352   7.099   6.456  0.00  0.00    +0.006 C 
ATOM      8  C   UNL     1      11.326   7.047   6.668  0.00  0.00    +0.074 C 
ATOM      9  C   UNL     1      10.453   8.024   7.489  0.00  0.00    +0.024 C 
ATOM     10  C   UNL     1       9.304   6.339   5.505  0.00  0.00    +0.088 C 
ATOM     11  C   UNL     1       9.383   5.990   8.420  0.00  0.00    +0.019 C 
ATOM     12  C   UNL     1      10.116   5.104   7.398  0.00  0.00    +0.085 C 
BRANCH   7  13
ATOM     13  C   UNL     1       7.803   8.368   5.808  0.00  0.00    +0.002 C 
ATOM     15  C   UNL     1       8.041   8.373   4.311  0.00  0.00    +0.004 C 
ENDBRANCH   7  13
ENDBRANCH  14   8
ENDBRANCH   4  14
TORSDOF 6
ENDMDL
MODEL 8
REMARK VINA RESULT:      -6.6      1.606      2.317
REMARK  Name = 11943318
REMARK  7 active torsions:
REMARK  status: ('A' for Active; 'I' for Inactive)
REMARK    1  A    between atoms: O_2  and  C_22
REMARK    2  A    between atoms: O_2  and  C_23
REMARK    3  A    between atoms: N_4  and  C_14
REMARK    4  A    between atoms: N_5  and  C_17
REMARK    5  A    between atoms: C_7  and  C_13
REMARK    6  A    between atoms: C_8  and  C_14
REMARK    7  A    between atoms: C_13  and  C_15
REMARK                            x       y       z     vdW  Elec       q    Type
REMARK                         _______ _______ _______ _____ _____    ______ ____
ROOT
ATOM      1  O   UNL     1      17.287   6.213  21.245  0.00  0.00    -0.253 OA
ATOM      4  N   UNL     1      16.867   8.484  21.381  0.00  0.00    -0.298 N 
ATOM      5  N   UNL     1      19.033   7.768  21.030  0.00  0.00    -0.269 N 
ATOM     16  C   UNL     1      17.708   7.368  21.218  0.00  0.00    +0.304 C 
ATOM     29  H   UNL     1      17.287   9.409  21.350  0.00  0.00    +0.150 HD
ATOM     30  H   UNL     1      19.211   8.769  21.034  0.00  0.00    +0.156 HD
ENDROOT
BRANCH   5  17
ATOM     17  C   UNL     1      20.168   6.946  20.832  0.00  0.00    +0.035 A 
ATOM     18  C   UNL     1      19.994   5.588  20.621  0.00  0.00    +0.027 A 
ATOM     19  C   UNL     1      21.430   7.518  20.852  0.00  0.00    +0.027 A 
ATOM     20  C   UNL     1      21.113   4.779  20.427  0.00  0.00    +0.048 A 
ATOM     21  C   UNL     1      22.549   6.708  20.657  0.00  0.00    +0.048 A 
ATOM     22  C   UNL     1      22.390   5.339  20.444  0.00  0.00    +0.129 A 
BRANCH  22   2
ATOM      2  O   UNL     1      23.482   4.548  20.255  0.00  0.00    -0.456 OA
BRANCH   2  23
ATOM     23  C   UNL     1      23.669   3.490  21.129  0.00  0.00    +0.128 A 
ATOM     24  C   UNL     1      23.539   3.708  22.489  0.00  0.00    +0.046 A 
ATOM     25  C   UNL     1      23.983   2.243  20.618  0.00  0.00    +0.046 A 
ATOM     26  C   UNL     1      23.728   2.642  23.368  0.00  0.00    +0.004 A 
ATOM     27  C   UNL     1      24.172   1.177  21.498  0.00  0.00    +0.004 A 
ATOM     28  C   UNL     1      24.045   1.376  22.873  0.00  0.00    +0.000 A 
ENDBRANCH   2  23
ENDBRANCH  22   2
ENDBRANCH   5  17
BRANCH   4  14
ATOM     14  C   UNL     1      15.457   8.388  21.592  0.00  0.00    +0.124 C 
BRANCH  14   8
ATOM      3  N   UNL     1      13.722   9.265  20.005  0.00  0.00    -0.298 NA
ATOM      6  C   UNL     1      12.644   6.932  19.599  0.00  0.00    -0.004 C 
ATOM      7  C   UNL     1      11.780   7.779  20.560  0.00  0.00    +0.006 C 
ATOM      8  C   UNL     1      14.718   8.191  20.267  0.00  0.00    +0.074 C 
ATOM      9  C   UNL     1      14.064   6.793  20.178  0.00  0.00    +0.024 C 
ATOM     10  C   UNL     1      12.535   9.089  20.878  0.00  0.00    +0.088 C 
ATOM     11  C   UNL     1      12.763   7.728  18.285  0.00  0.00    +0.019 C 
ATOM     12  C   UNL     1      13.280   9.144  18.596  0.00  0.00    +0.085 C 
BRANCH   7  13
ATOM     13  C   UNL     1      11.386   7.033  21.833  0.00  0.00    +0.002 C 
ATOM     15  C   UNL     1      11.056   5.582  21.545  0.00  0.00    +0.004 C 
ENDBRANCH   7  13
ENDBRANCH  14   8
ENDBRANCH   4  14
TORSDOF 6
ENDMDL
MODEL 9
REMARK VINA RESULT:      -6.5     28.436     32.399
REMARK  Name = 11943318
REMARK  7 active torsions:
REMARK  status: ('A' for Active; 'I' for Inactive)
REMARK    1  A    between atoms: O_2  and  C_22
REMARK    2  A    between atoms: O_2  and  C_23
REMARK    3  A    between atoms: N_4  and  C_14
REMARK    4  A    between atoms: N_5  and  C_17
REMARK    5  A    between atoms: C_7  and  C_13
REMARK    6  A    between atoms: C_8  and  C_14
REMARK    7  A    between atoms: C_13  and  C_15
REMARK                            x       y       z     vdW  Elec       q    Type
REMARK                         _______ _______ _______ _____ _____    ______ ____
ROOT
ATOM      1  O   UNL     1      -9.439 -10.163  16.416  0.00  0.00    -0.253 OA
ATOM      4  N   UNL     1      -8.678  -9.915  18.588  0.00  0.00    -0.298 N 
ATOM      5  N   UNL     1     -10.107  -8.325  17.716  0.00  0.00    -0.269 N 
ATOM     16  C   UNL     1      -9.423  -9.517  17.462  0.00  0.00    +0.304 C 
ATOM     29  H   UNL     1      -8.711  -9.329  19.416  0.00  0.00    +0.150 HD
ATOM     30  H   UNL     1      -9.983  -7.918  18.640  0.00  0.00    +0.156 HD
ENDROOT
BRANCH   5  17
ATOM     17  C   UNL     1     -10.956  -7.609  16.840  0.00  0.00    +0.035 A 
ATOM     18  C   UNL     1     -10.458  -6.509  16.160  0.00  0.00    +0.027 A 
ATOM     19  C   UNL     1     -12.269  -8.022  16.682  0.00  0.00    +0.027 A 
ATOM     20  C   UNL     1     -11.296  -5.804  15.298  0.00  0.00    +0.048 A 
ATOM     21  C   UNL     1     -13.107  -7.316  15.818  0.00  0.00    +0.048 A 
ATOM     22  C   UNL     1     -12.621  -6.207  15.127  0.00  0.00    +0.129 A 
BRANCH  22   2
ATOM      2  O   UNL     1     -13.439  -5.517  14.286  0.00  0.00    -0.456 OA
BRANCH   2  23
ATOM     23  C   UNL     1     -12.947  -5.192  13.033  0.00  0.00    +0.128 A 
ATOM     24  C   UNL     1     -12.652  -3.872  12.745  0.00  0.00    +0.046 A 
ATOM     25  C   UNL     1     -12.765  -6.198  12.100  0.00  0.00    +0.046 A 
ATOM     26  C   UNL     1     -12.158  -3.546  11.482  0.00  0.00    +0.004 A 
ATOM     27  C   UNL     1     -12.270  -5.871  10.837  0.00  0.00    +0.004 A 
ATOM     28  C   UNL     1     -11.967  -4.546  10.528  0.00  0.00    +0.000 A 
ENDBRANCH   2  23
ENDBRANCH  22   2
ENDBRANCH   5  17
BRANCH   4  14
ATOM     14  C   UNL     1      -7.875 -11.097  18.627  0.00  0.00    +0.124 C 
BRANCH  14   8
ATOM      3  N   UNL     1      -6.149 -10.626  16.868  0.00  0.00    -0.298 NA
ATOM      6  C   UNL     1      -4.359 -12.179  17.941  0.00  0.00    -0.004 C 
ATOM      7  C   UNL     1      -5.011 -12.855  16.713  0.00  0.00    +0.006 C 
ATOM      8  C   UNL     1      -6.411 -10.774  18.326  0.00  0.00    +0.074 C 
ATOM      9  C   UNL     1      -5.453 -11.808  18.960  0.00  0.00    +0.024 C 
ATOM     10  C   UNL     1      -6.160 -11.954  16.207  0.00  0.00    +0.088 C 
ATOM     11  C   UNL     1      -3.731 -10.862  17.446  0.00  0.00    +0.019 C 
ATOM     12  C   UNL     1      -4.798 -10.039  16.703  0.00  0.00    +0.085 C 
BRANCH   7  13
ATOM     13  C   UNL     1      -5.492 -14.277  16.992  0.00  0.00    +0.002 C 
ATOM     15  C   UNL     1      -6.992 -14.399  16.815  0.00  0.00    +0.004 C 
ENDBRANCH   7  13
ENDBRANCH  14   8
ENDBRANCH   4  14
TORSDOF 6
ENDMDL
MODEL 10
REMARK VINA RESULT:      -6.5     25.413     30.883
REMARK  Name = 11943318
REMARK  7 active torsions:
REMARK  status: ('A' for Active; 'I' for Inactive)
REMARK    1  A    between atoms: O_2  and  C_22
REMARK    2  A    between atoms: O_2  and  C_23
REMARK    3  A    between atoms: N_4  and  C_14
REMARK    4  A    between atoms: N_5  and  C_17
REMARK    5  A    between atoms: C_7  and  C_13
REMARK    6  A    between atoms: C_8  and  C_14
REMARK    7  A    between atoms: C_13  and  C_15
REMARK                            x       y       z     vdW  Elec       q    Type
REMARK                         _______ _______ _______ _____ _____    ______ ____
ROOT
ATOM      1  O   UNL     1      -6.851   9.453  38.989  0.00  0.00    -0.253 OA
ATOM      4  N   UNL     1      -4.968   8.830  37.797  0.00  0.00    -0.298 N 
ATOM      5  N   UNL     1      -7.041   8.606  36.808  0.00  0.00    -0.269 N 
ATOM     16  C   UNL     1      -6.355   9.005  37.958  0.00  0.00    +0.304 C 
ATOM     29  H   UNL     1      -4.631   8.452  36.917  0.00  0.00    +0.150 HD
ATOM     30  H   UNL     1      -6.475   8.256  36.039  0.00  0.00    +0.156 HD
ENDROOT
BRANCH   5  17
ATOM     17  C   UNL     1      -8.437   8.628  36.579  0.00  0.00    +0.035 A 
ATOM     18  C   UNL     1      -9.257   7.776  37.302  0.00  0.00    +0.027 A 
ATOM     19  C   UNL     1      -8.956   9.501  35.637  0.00  0.00    +0.027 A 
ATOM     20  C   UNL     1     -10.632   7.798  37.075  0.00  0.00    +0.048 A 
ATOM     21  C   UNL     1     -10.332   9.523  35.411  0.00  0.00    +0.048 A 
ATOM     22  C   UNL     1     -11.170   8.672  36.130  0.00  0.00    +0.129 A 
BRANCH  22   2
ATOM      2  O   UNL     1     -12.513   8.692  35.909  0.00  0.00    -0.456 OA
BRANCH   2  23
ATOM     23  C   UNL     1     -13.027   7.793  34.988  0.00  0.00    +0.128 A 
ATOM     24  C   UNL     1     -13.534   6.586  35.435  0.00  0.00    +0.046 A 
ATOM     25  C   UNL     1     -13.018   8.127  33.646  0.00  0.00    +0.046 A 
ATOM     26  C   UNL     1     -14.051   5.682  34.507  0.00  0.00    +0.004 A 
ATOM     27  C   UNL     1     -13.535   7.222  32.718  0.00  0.00    +0.004 A 
ATOM     28  C   UNL     1     -14.051   6.000  33.148  0.00  0.00    +0.000 A 
ENDBRANCH   2  23
ENDBRANCH  22   2
ENDBRANCH   5  17
BRANCH   4  14
ATOM     14  C   UNL     1      -4.008   9.152  38.807  0.00  0.00    +0.124 C 
BRANCH  14   8
ATOM      3  N   UNL     1      -1.806   8.453  39.785  0.00  0.00    -0.298 NA
ATOM      6  C   UNL     1      -0.943   7.397  37.569  0.00  0.00    -0.004 C 
ATOM      7  C   UNL     1      -0.289   8.776  37.815  0.00  0.00    +0.006 C 
ATOM      8  C   UNL     1      -2.956   8.048  38.932  0.00  0.00    +0.074 C 
ATOM      9  C   UNL     1      -2.474   7.555  37.548  0.00  0.00    +0.024 C 
ATOM     10  C   UNL     1      -0.942   9.417  39.060  0.00  0.00    +0.088 C 
ATOM     11  C   UNL     1      -0.592   6.514  38.783  0.00  0.00    +0.019 C 
ATOM     12  C   UNL     1      -1.003   7.241  40.075  0.00  0.00    +0.085 C 
BRANCH   7  13
ATOM     13  C   UNL     1      -0.361   9.701  36.602  0.00  0.00    +0.002 C 
ATOM     15  C   UNL     1      -1.116  10.975  36.922  0.00  0.00    +0.004 C 
ENDBRANCH   7  13
ENDBRANCH  14   8
ENDBRANCH   4  14
TORSDOF 6
ENDMDL
