MODEL 1
REMARK VINA RESULT:      -7.0      0.000      0.000
REMARK  Name = 75537021
REMARK  3 active torsions:
REMARK  status: ('A' for Active; 'I' for Inactive)
REMARK    1  A    between atoms: N_3  and  C_8
REMARK    2  A    between atoms: N_6  and  C_20
REMARK    3  A    between atoms: C_20  and  C_21
REMARK                            x       y       z     vdW  Elec       q    Type
REMARK                         _______ _______ _______ _____ _____    ______ ____
ROOT
ATOM      1  O   UNL     1      -5.206 -10.661   6.851  0.00  0.00    -0.252 OA
ATOM      2  O   UNL     1     -10.705  -6.511   6.278  0.00  0.00    -0.253 OA
ATOM      3  N   UNL     1      -5.254  -9.589   8.951  0.00  0.00    -0.281 N 
ATOM      4  N   UNL     1      -6.889  -9.145   7.474  0.00  0.00    -0.278 N 
ATOM      5  N   UNL     1      -8.653  -7.009   7.231  0.00  0.00    -0.282 N 
ATOM      6  N   UNL     1     -10.331  -5.872   8.448  0.00  0.00    -0.295 N 
ATOM      7  C   UNL     1      -7.278  -8.431   8.679  0.00  0.00    +0.112 C 
ATOM      9  C   UNL     1      -6.058  -8.560   9.587  0.00  0.00    +0.133 C 
ATOM     12  C   UNL     1      -7.673  -6.998   8.337  0.00  0.00    +0.133 C 
ATOM     13  C   UNL     1      -5.721  -9.898   7.657  0.00  0.00    +0.305 C 
ATOM     14  C   UNL     1      -7.743  -9.104   6.299  0.00  0.00    +0.128 C 
ATOM     18  C   UNL     1      -8.162  -7.663   6.008  0.00  0.00    +0.128 C 
ATOM     19  C   UNL     1      -9.947  -6.465   7.252  0.00  0.00    +0.303 C 
ATOM     27  H   UNL     1      -9.714  -5.864   9.248  0.00  0.00    +0.151 HD
ENDROOT
BRANCH   3   8
ATOM      8  C   UNL     1      -4.044 -10.096   9.553  0.00  0.00    +0.078 C 
ATOM     10  C   UNL     1      -4.368 -11.217  10.544  0.00  0.00    +0.022 C 
ATOM     11  C   UNL     1      -3.261  -8.966  10.227  0.00  0.00    +0.022 C 
ATOM     15  C   UNL     1      -3.111 -11.736  11.237  0.00  0.00    +0.002 C 
ATOM     16  C   UNL     1      -2.004  -9.490  10.919  0.00  0.00    +0.002 C 
ATOM     17  C   UNL     1      -2.330 -10.609  11.904  0.00  0.00    +0.000 C 
ENDBRANCH   3   8
BRANCH   6  20
ATOM     20  C   UNL     1     -11.635  -5.274   8.626  0.00  0.00    +0.141 C 
BRANCH  20  21
ATOM     21  C   UNL     1     -11.916  -4.956  10.066  0.00  0.00    -0.030 A 
ATOM     22  C   UNL     1     -12.234  -5.980  10.958  0.00  0.00    +0.005 A 
ATOM     23  C   UNL     1     -11.859  -3.635  10.512  0.00  0.00    +0.005 A 
ATOM     24  C   UNL     1     -12.495  -5.684  12.296  0.00  0.00    +0.000 A 
ATOM     25  C   UNL     1     -12.120  -3.339  11.850  0.00  0.00    +0.000 A 
ATOM     26  C   UNL     1     -12.438  -4.364  12.742  0.00  0.00    +0.000 A 
ENDBRANCH  20  21
ENDBRANCH   6  20
TORSDOF 3
ENDMDL
MODEL 2
REMARK VINA RESULT:      -6.9     28.884     31.982
REMARK  Name = 75537021
REMARK  3 active torsions:
REMARK  status: ('A' for Active; 'I' for Inactive)
REMARK    1  A    between atoms: N_3  and  C_8
REMARK    2  A    between atoms: N_6  and  C_20
REMARK    3  A    between atoms: C_20  and  C_21
REMARK                            x       y       z     vdW  Elec       q    Type
REMARK                         _______ _______ _______ _____ _____    ______ ____
ROOT
ATOM      1  O   UNL     1      22.298   7.514  22.144  0.00  0.00    -0.252 OA
ATOM      2  O   UNL     1      15.849   9.283  20.392  0.00  0.00    -0.253 OA
ATOM      3  N   UNL     1      21.501   5.556  21.099  0.00  0.00    -0.281 N 
ATOM      4  N   UNL     1      20.168   7.365  21.165  0.00  0.00    -0.278 N 
ATOM      5  N   UNL     1      17.413   7.661  20.929  0.00  0.00    -0.282 N 
ATOM      6  N   UNL     1      15.646   7.215  19.424  0.00  0.00    -0.295 N 
ATOM      7  C   UNL     1      19.436   6.398  20.363  0.00  0.00    +0.112 C 
ATOM      9  C   UNL     1      20.247   5.114  20.515  0.00  0.00    +0.133 C 
ATOM     12  C   UNL     1      17.991   6.303  20.841  0.00  0.00    +0.133 C 
ATOM     13  C   UNL     1      21.433   6.893  21.542  0.00  0.00    +0.305 C 
ATOM     14  C   UNL     1      19.607   8.685  21.399  0.00  0.00    +0.128 C 
ATOM     18  C   UNL     1      18.146   8.563  21.831  0.00  0.00    +0.128 C 
ATOM     19  C   UNL     1      16.272   8.131  20.259  0.00  0.00    +0.303 C 
ATOM     27  H   UNL     1      16.015   6.283  19.300  0.00  0.00    +0.151 HD
ENDROOT
BRANCH   3   8
ATOM      8  C   UNL     1      22.606   4.653  21.313  0.00  0.00    +0.078 C 
ATOM     10  C   UNL     1      23.698   4.887  20.266  0.00  0.00    +0.022 C 
ATOM     11  C   UNL     1      22.127   3.199  21.302  0.00  0.00    +0.022 C 
ATOM     15  C   UNL     1      24.857   3.908  20.435  0.00  0.00    +0.002 C 
ATOM     16  C   UNL     1      23.290   2.224  21.472  0.00  0.00    +0.002 C 
ATOM     17  C   UNL     1      24.378   2.460  20.429  0.00  0.00    +0.000 C 
ENDBRANCH   3   8
BRANCH   6  20
ATOM     20  C   UNL     1      14.464   7.552  18.662  0.00  0.00    +0.141 C 
BRANCH  20  21
ATOM     21  C   UNL     1      13.225   7.540  19.511  0.00  0.00    -0.030 A 
ATOM     22  C   UNL     1      12.213   8.472  19.283  0.00  0.00    +0.005 A 
ATOM     23  C   UNL     1      13.088   6.595  20.529  0.00  0.00    +0.005 A 
ATOM     24  C   UNL     1      11.063   8.459  20.072  0.00  0.00    +0.000 A 
ATOM     25  C   UNL     1      11.938   6.583  21.317  0.00  0.00    +0.000 A 
ATOM     26  C   UNL     1      10.925   7.515  21.089  0.00  0.00    +0.000 A 
ENDBRANCH  20  21
ENDBRANCH   6  20
TORSDOF 3
ENDMDL
MODEL 3
REMARK VINA RESULT:      -6.8      4.391      8.659
REMARK  Name = 75537021
REMARK  3 active torsions:
REMARK  status: ('A' for Active; 'I' for Inactive)
REMARK    1  A    between atoms: N_3  and  C_8
REMARK    2  A    between atoms: N_6  and  C_20
REMARK    3  A    between atoms: C_20  and  C_21
REMARK                            x       y       z     vdW  Elec       q    Type
REMARK                         _______ _______ _______ _____ _____    ______ ____
ROOT
ATOM      1  O   UNL     1      -4.875  -9.032   8.093  0.00  0.00    -0.252 OA
ATOM      2  O   UNL     1      -1.868 -11.060  13.979  0.00  0.00    -0.253 OA
ATOM      3  N   UNL     1      -6.619  -8.792   9.663  0.00  0.00    -0.281 N 
ATOM      4  N   UNL     1      -4.592  -9.437  10.390  0.00  0.00    -0.278 N 
ATOM      5  N   UNL     1      -3.772 -10.765  12.691  0.00  0.00    -0.282 N 
ATOM      6  N   UNL     1      -3.835 -10.559  15.045  0.00  0.00    -0.295 N 
ATOM      7  C   UNL     1      -5.381  -9.273  11.600  0.00  0.00    +0.112 C 
ATOM      9  C   UNL     1      -6.800  -9.055  11.080  0.00  0.00    +0.133 C 
ATOM     12  C   UNL     1      -5.212 -10.487  12.508  0.00  0.00    +0.133 C 
ATOM     13  C   UNL     1      -5.305  -9.077   9.238  0.00  0.00    +0.305 C 
ATOM     14  C   UNL     1      -3.196  -9.830  10.483  0.00  0.00    +0.128 C 
ATOM     18  C   UNL     1      -3.049 -11.016  11.435  0.00  0.00    +0.128 C 
ATOM     19  C   UNL     1      -3.077 -10.814  13.910  0.00  0.00    +0.303 C 
ATOM     27  H   UNL     1      -4.816 -10.331  14.977  0.00  0.00    +0.151 HD
ENDROOT
BRANCH   3   8
ATOM      8  C   UNL     1      -7.720  -8.426   8.806  0.00  0.00    +0.078 C 
ATOM     10  C   UNL     1      -7.597  -6.964   8.370  0.00  0.00    +0.022 C 
ATOM     11  C   UNL     1      -9.058  -8.687   9.503  0.00  0.00    +0.022 C 
ATOM     15  C   UNL     1      -8.778  -6.532   7.505  0.00  0.00    +0.002 C 
ATOM     16  C   UNL     1     -10.238  -8.255   8.634  0.00  0.00    +0.002 C 
ATOM     17  C   UNL     1     -10.110  -6.798   8.199  0.00  0.00    +0.000 C 
ENDBRANCH   3   8
BRANCH   6  20
ATOM     20  C   UNL     1      -3.260 -10.567  16.372  0.00  0.00    +0.141 C 
BRANCH  20  21
ATOM     21  C   UNL     1      -4.297 -10.798  17.433  0.00  0.00    -0.030 A 
ATOM     22  C   UNL     1      -5.562 -10.225  17.309  0.00  0.00    +0.005 A 
ATOM     23  C   UNL     1      -3.994 -11.587  18.544  0.00  0.00    +0.005 A 
ATOM     24  C   UNL     1      -6.525 -10.441  18.295  0.00  0.00    +0.000 A 
ATOM     25  C   UNL     1      -4.956 -11.801  19.529  0.00  0.00    +0.000 A 
ATOM     26  C   UNL     1      -6.223 -11.229  19.405  0.00  0.00    +0.000 A 
ENDBRANCH  20  21
ENDBRANCH   6  20
TORSDOF 3
ENDMDL
MODEL 4
REMARK VINA RESULT:      -6.7      6.627     11.324
REMARK  Name = 75537021
REMARK  3 active torsions:
REMARK  status: ('A' for Active; 'I' for Inactive)
REMARK    1  A    between atoms: N_3  and  C_8
REMARK    2  A    between atoms: N_6  and  C_20
REMARK    3  A    between atoms: C_20  and  C_21
REMARK                            x       y       z     vdW  Elec       q    Type
REMARK                         _______ _______ _______ _____ _____    ______ ____
ROOT
ATOM      1  O   UNL     1     -10.628 -10.159  19.219  0.00  0.00    -0.252 OA
ATOM      2  O   UNL     1      -4.052 -11.735  17.782  0.00  0.00    -0.253 OA
ATOM      3  N   UNL     1     -10.248  -8.975  17.216  0.00  0.00    -0.281 N 
ATOM      4  N   UNL     1      -8.608 -10.279  18.026  0.00  0.00    -0.278 N 
ATOM      5  N   UNL     1      -5.859 -10.295  17.607  0.00  0.00    -0.282 N 
ATOM      6  N   UNL     1      -4.273 -10.495  15.866  0.00  0.00    -0.295 N 
ATOM      7  C   UNL     1      -8.101  -9.803  16.749  0.00  0.00    +0.112 C 
ATOM      9  C   UNL     1      -9.124  -8.754  16.323  0.00  0.00    +0.133 C 
ATOM     12  C   UNL     1      -6.677  -9.282  16.909  0.00  0.00    +0.133 C 
ATOM     13  C   UNL     1      -9.919  -9.848  18.272  0.00  0.00    +0.305 C 
ATOM     14  C   UNL     1      -7.806 -11.185  18.832  0.00  0.00    +0.128 C 
ATOM     18  C   UNL     1      -6.373 -10.664  18.936  0.00  0.00    +0.128 C 
ATOM     19  C   UNL     1      -4.683 -10.897  17.130  0.00  0.00    +0.303 C 
ATOM     27  H   UNL     1      -4.811  -9.830  15.329  0.00  0.00    +0.151 HD
ENDROOT
BRANCH   3   8
ATOM      8  C   UNL     1     -11.488  -8.250  17.078  0.00  0.00    +0.078 C 
ATOM     10  C   UNL     1     -12.595  -9.173  16.563  0.00  0.00    +0.022 C 
ATOM     11  C   UNL     1     -11.307  -7.035  16.163  0.00  0.00    +0.022 C 
ATOM     15  C   UNL     1     -13.906  -8.420  16.357  0.00  0.00    +0.002 C 
ATOM     16  C   UNL     1     -12.620  -6.284  15.960  0.00  0.00    +0.002 C 
ATOM     17  C   UNL     1     -13.722  -7.208  15.449  0.00  0.00    +0.000 C 
ENDBRANCH   3   8
BRANCH   6  20
ATOM     20  C   UNL     1      -3.085 -11.030  15.237  0.00  0.00    +0.141 C 
BRANCH  20  21
ATOM     21  C   UNL     1      -3.009 -10.669  13.781  0.00  0.00    -0.030 A 
ATOM     22  C   UNL     1      -1.773 -10.403  13.192  0.00  0.00    +0.005 A 
ATOM     23  C   UNL     1      -4.176 -10.601  13.019  0.00  0.00    +0.005 A 
ATOM     24  C   UNL     1      -1.704 -10.068  11.839  0.00  0.00    +0.000 A 
ATOM     25  C   UNL     1      -4.105 -10.266  11.667  0.00  0.00    +0.000 A 
ATOM     26  C   UNL     1      -2.869 -10.000  11.077  0.00  0.00    +0.000 A 
ENDBRANCH  20  21
ENDBRANCH   6  20
TORSDOF 3
ENDMDL
MODEL 5
REMARK VINA RESULT:      -6.6     24.871     27.235
REMARK  Name = 75537021
REMARK  3 active torsions:
REMARK  status: ('A' for Active; 'I' for Inactive)
REMARK    1  A    between atoms: N_3  and  C_8
REMARK    2  A    between atoms: N_6  and  C_20
REMARK    3  A    between atoms: C_20  and  C_21
REMARK                            x       y       z     vdW  Elec       q    Type
REMARK                         _______ _______ _______ _____ _____    ______ ____
ROOT
ATOM      1  O   UNL     1      17.383   8.658   2.153  0.00  0.00    -0.252 OA
ATOM      2  O   UNL     1      10.906   6.398   3.017  0.00  0.00    -0.253 OA
ATOM      3  N   UNL     1      17.340   8.103   4.445  0.00  0.00    -0.281 N 
ATOM      4  N   UNL     1      15.511   7.701   3.202  0.00  0.00    -0.278 N 
ATOM      5  N   UNL     1      12.838   7.344   3.880  0.00  0.00    -0.282 N 
ATOM      6  N   UNL     1      11.453   5.956   5.199  0.00  0.00    -0.295 N 
ATOM      7  C   UNL     1      15.199   7.142   4.507  0.00  0.00    +0.112 C 
ATOM      9  C   UNL     1      16.350   7.617   5.390  0.00  0.00    +0.133 C 
ATOM     12  C   UNL     1      13.815   7.599   4.958  0.00  0.00    +0.133 C 
ATOM     13  C   UNL     1      16.817   8.207   3.140  0.00  0.00    +0.305 C 
ATOM     14  C   UNL     1      14.547   7.598   2.119  0.00  0.00    +0.128 C 
ATOM     18  C   UNL     1      13.162   8.016   2.611  0.00  0.00    +0.128 C 
ATOM     19  C   UNL     1      11.679   6.557   3.968  0.00  0.00    +0.303 C 
ATOM     27  H   UNL     1      12.104   6.069   5.962  0.00  0.00    +0.151 HD
ENDROOT
BRANCH   3   8
ATOM      8  C   UNL     1      18.645   8.551   4.867  0.00  0.00    +0.078 C 
ATOM     10  C   UNL     1      19.724   7.565   4.411  0.00  0.00    +0.022 C 
ATOM     11  C   UNL     1      18.683   8.754   6.384  0.00  0.00    +0.022 C 
ATOM     15  C   UNL     1      21.110   7.986   4.890  0.00  0.00    +0.002 C 
ATOM     16  C   UNL     1      20.071   9.176   6.860  0.00  0.00    +0.002 C 
ATOM     17  C   UNL     1      21.145   8.193   6.401  0.00  0.00    +0.000 C 
ENDBRANCH   3   8
BRANCH   6  20
ATOM     20  C   UNL     1      10.305   5.111   5.444  0.00  0.00    +0.141 C 
BRANCH  20  21
ATOM     21  C   UNL     1       9.849   5.181   6.873  0.00  0.00    -0.030 A 
ATOM     22  C   UNL     1       9.390   6.387   7.401  0.00  0.00    +0.005 A 
ATOM     23  C   UNL     1       9.886   4.037   7.672  0.00  0.00    +0.005 A 
ATOM     24  C   UNL     1       8.967   6.450   8.729  0.00  0.00    +0.000 A 
ATOM     25  C   UNL     1       9.463   4.101   8.999  0.00  0.00    +0.000 A 
ATOM     26  C   UNL     1       9.003   5.308   9.528  0.00  0.00    +0.000 A 
ENDBRANCH  20  21
ENDBRANCH   6  20
TORSDOF 3
ENDMDL
MODEL 6
REMARK VINA RESULT:      -6.5     19.002     21.159
REMARK  Name = 75537021
REMARK  3 active torsions:
REMARK  status: ('A' for Active; 'I' for Inactive)
REMARK    1  A    between atoms: N_3  and  C_8
REMARK    2  A    between atoms: N_6  and  C_20
REMARK    3  A    between atoms: C_20  and  C_21
REMARK                            x       y       z     vdW  Elec       q    Type
REMARK                         _______ _______ _______ _____ _____    ______ ____
ROOT
ATOM      1  O   UNL     1     -14.616   8.270  19.699  0.00  0.00    -0.252 OA
ATOM      2  O   UNL     1     -17.968   4.276  24.238  0.00  0.00    -0.253 OA
ATOM      3  N   UNL     1     -12.882   6.935  20.577  0.00  0.00    -0.281 N 
ATOM      4  N   UNL     1     -14.990   6.555  21.260  0.00  0.00    -0.278 N 
ATOM      5  N   UNL     1     -16.021   5.307  23.521  0.00  0.00    -0.282 N 
ATOM      6  N   UNL     1     -15.970   3.231  24.651  0.00  0.00    -0.295 N 
ATOM      7  C   UNL     1     -14.206   5.503  21.886  0.00  0.00    +0.112 C 
ATOM      9  C   UNL     1     -12.762   5.905  21.594  0.00  0.00    +0.133 C 
ATOM     12  C   UNL     1     -14.554   5.397  23.367  0.00  0.00    +0.133 C 
ATOM     13  C   UNL     1     -14.215   7.365  20.418  0.00  0.00    +0.305 C 
ATOM     14  C   UNL     1     -16.428   6.607  21.464  0.00  0.00    +0.128 C 
ATOM     18  C   UNL     1     -16.751   6.450  22.950  0.00  0.00    +0.128 C 
ATOM     19  C   UNL     1     -16.737   4.273  24.145  0.00  0.00    +0.303 C 
ATOM     27  H   UNL     1     -14.966   3.224  24.546  0.00  0.00    +0.151 HD
ENDROOT
BRANCH   3   8
ATOM      8  C   UNL     1     -11.727   7.518  19.939  0.00  0.00    +0.078 C 
ATOM     10  C   UNL     1     -11.585   8.991  20.330  0.00  0.00    +0.022 C 
ATOM     11  C   UNL     1     -11.806   7.351  18.419  0.00  0.00    +0.022 C 
ATOM     15  C   UNL     1     -10.400   9.648  19.627  0.00  0.00    +0.002 C 
ATOM     16  C   UNL     1     -10.619   8.009  17.719  0.00  0.00    +0.002 C 
ATOM     17  C   UNL     1     -10.478   9.477  18.113  0.00  0.00    +0.000 C 
ENDBRANCH   3   8
BRANCH   6  20
ATOM     20  C   UNL     1     -16.562   2.092  25.315  0.00  0.00    +0.141 C 
BRANCH  20  21
ATOM     21  C   UNL     1     -16.387   2.157  26.805  0.00  0.00    -0.030 A 
ATOM     22  C   UNL     1     -16.654   1.034  27.588  0.00  0.00    +0.005 A 
ATOM     23  C   UNL     1     -15.957   3.340  27.406  0.00  0.00    +0.005 A 
ATOM     24  C   UNL     1     -16.490   1.095  28.973  0.00  0.00    +0.000 A 
ATOM     25  C   UNL     1     -15.795   3.401  28.789  0.00  0.00    +0.000 A 
ATOM     26  C   UNL     1     -16.061   2.278  29.573  0.00  0.00    +0.000 A 
ENDBRANCH  20  21
ENDBRANCH   6  20
TORSDOF 3
ENDMDL
MODEL 7
REMARK VINA RESULT:      -6.4      6.659     11.415
REMARK  Name = 75537021
REMARK  3 active torsions:
REMARK  status: ('A' for Active; 'I' for Inactive)
REMARK    1  A    between atoms: N_3  and  C_8
REMARK    2  A    between atoms: N_6  and  C_20
REMARK    3  A    between atoms: C_20  and  C_21
REMARK                            x       y       z     vdW  Elec       q    Type
REMARK                         _______ _______ _______ _____ _____    ______ ____
ROOT
ATOM      1  O   UNL     1     -12.491  -9.922  17.271  0.00  0.00    -0.252 OA
ATOM      2  O   UNL     1      -6.192 -12.052  19.164  0.00  0.00    -0.253 OA
ATOM      3  N   UNL     1     -11.083  -8.662  15.860  0.00  0.00    -0.281 N 
ATOM      4  N   UNL     1     -10.155 -10.169  17.244  0.00  0.00    -0.278 N 
ATOM      5  N   UNL     1      -7.579 -10.432  18.257  0.00  0.00    -0.282 N 
ATOM      6  N   UNL     1      -5.342 -10.682  17.533  0.00  0.00    -0.295 N 
ATOM      7  C   UNL     1      -9.046  -9.669  16.448  0.00  0.00    +0.112 C 
ATOM      9  C   UNL     1      -9.651  -8.499  15.678  0.00  0.00    +0.133 C 
ATOM     12  C   UNL     1      -7.873  -9.302  17.352  0.00  0.00    +0.133 C 
ATOM     13  C   UNL     1     -11.383  -9.626  16.843  0.00  0.00    +0.305 C 
ATOM     14  C   UNL     1      -9.923 -11.198  18.245  0.00  0.00    +0.128 C 
ATOM     18  C   UNL     1      -8.715 -10.828  19.104  0.00  0.00    +0.128 C 
ATOM     19  C   UNL     1      -6.359 -11.118  18.373  0.00  0.00    +0.303 C 
ATOM     27  H   UNL     1      -5.496  -9.936  16.871  0.00  0.00    +0.151 HD
ENDROOT
BRANCH   3   8
ATOM      8  C   UNL     1     -12.040  -7.810  15.196  0.00  0.00    +0.078 C 
ATOM     10  C   UNL     1     -12.238  -8.256  13.744  0.00  0.00    +0.022 C 
ATOM     11  C   UNL     1     -11.606  -6.344  15.273  0.00  0.00    +0.022 C 
ATOM     15  C   UNL     1     -13.206  -7.339  13.001  0.00  0.00    +0.002 C 
ATOM     16  C   UNL     1     -12.577  -5.430  14.529  0.00  0.00    +0.002 C 
ATOM     17  C   UNL     1     -12.774  -5.878  13.084  0.00  0.00    +0.000 C 
ENDBRANCH   3   8
BRANCH   6  20
ATOM     20  C   UNL     1      -4.031 -11.293  17.531  0.00  0.00    +0.141 C 
BRANCH  20  21
ATOM     21  C   UNL     1      -3.253 -10.950  16.294  0.00  0.00    -0.030 A 
ATOM     22  C   UNL     1      -3.890 -10.926  15.053  0.00  0.00    +0.005 A 
ATOM     23  C   UNL     1      -1.892 -10.657  16.386  0.00  0.00    +0.005 A 
ATOM     24  C   UNL     1      -3.166 -10.607  13.904  0.00  0.00    +0.000 A 
ATOM     25  C   UNL     1      -1.169 -10.339  15.237  0.00  0.00    +0.000 A 
ATOM     26  C   UNL     1      -1.805 -10.314  13.995  0.00  0.00    +0.000 A 
ENDBRANCH  20  21
ENDBRANCH   6  20
TORSDOF 3
ENDMDL
MODEL 8
REMARK VINA RESULT:      -6.3      6.449      8.010
REMARK  Name = 75537021
REMARK  3 active torsions:
REMARK  status: ('A' for Active; 'I' for Inactive)
REMARK    1  A    between atoms: N_3  and  C_8
REMARK    2  A    between atoms: N_6  and  C_20
REMARK    3  A    between atoms: C_20  and  C_21
REMARK                            x       y       z     vdW  Elec       q    Type
REMARK                         _______ _______ _______ _____ _____    ______ ____
ROOT
ATOM      1  O   UNL     1      -9.307 -10.913  19.292  0.00  0.00    -0.252 OA
ATOM      2  O   UNL     1     -13.894  -6.935  15.987  0.00  0.00    -0.253 OA
ATOM      3  N   UNL     1      -8.017  -9.996  17.544  0.00  0.00    -0.281 N 
ATOM      4  N   UNL     1     -10.156  -9.343  17.765  0.00  0.00    -0.278 N 
ATOM      5  N   UNL     1     -11.950  -8.195  15.977  0.00  0.00    -0.282 N 
ATOM      6  N   UNL     1     -12.192  -6.296  14.591  0.00  0.00    -0.295 N 
ATOM      7  C   UNL     1      -9.628  -8.514  16.694  0.00  0.00    +0.112 C 
ATOM      9  C   UNL     1      -8.256  -9.120  16.410  0.00  0.00    +0.133 C 
ATOM     12  C   UNL     1     -10.586  -8.515  15.507  0.00  0.00    +0.133 C 
ATOM     13  C   UNL     1      -9.177 -10.174  18.326  0.00  0.00    +0.305 C 
ATOM     14  C   UNL     1     -11.532  -9.172  18.203  0.00  0.00    +0.128 C 
ATOM     18  C   UNL     1     -12.464  -9.128  16.993  0.00  0.00    +0.128 C 
ATOM     19  C   UNL     1     -12.757  -7.130  15.546  0.00  0.00    +0.303 C 
ATOM     27  H   UNL     1     -11.251  -6.447  14.257  0.00  0.00    +0.151 HD
ENDROOT
BRANCH   3   8
ATOM      8  C   UNL     1      -6.766 -10.692  17.722  0.00  0.00    +0.078 C 
ATOM     10  C   UNL     1      -5.644  -9.981  16.962  0.00  0.00    +0.022 C 
ATOM     11  C   UNL     1      -6.894 -12.155  17.288  0.00  0.00    +0.022 C 
ATOM     15  C   UNL     1      -4.318 -10.727  17.089  0.00  0.00    +0.002 C 
ATOM     16  C   UNL     1      -5.565 -12.897  17.417  0.00  0.00    +0.002 C 
ATOM     17  C   UNL     1      -4.448 -12.185  16.659  0.00  0.00    +0.000 C 
ENDBRANCH   3   8
BRANCH   6  20
ATOM     20  C   UNL     1     -12.896  -5.153  14.053  0.00  0.00    +0.141 C 
BRANCH  20  21
ATOM     21  C   UNL     1     -12.505  -4.868  12.632  0.00  0.00    -0.030 A 
ATOM     22  C   UNL     1     -12.321  -5.920  11.735  0.00  0.00    +0.005 A 
ATOM     23  C   UNL     1     -12.325  -3.550  12.210  0.00  0.00    +0.005 A 
ATOM     24  C   UNL     1     -11.958  -5.653  10.414  0.00  0.00    +0.000 A 
ATOM     25  C   UNL     1     -11.962  -3.285  10.890  0.00  0.00    +0.000 A 
ATOM     26  C   UNL     1     -11.778  -4.337   9.992  0.00  0.00    +0.000 A 
ENDBRANCH  20  21
ENDBRANCH   6  20
TORSDOF 3
ENDMDL
MODEL 9
REMARK VINA RESULT:      -6.3     27.941     30.749
REMARK  Name = 75537021
REMARK  3 active torsions:
REMARK  status: ('A' for Active; 'I' for Inactive)
REMARK    1  A    between atoms: N_3  and  C_8
REMARK    2  A    between atoms: N_6  and  C_20
REMARK    3  A    between atoms: C_20  and  C_21
REMARK                            x       y       z     vdW  Elec       q    Type
REMARK                         _______ _______ _______ _____ _____    ______ ____
ROOT
ATOM      1  O   UNL     1      10.415   8.924  23.121  0.00  0.00    -0.252 OA
ATOM      2  O   UNL     1      12.991   7.734  16.817  0.00  0.00    -0.253 OA
ATOM      3  N   UNL     1      11.868  10.756  22.812  0.00  0.00    -0.281 N 
ATOM      4  N   UNL     1      11.606   9.289  21.130  0.00  0.00    -0.278 N 
ATOM      5  N   UNL     1      13.185   8.683  18.922  0.00  0.00    -0.282 N 
ATOM      6  N   UNL     1      14.142   9.706  17.018  0.00  0.00    -0.295 N 
ATOM      7  C   UNL     1      12.451  10.335  20.577  0.00  0.00    +0.112 C 
ATOM      9  C   UNL     1      12.798  11.198  21.788  0.00  0.00    +0.133 C 
ATOM     12  C   UNL     1      13.652   9.720  19.865  0.00  0.00    +0.133 C 
ATOM     13  C   UNL     1      11.194   9.575  22.439  0.00  0.00    +0.305 C 
ATOM     14  C   UNL     1      11.203   8.168  20.297  0.00  0.00    +0.128 C 
ATOM     18  C   UNL     1      12.416   7.602  19.560  0.00  0.00    +0.128 C 
ATOM     19  C   UNL     1      13.412   8.644  17.537  0.00  0.00    +0.303 C 
ATOM     27  H   UNL     1      14.459  10.460  17.610  0.00  0.00    +0.151 HD
ENDROOT
BRANCH   3   8
ATOM      8  C   UNL     1      11.788  11.399  24.101  0.00  0.00    +0.078 C 
ATOM     10  C   UNL     1      10.668  12.442  24.112  0.00  0.00    +0.022 C 
ATOM     11  C   UNL     1      13.134  12.025  24.479  0.00  0.00    +0.022 C 
ATOM     15  C   UNL     1      10.595  13.177  25.447  0.00  0.00    +0.002 C 
ATOM     16  C   UNL     1      13.057  12.759  25.816  0.00  0.00    +0.002 C 
ATOM     17  C   UNL     1      11.937  13.795  25.824  0.00  0.00    +0.000 C 
ENDBRANCH   3   8
BRANCH   6  20
ATOM     20  C   UNL     1      14.453   9.811  15.610  0.00  0.00    +0.141 C 
BRANCH  20  21
ATOM     21  C   UNL     1      15.031  11.151  15.260  0.00  0.00    -0.030 A 
ATOM     22  C   UNL     1      16.217  11.231  14.531  0.00  0.00    +0.005 A 
ATOM     23  C   UNL     1      14.379  12.318  15.663  0.00  0.00    +0.005 A 
ATOM     24  C   UNL     1      16.753  12.477  14.206  0.00  0.00    +0.000 A 
ATOM     25  C   UNL     1      14.916  13.563  15.337  0.00  0.00    +0.000 A 
ATOM     26  C   UNL     1      16.103  13.643  14.609  0.00  0.00    +0.000 A 
ENDBRANCH  20  21
ENDBRANCH   6  20
TORSDOF 3
ENDMDL
MODEL 10
REMARK VINA RESULT:      -6.2     28.901     31.957
REMARK  Name = 75537021
REMARK  3 active torsions:
REMARK  status: ('A' for Active; 'I' for Inactive)
REMARK    1  A    between atoms: N_3  and  C_8
REMARK    2  A    between atoms: N_6  and  C_20
REMARK    3  A    between atoms: C_20  and  C_21
REMARK                            x       y       z     vdW  Elec       q    Type
REMARK                         _______ _______ _______ _____ _____    ______ ____
ROOT
ATOM      1  O   UNL     1      17.858  -6.031  26.116  0.00  0.00    -0.252 OA
ATOM      2  O   UNL     1      22.289 -10.760  23.709  0.00  0.00    -0.253 OA
ATOM      3  N   UNL     1      18.456  -5.143  24.014  0.00  0.00    -0.281 N 
ATOM      4  N   UNL     1      19.283  -7.144  24.616  0.00  0.00    -0.278 N 
ATOM      5  N   UNL     1      21.502  -8.581  23.754  0.00  0.00    -0.282 N 
ATOM      6  N   UNL     1      22.429  -9.514  21.790  0.00  0.00    -0.295 N 
ATOM      7  C   UNL     1      19.739  -6.955  23.249  0.00  0.00    +0.112 C 
ATOM      9  C   UNL     1      19.361  -5.509  22.939  0.00  0.00    +0.133 C 
ATOM     12  C   UNL     1      21.229  -7.263  23.144  0.00  0.00    +0.133 C 
ATOM     13  C   UNL     1      18.453  -6.101  25.049  0.00  0.00    +0.305 C 
ATOM     14  C   UNL     1      19.616  -8.367  25.329  0.00  0.00    +0.128 C 
ATOM     18  C   UNL     1      21.103  -8.678  25.167  0.00  0.00    +0.128 C 
ATOM     19  C   UNL     1      22.089  -9.691  23.125  0.00  0.00    +0.303 C 
ATOM     27  H   UNL     1      22.237  -8.645  21.313  0.00  0.00    +0.151 HD
ENDROOT
BRANCH   3   8
ATOM      8  C   UNL     1      17.775  -3.871  24.042  0.00  0.00    +0.078 C 
ATOM     10  C   UNL     1      16.584  -3.880  23.081  0.00  0.00    +0.022 C 
ATOM     11  C   UNL     1      18.744  -2.731  23.717  0.00  0.00    +0.022 C 
ATOM     15  C   UNL     1      15.876  -2.528  23.049  0.00  0.00    +0.002 C 
ATOM     16  C   UNL     1      18.032  -1.381  23.687  0.00  0.00    +0.002 C 
ATOM     17  C   UNL     1      16.844  -1.393  22.730  0.00  0.00    +0.000 C 
ENDBRANCH   3   8
BRANCH   6  20
ATOM     20  C   UNL     1      23.037 -10.566  21.005  0.00  0.00    +0.141 C 
BRANCH  20  21
ATOM     21  C   UNL     1      22.065 -11.181  20.040  0.00  0.00    -0.030 A 
ATOM     22  C   UNL     1      21.904 -10.632  18.768  0.00  0.00    +0.005 A 
ATOM     23  C   UNL     1      21.323 -12.301  20.417  0.00  0.00    +0.005 A 
ATOM     24  C   UNL     1      21.000 -11.205  17.871  0.00  0.00    +0.000 A 
ATOM     25  C   UNL     1      20.420 -12.872  19.520  0.00  0.00    +0.000 A 
ATOM     26  C   UNL     1      20.258 -12.324  18.247  0.00  0.00    +0.000 A 
ENDBRANCH  20  21
ENDBRANCH   6  20
TORSDOF 3
ENDMDL
