MODEL 1
REMARK VINA RESULT:      -7.1      0.000      0.000
REMARK  Name = 75536089
REMARK  8 active torsions:
REMARK  status: ('A' for Active; 'I' for Inactive)
REMARK    1  A    between atoms: O_1  and  C_12
REMARK    2  A    between atoms: O_2  and  C_14
REMARK    3  A    between atoms: N_5  and  C_11
REMARK    4  A    between atoms: N_7  and  C_20
REMARK    5  A    between atoms: N_8  and  C_28
REMARK    6  A    between atoms: C_10  and  C_15
REMARK    7  A    between atoms: C_18  and  C_21
REMARK    8  A    between atoms: C_27  and  C_29
REMARK                            x       y       z     vdW  Elec       q    Type
REMARK                         _______ _______ _______ _____ _____    ______ ____
ROOT
ATOM     10  C   UNL     1      13.582   9.560  20.157  0.00  0.00    +0.046 C 
ATOM     11  C   UNL     1      13.828   8.039  20.277  0.00  0.00    +0.112 C 
ATOM     12  C   UNL     1      12.886   7.614  21.402  0.00  0.00    +0.164 C 
ATOM     13  C   UNL     1      12.169   9.807  20.746  0.00  0.00    +0.044 C 
ATOM     14  C   UNL     1      11.629   8.430  21.126  0.00  0.00    +0.145 C 
ENDROOT
BRANCH  10  15
ATOM      6  N   UNL     1      13.149   9.990  16.413  0.00  0.00    -0.240 NA
ATOM     15  C   UNL     1      13.770  10.080  18.747  0.00  0.00    -0.024 A 
ATOM     16  C   UNL     1      14.694  11.082  18.471  0.00  0.00    +0.009 A 
ATOM     17  C   UNL     1      13.029   9.571  17.693  0.00  0.00    +0.116 A 
ATOM     19  C   UNL     1      14.846  11.539  17.165  0.00  0.00    +0.044 A 
ATOM     20  C   UNL     1      14.056  10.964  16.182  0.00  0.00    +0.121 A 
BRANCH  20   7
ATOM      4  O   UNL     1      14.438  12.137  12.162  0.00  0.00    -0.377 OA
ATOM      7  N   UNL     1      14.220  11.434  14.875  0.00  0.00    -0.311 N 
ATOM     22  C   UNL     1      13.015  11.707  14.079  0.00  0.00    +0.134 C 
ATOM     23  C   UNL     1      15.405  11.045  14.101  0.00  0.00    +0.134 C 
ATOM     24  C   UNL     1      13.358  12.656  12.937  0.00  0.00    +0.178 C 
ATOM     25  C   UNL     1      15.619  12.029  12.956  0.00  0.00    +0.178 C 
ENDBRANCH  20   7
ENDBRANCH  10  15
BRANCH  11   5
ATOM      3  O   UNL     1      15.733   6.764  18.547  0.00  0.00    -0.269 OA
ATOM      5  N   UNL     1      15.203   7.737  20.585  0.00  0.00    -0.304 N 
ATOM     18  C   UNL     1      16.053   7.115  19.679  0.00  0.00    +0.262 C 
ATOM     30  H   UNL     1      15.569   8.037  21.484  0.00  0.00    +0.149 HD
BRANCH  18  21
ATOM      8  N   UNL     1      18.160   7.668  20.973  0.00  0.00    -0.262 N 
ATOM      9  N   UNL     1      19.385   7.198  21.261  0.00  0.00    -0.176 NA
ATOM     21  C   UNL     1      17.434   6.849  20.158  0.00  0.00    +0.123 A 
ATOM     26  C   UNL     1      18.242   5.770  19.894  0.00  0.00    +0.057 A 
ATOM     27  C   UNL     1      19.430   6.039  20.600  0.00  0.00    +0.061 A 
ATOM     28  C   UNL     1      17.741   8.935  21.525  0.00  0.00    +0.173 C 
ATOM     29  C   UNL     1      20.641   5.204  20.667  0.00  0.00    +0.067 C 
ENDBRANCH  18  21
ENDBRANCH  11   5
BRANCH  12   1
ATOM      1  O   UNL     1      12.610   6.226  21.375  0.00  0.00    -0.387 OA
ATOM     31  H   UNL     1      12.687   5.931  20.452  0.00  0.00    +0.210 HD
ENDBRANCH  12   1
BRANCH  14   2
ATOM      2  O   UNL     1      10.908   7.900  20.018  0.00  0.00    -0.389 OA
ATOM     32  H   UNL     1       9.972   7.850  20.275  0.00  0.00    +0.210 HD
ENDBRANCH  14   2
TORSDOF 6
ENDMDL
MODEL 2
REMARK VINA RESULT:      -6.8     12.458     15.759
REMARK  Name = 75536089
REMARK  8 active torsions:
REMARK  status: ('A' for Active; 'I' for Inactive)
REMARK    1  A    between atoms: O_1  and  C_12
REMARK    2  A    between atoms: O_2  and  C_14
REMARK    3  A    between atoms: N_5  and  C_11
REMARK    4  A    between atoms: N_7  and  C_20
REMARK    5  A    between atoms: N_8  and  C_28
REMARK    6  A    between atoms: C_10  and  C_15
REMARK    7  A    between atoms: C_18  and  C_21
REMARK    8  A    between atoms: C_27  and  C_29
REMARK                            x       y       z     vdW  Elec       q    Type
REMARK                         _______ _______ _______ _____ _____    ______ ____
ROOT
ATOM     10  C   UNL     1      10.098   6.259   5.050  0.00  0.00    +0.046 C 
ATOM     11  C   UNL     1      11.331   6.211   5.979  0.00  0.00    +0.112 C 
ATOM     12  C   UNL     1      10.724   6.005   7.366  0.00  0.00    +0.164 C 
ATOM     13  C   UNL     1       8.969   5.513   5.807  0.00  0.00    +0.044 C 
ATOM     14  C   UNL     1       9.598   5.012   7.105  0.00  0.00    +0.145 C 
ENDROOT
BRANCH  10  15
ATOM      6  N   UNL     1      10.389   6.078   1.272  0.00  0.00    -0.240 NA
ATOM     15  C   UNL     1      10.381   5.721   3.663  0.00  0.00    -0.024 A 
ATOM     16  C   UNL     1      10.870   4.433   3.480  0.00  0.00    +0.009 A 
ATOM     17  C   UNL     1      10.159   6.497   2.536  0.00  0.00    +0.116 A 
ATOM     19  C   UNL     1      11.119   3.966   2.193  0.00  0.00    +0.044 A 
ATOM     20  C   UNL     1      10.864   4.820   1.133  0.00  0.00    +0.121 A 
BRANCH  20   7
ATOM      4  O   UNL     1      11.830   3.558  -2.760  0.00  0.00    -0.377 OA
ATOM      7  N   UNL     1      11.119   4.337  -0.154  0.00  0.00    -0.311 N 
ATOM     22  C   UNL     1      12.412   3.687  -0.408  0.00  0.00    +0.134 C 
ATOM     23  C   UNL     1      10.511   4.995  -1.317  0.00  0.00    +0.134 C 
ATOM     24  C   UNL     1      12.310   2.804  -1.647  0.00  0.00    +0.178 C 
ATOM     25  C   UNL     1      10.511   4.042  -2.507  0.00  0.00    +0.178 C 
ENDBRANCH  20   7
ENDBRANCH  10  15
BRANCH  11   5
ATOM      3  O   UNL     1      13.989   6.604   6.992  0.00  0.00    -0.269 OA
ATOM      5  N   UNL     1      12.109   7.422   5.908  0.00  0.00    -0.304 N 
ATOM     18  C   UNL     1      13.393   7.517   6.429  0.00  0.00    +0.262 C 
ATOM     30  H   UNL     1      11.713   8.216   5.414  0.00  0.00    +0.149 HD
BRANCH  18  21
ATOM      8  N   UNL     1      15.170   9.101   5.561  0.00  0.00    -0.262 N 
ATOM      9  N   UNL     1      15.567  10.384   5.608  0.00  0.00    -0.176 NA
ATOM     21  C   UNL     1      14.052   8.843   6.298  0.00  0.00    +0.123 A 
ATOM     26  C   UNL     1      13.694  10.040   6.869  0.00  0.00    +0.057 A 
ATOM     27  C   UNL     1      14.662  10.953   6.408  0.00  0.00    +0.061 A 
ATOM     28  C   UNL     1      15.925   8.157   4.771  0.00  0.00    +0.173 C 
ATOM     29  C   UNL     1      14.756  12.390   6.713  0.00  0.00    +0.067 C 
ENDBRANCH  18  21
ENDBRANCH  11   5
BRANCH  12   1
ATOM      1  O   UNL     1      11.661   5.484   8.290  0.00  0.00    -0.387 OA
ATOM     31  H   UNL     1      12.192   4.816   7.822  0.00  0.00    +0.210 HD
ENDBRANCH  12   1
BRANCH  14   2
ATOM      2  O   UNL     1      10.112   3.702   6.889  0.00  0.00    -0.389 OA
ATOM     32  H   UNL     1      10.106   3.240   7.745  0.00  0.00    +0.210 HD
ENDBRANCH  14   2
TORSDOF 6
ENDMDL
MODEL 3
REMARK VINA RESULT:      -6.7     13.401     17.453
REMARK  Name = 75536089
REMARK  8 active torsions:
REMARK  status: ('A' for Active; 'I' for Inactive)
REMARK    1  A    between atoms: O_1  and  C_12
REMARK    2  A    between atoms: O_2  and  C_14
REMARK    3  A    between atoms: N_5  and  C_11
REMARK    4  A    between atoms: N_7  and  C_20
REMARK    5  A    between atoms: N_8  and  C_28
REMARK    6  A    between atoms: C_10  and  C_15
REMARK    7  A    between atoms: C_18  and  C_21
REMARK    8  A    between atoms: C_27  and  C_29
REMARK                            x       y       z     vdW  Elec       q    Type
REMARK                         _______ _______ _______ _____ _____    ______ ____
ROOT
ATOM     10  C   UNL     1       8.732   6.357   5.665  0.00  0.00    +0.046 C 
ATOM     11  C   UNL     1       8.747   7.897   5.784  0.00  0.00    +0.112 C 
ATOM     12  C   UNL     1       8.660   8.139   7.290  0.00  0.00    +0.164 C 
ATOM     13  C   UNL     1       9.229   5.823   7.034  0.00  0.00    +0.044 C 
ATOM     14  C   UNL     1       9.566   7.058   7.866  0.00  0.00    +0.145 C 
ENDROOT
BRANCH  10  15
ATOM      6  N   UNL     1      10.967   4.162   3.525  0.00  0.00    -0.240 NA
ATOM     15  C   UNL     1       9.517   5.848   4.475  0.00  0.00    -0.024 A 
ATOM     16  C   UNL     1       9.532   6.548   3.273  0.00  0.00    +0.009 A 
ATOM     17  C   UNL     1      10.245   4.671   4.548  0.00  0.00    +0.116 A 
ATOM     19  C   UNL     1      10.264   6.057   2.197  0.00  0.00    +0.044 A 
ATOM     20  C   UNL     1      10.958   4.871   2.374  0.00  0.00    +0.121 A 
BRANCH  20   7
ATOM      4  O   UNL     1      12.998   3.194  -0.899  0.00  0.00    -0.377 OA
ATOM      7  N   UNL     1      11.689   4.389   1.283  0.00  0.00    -0.311 N 
ATOM     22  C   UNL     1      10.994   4.224  -0.001  0.00  0.00    +0.134 C 
ATOM     23  C   UNL     1      12.817   3.476   1.504  0.00  0.00    +0.134 C 
ATOM     24  C   UNL     1      12.011   4.197  -1.136  0.00  0.00    +0.178 C 
ATOM     25  C   UNL     1      13.736   3.487   0.288  0.00  0.00    +0.178 C 
ENDBRANCH  20   7
ENDBRANCH  10  15
BRANCH  11   5
ATOM      3  O   UNL     1       8.635  10.578   4.759  0.00  0.00    -0.269 OA
ATOM      5  N   UNL     1       7.646   8.504   5.078  0.00  0.00    -0.304 N 
ATOM     18  C   UNL     1       7.685   9.814   4.618  0.00  0.00    +0.262 C 
ATOM     30  H   UNL     1       6.835   7.929   4.872  0.00  0.00    +0.149 HD
BRANCH  18  21
ATOM      8  N   UNL     1       6.178  10.137   2.607  0.00  0.00    -0.262 N 
ATOM      9  N   UNL     1       5.002  10.670   2.233  0.00  0.00    -0.176 NA
ATOM     21  C   UNL     1       6.460  10.300   3.932  0.00  0.00    +0.123 A 
ATOM     26  C   UNL     1       5.395  10.988   4.461  0.00  0.00    +0.057 A 
ATOM     27  C   UNL     1       4.528  11.188   3.369  0.00  0.00    +0.061 A 
ATOM     28  C   UNL     1       6.998   9.472   1.622  0.00  0.00    +0.173 C 
ATOM     29  C   UNL     1       3.227  11.875   3.372  0.00  0.00    +0.067 C 
ENDBRANCH  18  21
ENDBRANCH  11   5
BRANCH  12   1
ATOM      1  O   UNL     1       9.110   9.431   7.653  0.00  0.00    -0.387 OA
ATOM     31  H   UNL     1       8.775   9.616   8.548  0.00  0.00    +0.210 HD
ENDBRANCH  12   1
BRANCH  14   2
ATOM      2  O   UNL     1      10.939   7.383   7.666  0.00  0.00    -0.389 OA
ATOM     32  H   UNL     1      11.417   6.550   7.513  0.00  0.00    +0.210 HD
ENDBRANCH  14   2
TORSDOF 6
ENDMDL
MODEL 4
REMARK VINA RESULT:      -6.7     13.406     17.118
REMARK  Name = 75536089
REMARK  8 active torsions:
REMARK  status: ('A' for Active; 'I' for Inactive)
REMARK    1  A    between atoms: O_1  and  C_12
REMARK    2  A    between atoms: O_2  and  C_14
REMARK    3  A    between atoms: N_5  and  C_11
REMARK    4  A    between atoms: N_7  and  C_20
REMARK    5  A    between atoms: N_8  and  C_28
REMARK    6  A    between atoms: C_10  and  C_15
REMARK    7  A    between atoms: C_18  and  C_21
REMARK    8  A    between atoms: C_27  and  C_29
REMARK                            x       y       z     vdW  Elec       q    Type
REMARK                         _______ _______ _______ _____ _____    ______ ____
ROOT
ATOM     10  C   UNL     1       9.229   5.801   5.529  0.00  0.00    +0.046 C 
ATOM     11  C   UNL     1       9.048   7.304   5.839  0.00  0.00    +0.112 C 
ATOM     12  C   UNL     1       8.641   7.317   7.311  0.00  0.00    +0.164 C 
ATOM     13  C   UNL     1       9.503   5.118   6.894  0.00  0.00    +0.044 C 
ATOM     14  C   UNL     1       9.531   6.243   7.925  0.00  0.00    +0.145 C 
ENDROOT
BRANCH  10  15
ATOM      6  N   UNL     1      12.244   6.296   3.280  0.00  0.00    -0.240 NA
ATOM     15  C   UNL     1      10.284   5.537   4.476  0.00  0.00    -0.024 A 
ATOM     16  C   UNL     1      10.290   4.352   3.748  0.00  0.00    +0.009 A 
ATOM     17  C   UNL     1      11.274   6.469   4.206  0.00  0.00    +0.116 A 
ATOM     19  C   UNL     1      11.272   4.139   2.785  0.00  0.00    +0.044 A 
ATOM     20  C   UNL     1      12.217   5.133   2.592  0.00  0.00    +0.121 A 
BRANCH  20   7
ATOM      4  O   UNL     1      15.271   4.250  -0.160  0.00  0.00    -0.377 OA
ATOM      7  N   UNL     1      13.197   4.904   1.621  0.00  0.00    -0.311 N 
ATOM     22  C   UNL     1      13.203   3.606   0.933  0.00  0.00    +0.134 C 
ATOM     23  C   UNL     1      14.507   5.556   1.736  0.00  0.00    +0.134 C 
ATOM     24  C   UNL     1      13.962   3.726  -0.384  0.00  0.00    +0.178 C 
ATOM     25  C   UNL     1      15.197   5.570   0.377  0.00  0.00    +0.178 C 
ENDBRANCH  20   7
ENDBRANCH  10  15
BRANCH  11   5
ATOM      3  O   UNL     1       8.876  10.076   5.108  0.00  0.00    -0.269 OA
ATOM      5  N   UNL     1       8.047   7.912   4.999  0.00  0.00    -0.304 N 
ATOM     18  C   UNL     1       8.046   9.269   4.700  0.00  0.00    +0.262 C 
ATOM     30  H   UNL     1       7.348   7.310   4.576  0.00  0.00    +0.149 HD
BRANCH  18  21
ATOM      8  N   UNL     1       6.886   9.656   2.481  0.00  0.00    -0.262 N 
ATOM      9  N   UNL     1       5.765  10.162   1.941  0.00  0.00    -0.176 NA
ATOM     21  C   UNL     1       6.931   9.745   3.842  0.00  0.00    +0.123 A 
ATOM     26  C   UNL     1       5.758  10.353   4.217  0.00  0.00    +0.057 A 
ATOM     27  C   UNL     1       5.079  10.587   3.006  0.00  0.00    +0.061 A 
ATOM     28  C   UNL     1       7.894   9.091   1.616  0.00  0.00    +0.173 C 
ATOM     29  C   UNL     1       3.762  11.217   2.823  0.00  0.00    +0.067 C 
ENDBRANCH  18  21
ENDBRANCH  11   5
BRANCH  12   1
ATOM      1  O   UNL     1       8.864   8.576   7.919  0.00  0.00    -0.387 OA
ATOM     31  H   UNL     1       8.004   8.906   8.230  0.00  0.00    +0.210 HD
ENDBRANCH  12   1
BRANCH  14   2
ATOM      2  O   UNL     1      10.871   6.707   8.060  0.00  0.00    -0.389 OA
ATOM     32  H   UNL     1      11.390   6.315   7.337  0.00  0.00    +0.210 HD
ENDBRANCH  14   2
TORSDOF 6
ENDMDL
MODEL 5
REMARK VINA RESULT:      -6.6     27.420     29.683
REMARK  Name = 75536089
REMARK  8 active torsions:
REMARK  status: ('A' for Active; 'I' for Inactive)
REMARK    1  A    between atoms: O_1  and  C_12
REMARK    2  A    between atoms: O_2  and  C_14
REMARK    3  A    between atoms: N_5  and  C_11
REMARK    4  A    between atoms: N_7  and  C_20
REMARK    5  A    between atoms: N_8  and  C_28
REMARK    6  A    between atoms: C_10  and  C_15
REMARK    7  A    between atoms: C_18  and  C_21
REMARK    8  A    between atoms: C_27  and  C_29
REMARK                            x       y       z     vdW  Elec       q    Type
REMARK                         _______ _______ _______ _____ _____    ______ ____
ROOT
ATOM     10  C   UNL     1      -6.003 -10.235  17.413  0.00  0.00    +0.046 C 
ATOM     11  C   UNL     1      -5.493 -11.445  16.599  0.00  0.00    +0.112 C 
ATOM     12  C   UNL     1      -4.682 -12.244  17.619  0.00  0.00    +0.164 C 
ATOM     13  C   UNL     1      -5.982 -10.685  18.897  0.00  0.00    +0.044 C 
ATOM     14  C   UNL     1      -5.524 -12.141  18.885  0.00  0.00    +0.145 C 
ENDROOT
BRANCH  10  15
ATOM      6  N   UNL     1      -8.904  -9.404  15.115  0.00  0.00    -0.240 NA
ATOM     15  C   UNL     1      -7.346  -9.724  16.935  0.00  0.00    -0.024 A 
ATOM     16  C   UNL     1      -8.239  -9.124  17.815  0.00  0.00    +0.009 A 
ATOM     17  C   UNL     1      -7.722  -9.839  15.607  0.00  0.00    +0.116 A 
ATOM     19  C   UNL     1      -9.465  -8.663  17.346  0.00  0.00    +0.044 A 
ATOM     20  C   UNL     1      -9.746  -8.825  15.999  0.00  0.00    +0.121 A 
BRANCH  20   7
ATOM      4  O   UNL     1     -13.325  -7.239  14.463  0.00  0.00    -0.377 OA
ATOM      7  N   UNL     1     -10.982  -8.357  15.542  0.00  0.00    -0.311 N 
ATOM     22  C   UNL     1     -11.335  -8.588  14.135  0.00  0.00    +0.134 C 
ATOM     23  C   UNL     1     -11.581  -7.162  16.148  0.00  0.00    +0.134 C 
ATOM     24  C   UNL     1     -12.846  -8.487  13.960  0.00  0.00    +0.178 C 
ATOM     25  C   UNL     1     -13.079  -7.136  15.865  0.00  0.00    +0.178 C 
ENDBRANCH  20   7
ENDBRANCH  10  15
BRANCH  11   5
ATOM      3  O   UNL     1      -5.150 -12.874  14.132  0.00  0.00    -0.269 OA
ATOM      5  N   UNL     1      -4.689 -11.039  15.474  0.00  0.00    -0.304 N 
ATOM     18  C   UNL     1      -4.585 -11.800  14.316  0.00  0.00    +0.262 C 
ATOM     30  H   UNL     1      -4.224 -10.137  15.519  0.00  0.00    +0.149 HD
BRANCH  18  21
ATOM      8  N   UNL     1      -2.394 -11.609  13.059  0.00  0.00    -0.262 N 
ATOM      9  N   UNL     1      -1.809 -10.971  12.031  0.00  0.00    -0.176 NA
ATOM     21  C   UNL     1      -3.696 -11.256  13.257  0.00  0.00    +0.123 A 
ATOM     26  C   UNL     1      -3.983 -10.320  12.293  0.00  0.00    +0.057 A 
ATOM     27  C   UNL     1      -2.784 -10.184  11.567  0.00  0.00    +0.061 A 
ATOM     28  C   UNL     1      -1.629 -12.566  13.823  0.00  0.00    +0.173 C 
ATOM     29  C   UNL     1      -2.529  -9.306  10.414  0.00  0.00    +0.067 C 
ENDBRANCH  18  21
ENDBRANCH  11   5
BRANCH  12   1
ATOM      1  O   UNL     1      -4.508 -13.593  17.228  0.00  0.00    -0.387 OA
ATOM     31  H   UNL     1      -5.323 -13.873  16.778  0.00  0.00    +0.210 HD
ENDBRANCH  12   1
BRANCH  14   2
ATOM      2  O   UNL     1      -6.671 -12.981  18.804  0.00  0.00    -0.389 OA
ATOM     32  H   UNL     1      -6.619 -13.468  17.964  0.00  0.00    +0.210 HD
ENDBRANCH  14   2
TORSDOF 6
ENDMDL
MODEL 6
REMARK VINA RESULT:      -6.6     27.307     30.075
REMARK  Name = 75536089
REMARK  8 active torsions:
REMARK  status: ('A' for Active; 'I' for Inactive)
REMARK    1  A    between atoms: O_1  and  C_12
REMARK    2  A    between atoms: O_2  and  C_14
REMARK    3  A    between atoms: N_5  and  C_11
REMARK    4  A    between atoms: N_7  and  C_20
REMARK    5  A    between atoms: N_8  and  C_28
REMARK    6  A    between atoms: C_10  and  C_15
REMARK    7  A    between atoms: C_18  and  C_21
REMARK    8  A    between atoms: C_27  and  C_29
REMARK                            x       y       z     vdW  Elec       q    Type
REMARK                         _______ _______ _______ _____ _____    ______ ____
ROOT
ATOM     10  C   UNL     1      -3.611 -10.474  14.980  0.00  0.00    +0.046 C 
ATOM     11  C   UNL     1      -3.775 -11.164  13.608  0.00  0.00    +0.112 C 
ATOM     12  C   UNL     1      -2.335 -11.418  13.163  0.00  0.00    +0.164 C 
ATOM     13  C   UNL     1      -2.212 -10.894  15.501  0.00  0.00    +0.044 C 
ATOM     14  C   UNL     1      -1.647 -11.850  14.453  0.00  0.00    +0.145 C 
ENDROOT
BRANCH  10  15
ATOM      6  N   UNL     1      -5.912 -12.379  17.318  0.00  0.00    -0.240 NA
ATOM     15  C   UNL     1      -4.748 -10.775  15.933  0.00  0.00    -0.024 A 
ATOM     16  C   UNL     1      -5.655  -9.787  16.302  0.00  0.00    +0.009 A 
ATOM     17  C   UNL     1      -4.919 -12.043  16.464  0.00  0.00    +0.116 A 
ATOM     19  C   UNL     1      -6.691 -10.095  17.178  0.00  0.00    +0.044 A 
ATOM     20  C   UNL     1      -6.775 -11.394  17.653  0.00  0.00    +0.121 A 
BRANCH  20   7
ATOM      4  O   UNL     1     -10.054 -12.396  20.087  0.00  0.00    -0.377 OA
ATOM      7  N   UNL     1      -7.821 -11.687  18.533  0.00  0.00    -0.311 N 
ATOM     22  C   UNL     1      -8.095 -13.098  18.840  0.00  0.00    +0.134 C 
ATOM     23  C   UNL     1      -8.982 -10.794  18.614  0.00  0.00    +0.134 C 
ATOM     24  C   UNL     1      -8.875 -13.198  20.146  0.00  0.00    +0.178 C 
ATOM     25  C   UNL     1      -9.715 -11.018  19.931  0.00  0.00    +0.178 C 
ENDBRANCH  20   7
ENDBRANCH  10  15
BRANCH  11   5
ATOM      3  O   UNL     1      -5.291 -12.061  11.340  0.00  0.00    -0.269 OA
ATOM      5  N   UNL     1      -4.489 -10.337  12.668  0.00  0.00    -0.304 N 
ATOM     18  C   UNL     1      -5.198 -10.864  11.597  0.00  0.00    +0.262 C 
ATOM     30  H   UNL     1      -4.508  -9.335  12.831  0.00  0.00    +0.149 HD
BRANCH  18  21
ATOM      8  N   UNL     1      -5.225  -9.095   9.783  0.00  0.00    -0.262 N 
ATOM      9  N   UNL     1      -6.050  -8.283   9.101  0.00  0.00    -0.176 NA
ATOM     21  C   UNL     1      -5.859  -9.877  10.704  0.00  0.00    +0.123 A 
ATOM     26  C   UNL     1      -7.191  -9.553  10.619  0.00  0.00    +0.057 A 
ATOM     27  C   UNL     1      -7.250  -8.567   9.616  0.00  0.00    +0.061 A 
ATOM     28  C   UNL     1      -3.810  -9.069   9.494  0.00  0.00    +0.173 C 
ATOM     29  C   UNL     1      -8.444  -7.867   9.116  0.00  0.00    +0.067 C 
ENDBRANCH  18  21
ENDBRANCH  11   5
BRANCH  12   1
ATOM      1  O   UNL     1      -2.248 -12.428  12.175  0.00  0.00    -0.387 OA
ATOM     31  H   UNL     1      -2.069 -11.989  11.325  0.00  0.00    +0.210 HD
ENDBRANCH  12   1
BRANCH  14   2
ATOM      2  O   UNL     1      -2.011 -13.181  14.804  0.00  0.00    -0.389 OA
ATOM     32  H   UNL     1      -2.587 -13.130  15.586  0.00  0.00    +0.210 HD
ENDBRANCH  14   2
TORSDOF 6
ENDMDL
MODEL 7
REMARK VINA RESULT:      -6.5     27.781     30.241
REMARK  Name = 75536089
REMARK  8 active torsions:
REMARK  status: ('A' for Active; 'I' for Inactive)
REMARK    1  A    between atoms: O_1  and  C_12
REMARK    2  A    between atoms: O_2  and  C_14
REMARK    3  A    between atoms: N_5  and  C_11
REMARK    4  A    between atoms: N_7  and  C_20
REMARK    5  A    between atoms: N_8  and  C_28
REMARK    6  A    between atoms: C_10  and  C_15
REMARK    7  A    between atoms: C_18  and  C_21
REMARK    8  A    between atoms: C_27  and  C_29
REMARK                            x       y       z     vdW  Elec       q    Type
REMARK                         _______ _______ _______ _____ _____    ______ ____
ROOT
ATOM     10  C   UNL     1      -5.848 -10.192  17.425  0.00  0.00    +0.046 C 
ATOM     11  C   UNL     1      -5.402 -11.185  16.328  0.00  0.00    +0.112 C 
ATOM     12  C   UNL     1      -4.131 -11.806  16.906  0.00  0.00    +0.164 C 
ATOM     13  C   UNL     1      -5.211 -10.704  18.743  0.00  0.00    +0.044 C 
ATOM     14  C   UNL     1      -4.477 -11.992  18.379  0.00  0.00    +0.145 C 
ENDROOT
BRANCH  10  15
ATOM      6  N   UNL     1      -9.341  -8.950  16.620  0.00  0.00    -0.240 NA
ATOM     15  C   UNL     1      -7.350 -10.015  17.486  0.00  0.00    -0.024 A 
ATOM     16  C   UNL     1      -8.117 -10.708  18.416  0.00  0.00    +0.009 A 
ATOM     17  C   UNL     1      -8.005  -9.156  16.618  0.00  0.00    +0.116 A 
ATOM     19  C   UNL     1      -9.495 -10.523  18.450  0.00  0.00    +0.044 A 
ATOM     20  C   UNL     1     -10.053  -9.640  17.539  0.00  0.00    +0.121 A 
BRANCH  20   7
ATOM      4  O   UNL     1     -14.177  -8.853  17.764  0.00  0.00    -0.377 OA
ATOM      7  N   UNL     1     -11.440  -9.465  17.584  0.00  0.00    -0.311 N 
ATOM     22  C   UNL     1     -12.048  -8.502  16.656  0.00  0.00    +0.134 C 
ATOM     23  C   UNL     1     -12.160  -9.656  18.848  0.00  0.00    +0.134 C 
ATOM     24  C   UNL     1     -13.532  -8.812  16.492  0.00  0.00    +0.178 C 
ATOM     25  C   UNL     1     -13.638  -9.904  18.567  0.00  0.00    +0.178 C 
ENDBRANCH  20   7
ENDBRANCH  10  15
BRANCH  11   5
ATOM      3  O   UNL     1      -5.360 -12.407  13.730  0.00  0.00    -0.269 OA
ATOM      5  N   UNL     1      -5.154 -10.526  15.071  0.00  0.00    -0.304 N 
ATOM     18  C   UNL     1      -5.154 -11.204  13.859  0.00  0.00    +0.262 C 
ATOM     30  H   UNL     1      -5.022  -9.519  15.077  0.00  0.00    +0.149 HD
BRANCH  18  21
ATOM      8  N   UNL     1      -3.638 -10.286  12.049  0.00  0.00    -0.262 N 
ATOM      9  N   UNL     1      -3.631  -9.479  10.974  0.00  0.00    -0.176 NA
ATOM     21  C   UNL     1      -4.855 -10.386  12.655  0.00  0.00    +0.123 A 
ATOM     26  C   UNL     1      -5.704  -9.588  11.926  0.00  0.00    +0.057 A 
ATOM     27  C   UNL     1      -4.896  -9.056  10.904  0.00  0.00    +0.061 A 
ATOM     28  C   UNL     1      -2.414 -10.943  12.447  0.00  0.00    +0.173 C 
ATOM     29  C   UNL     1      -5.299  -8.132   9.832  0.00  0.00    +0.067 C 
ENDBRANCH  18  21
ENDBRANCH  11   5
BRANCH  12   1
ATOM      1  O   UNL     1      -3.812 -13.043  16.295  0.00  0.00    -0.387 OA
ATOM     31  H   UNL     1      -3.440 -12.847  15.418  0.00  0.00    +0.210 HD
ENDBRANCH  12   1
BRANCH  14   2
ATOM      2  O   UNL     1      -5.365 -13.091  18.559  0.00  0.00    -0.389 OA
ATOM     32  H   UNL     1      -6.269 -12.764  18.414  0.00  0.00    +0.210 HD
ENDBRANCH  14   2
TORSDOF 6
ENDMDL
MODEL 8
REMARK VINA RESULT:      -6.3     27.543     30.014
REMARK  Name = 75536089
REMARK  8 active torsions:
REMARK  status: ('A' for Active; 'I' for Inactive)
REMARK    1  A    between atoms: O_1  and  C_12
REMARK    2  A    between atoms: O_2  and  C_14
REMARK    3  A    between atoms: N_5  and  C_11
REMARK    4  A    between atoms: N_7  and  C_20
REMARK    5  A    between atoms: N_8  and  C_28
REMARK    6  A    between atoms: C_10  and  C_15
REMARK    7  A    between atoms: C_18  and  C_21
REMARK    8  A    between atoms: C_27  and  C_29
REMARK                            x       y       z     vdW  Elec       q    Type
REMARK                         _______ _______ _______ _____ _____    ______ ____
ROOT
ATOM     10  C   UNL     1      -6.114 -12.311  16.834  0.00  0.00    +0.046 C 
ATOM     11  C   UNL     1      -6.618 -11.297  17.885  0.00  0.00    +0.112 C 
ATOM     12  C   UNL     1      -6.246 -11.948  19.216  0.00  0.00    +0.164 C 
ATOM     13  C   UNL     1      -5.008 -13.137  17.541  0.00  0.00    +0.044 C 
ATOM     14  C   UNL     1      -4.869 -12.539  18.939  0.00  0.00    +0.145 C 
ENDROOT
BRANCH  10  15
ATOM      6  N   UNL     1      -6.265 -10.768  13.373  0.00  0.00    -0.240 NA
ATOM     15  C   UNL     1      -5.675 -11.656  15.542  0.00  0.00    -0.024 A 
ATOM     16  C   UNL     1      -4.339 -11.343  15.316  0.00  0.00    +0.009 A 
ATOM     17  C   UNL     1      -6.590 -11.351  14.548  0.00  0.00    +0.116 A 
ATOM     19  C   UNL     1      -3.965 -10.742  14.117  0.00  0.00    +0.044 A 
ATOM     20  C   UNL     1      -4.958 -10.479  13.187  0.00  0.00    +0.121 A 
BRANCH  20   7
ATOM      4  O   UNL     1      -3.909  -8.870   9.446  0.00  0.00    -0.377 OA
ATOM      7  N   UNL     1      -4.567  -9.875  11.988  0.00  0.00    -0.311 N 
ATOM     22  C   UNL     1      -5.613  -9.335  11.109  0.00  0.00    +0.134 C 
ATOM     23  C   UNL     1      -3.348 -10.325  11.305  0.00  0.00    +0.134 C 
ATOM     24  C   UNL     1      -5.009  -8.306  10.161  0.00  0.00    +0.178 C 
ATOM     25  C   UNL     1      -2.865  -9.243  10.346  0.00  0.00    +0.178 C 
ENDBRANCH  20   7
ENDBRANCH  10  15
BRANCH  11   5
ATOM      3  O   UNL     1      -7.907  -8.816  17.228  0.00  0.00    -0.269 OA
ATOM      5  N   UNL     1      -8.036 -11.066  17.777  0.00  0.00    -0.304 N 
ATOM     18  C   UNL     1      -8.570  -9.825  17.452  0.00  0.00    +0.262 C 
ATOM     30  H   UNL     1      -8.660 -11.858  17.898  0.00  0.00    +0.149 HD
BRANCH  18  21
ATOM      8  N   UNL     1     -10.809  -9.735  16.272  0.00  0.00    -0.262 N 
ATOM      9  N   UNL     1     -12.131  -9.657  16.502  0.00  0.00    -0.176 NA
ATOM     21  C   UNL     1     -10.053  -9.746  17.406  0.00  0.00    +0.123 A 
ATOM     26  C   UNL     1     -10.941  -9.667  18.451  0.00  0.00    +0.057 A 
ATOM     27  C   UNL     1     -12.206  -9.615  17.835  0.00  0.00    +0.061 A 
ATOM     28  C   UNL     1     -10.332  -9.799  14.910  0.00  0.00    +0.173 C 
ATOM     29  C   UNL     1     -13.520  -9.526  18.491  0.00  0.00    +0.067 C 
ENDBRANCH  18  21
ENDBRANCH  11   5
BRANCH  12   1
ATOM      1  O   UNL     1      -6.198 -11.012  20.277  0.00  0.00    -0.387 OA
ATOM     31  H   UNL     1      -5.526 -10.347  20.048  0.00  0.00    +0.210 HD
ENDBRANCH  12   1
BRANCH  14   2
ATOM      2  O   UNL     1      -3.875 -11.519  18.904  0.00  0.00    -0.389 OA
ATOM     32  H   UNL     1      -4.328 -10.665  19.002  0.00  0.00    +0.210 HD
ENDBRANCH  14   2
TORSDOF 6
ENDMDL
MODEL 9
REMARK VINA RESULT:      -6.2     29.061     31.386
REMARK  Name = 75536089
REMARK  8 active torsions:
REMARK  status: ('A' for Active; 'I' for Inactive)
REMARK    1  A    between atoms: O_1  and  C_12
REMARK    2  A    between atoms: O_2  and  C_14
REMARK    3  A    between atoms: N_5  and  C_11
REMARK    4  A    between atoms: N_7  and  C_20
REMARK    5  A    between atoms: N_8  and  C_28
REMARK    6  A    between atoms: C_10  and  C_15
REMARK    7  A    between atoms: C_18  and  C_21
REMARK    8  A    between atoms: C_27  and  C_29
REMARK                            x       y       z     vdW  Elec       q    Type
REMARK                         _______ _______ _______ _____ _____    ______ ____
ROOT
ATOM     10  C   UNL     1     -11.239  -9.726  19.274  0.00  0.00    +0.046 C 
ATOM     11  C   UNL     1     -10.600 -11.118  19.067  0.00  0.00    +0.112 C 
ATOM     12  C   UNL     1     -11.125 -11.930  20.250  0.00  0.00    +0.164 C 
ATOM     13  C   UNL     1     -12.496  -9.965  20.149  0.00  0.00    +0.044 C 
ATOM     14  C   UNL     1     -12.575 -11.474  20.365  0.00  0.00    +0.145 C 
ENDROOT
BRANCH  10  15
ATOM      6  N   UNL     1     -10.731  -7.515  16.235  0.00  0.00    -0.240 NA
ATOM     15  C   UNL     1     -11.512  -9.002  17.973  0.00  0.00    -0.024 A 
ATOM     16  C   UNL     1     -12.735  -9.130  17.325  0.00  0.00    +0.009 A 
ATOM     17  C   UNL     1     -10.551  -8.189  17.392  0.00  0.00    +0.116 A 
ATOM     19  C   UNL     1     -12.957  -8.450  16.131  0.00  0.00    +0.044 A 
ATOM     20  C   UNL     1     -11.932  -7.662  15.633  0.00  0.00    +0.121 A 
BRANCH  20   7
ATOM      4  O   UNL     1     -12.908  -5.584  12.111  0.00  0.00    -0.377 OA
ATOM      7  N   UNL     1     -12.170  -6.985  14.433  0.00  0.00    -0.311 N 
ATOM     22  C   UNL     1     -12.446  -5.543  14.492  0.00  0.00    +0.134 C 
ATOM     23  C   UNL     1     -12.783  -7.693  13.303  0.00  0.00    +0.134 C 
ATOM     24  C   UNL     1     -12.172  -4.911  13.132  0.00  0.00    +0.178 C 
ATOM     25  C   UNL     1     -12.492  -6.945  12.007  0.00  0.00    +0.178 C 
ENDBRANCH  20   7
ENDBRANCH  10  15
BRANCH  11   5
ATOM      3  O   UNL     1      -8.848 -12.297  17.122  0.00  0.00    -0.269 OA
ATOM      5  N   UNL     1      -9.160 -11.056  19.056  0.00  0.00    -0.304 N 
ATOM     18  C   UNL     1      -8.394 -11.660  18.068  0.00  0.00    +0.262 C 
ATOM     30  H   UNL     1      -8.700 -10.506  19.775  0.00  0.00    +0.149 HD
BRANCH  18  21
ATOM      8  N   UNL     1      -6.142 -10.613  17.564  0.00  0.00    -0.262 N 
ATOM      9  N   UNL     1      -4.837 -10.699  17.870  0.00  0.00    -0.176 NA
ATOM     21  C   UNL     1      -6.921 -11.526  18.213  0.00  0.00    +0.123 A 
ATOM     26  C   UNL     1      -6.065 -12.262  18.995  0.00  0.00    +0.057 A 
ATOM     27  C   UNL     1      -4.795 -11.708  18.744  0.00  0.00    +0.061 A 
ATOM     28  C   UNL     1      -6.583  -9.610  16.624  0.00  0.00    +0.173 C 
ATOM     29  C   UNL     1      -3.507 -12.119  19.326  0.00  0.00    +0.067 C 
ENDBRANCH  18  21
ENDBRANCH  11   5
BRANCH  12   1
ATOM      1  O   UNL     1     -11.044 -13.325  20.022  0.00  0.00    -0.387 OA
ATOM     31  H   UNL     1     -10.523 -13.709  20.748  0.00  0.00    +0.210 HD
ENDBRANCH  12   1
BRANCH  14   2
ATOM      2  O   UNL     1     -13.372 -12.043  19.331  0.00  0.00    -0.389 OA
ATOM     32  H   UNL     1     -14.282 -12.113  19.668  0.00  0.00    +0.210 HD
ENDBRANCH  14   2
TORSDOF 6
ENDMDL
MODEL 10
REMARK VINA RESULT:      -6.2     27.425     29.694
REMARK  Name = 75536089
REMARK  8 active torsions:
REMARK  status: ('A' for Active; 'I' for Inactive)
REMARK    1  A    between atoms: O_1  and  C_12
REMARK    2  A    between atoms: O_2  and  C_14
REMARK    3  A    between atoms: N_5  and  C_11
REMARK    4  A    between atoms: N_7  and  C_20
REMARK    5  A    between atoms: N_8  and  C_28
REMARK    6  A    between atoms: C_10  and  C_15
REMARK    7  A    between atoms: C_18  and  C_21
REMARK    8  A    between atoms: C_27  and  C_29
REMARK                            x       y       z     vdW  Elec       q    Type
REMARK                         _______ _______ _______ _____ _____    ______ ____
ROOT
ATOM     10  C   UNL     1      -3.648 -10.599  13.595  0.00  0.00    +0.046 C 
ATOM     11  C   UNL     1      -3.730 -11.861  12.707  0.00  0.00    +0.112 C 
ATOM     12  C   UNL     1      -2.278 -12.328  12.617  0.00  0.00    +0.164 C 
ATOM     13  C   UNL     1      -2.343 -10.746  14.420  0.00  0.00    +0.044 C 
ATOM     14  C   UNL     1      -1.754 -12.100  14.030  0.00  0.00    +0.145 C 
ENDROOT
BRANCH  10  15
ATOM      6  N   UNL     1      -7.265  -9.927  14.519  0.00  0.00    -0.240 NA
ATOM     15  C   UNL     1      -4.892 -10.380  14.429  0.00  0.00    -0.024 A 
ATOM     16  C   UNL     1      -4.841 -10.422  15.818  0.00  0.00    +0.009 A 
ATOM     17  C   UNL     1      -6.118 -10.131  13.833  0.00  0.00    +0.116 A 
ATOM     19  C   UNL     1      -6.000 -10.216  16.558  0.00  0.00    +0.044 A 
ATOM     20  C   UNL     1      -7.176  -9.974  15.867  0.00  0.00    +0.121 A 
BRANCH  20   7
ATOM      4  O   UNL     1     -10.541  -9.124  18.241  0.00  0.00    -0.377 OA
ATOM      7  N   UNL     1      -8.334  -9.769  16.624  0.00  0.00    -0.311 N 
ATOM     22  C   UNL     1      -9.181  -8.614  16.298  0.00  0.00    +0.134 C 
ATOM     23  C   UNL     1      -8.376 -10.199  18.026  0.00  0.00    +0.134 C 
ATOM     24  C   UNL     1     -10.587  -8.837  16.843  0.00  0.00    +0.178 C 
ATOM     25  C   UNL     1      -9.825 -10.336  18.480  0.00  0.00    +0.178 C 
ENDBRANCH  20   7
ENDBRANCH  10  15
BRANCH  11   5
ATOM      3  O   UNL     1      -2.649 -10.068  10.742  0.00  0.00    -0.269 OA
ATOM      5  N   UNL     1      -4.283 -11.573  11.408  0.00  0.00    -0.304 N 
ATOM     18  C   UNL     1      -3.686 -10.687  10.521  0.00  0.00    +0.262 C 
ATOM     30  H   UNL     1      -5.115 -12.079  11.120  0.00  0.00    +0.149 HD
BRANCH  18  21
ATOM      8  N   UNL     1      -5.141  -9.385   8.907  0.00  0.00    -0.262 N 
ATOM      9  N   UNL     1      -5.679  -9.441   7.677  0.00  0.00    -0.176 NA
ATOM     21  C   UNL     1      -4.395 -10.479   9.232  0.00  0.00    +0.123 A 
ATOM     26  C   UNL     1      -4.450 -11.309   8.139  0.00  0.00    +0.057 A 
ATOM     27  C   UNL     1      -5.254 -10.618   7.212  0.00  0.00    +0.061 A 
ATOM     28  C   UNL     1      -5.389  -8.227   9.734  0.00  0.00    +0.173 C 
ATOM     29  C   UNL     1      -5.640 -11.054   5.860  0.00  0.00    +0.067 C 
ENDBRANCH  18  21
ENDBRANCH  11   5
BRANCH  12   1
ATOM      1  O   UNL     1      -2.174 -13.690  12.247  0.00  0.00    -0.387 OA
ATOM     31  H   UNL     1      -1.228 -13.914  12.224  0.00  0.00    +0.210 HD
ENDBRANCH  12   1
BRANCH  14   2
ATOM      2  O   UNL     1      -2.252 -13.090  14.925  0.00  0.00    -0.389 OA
ATOM     32  H   UNL     1      -2.797 -12.636  15.590  0.00  0.00    +0.210 HD
ENDBRANCH  14   2
TORSDOF 6
ENDMDL
