MODEL 1
REMARK VINA RESULT:      -7.1      0.000      0.000
REMARK  Name = 75537093
REMARK  4 active torsions:
REMARK  status: ('A' for Active; 'I' for Inactive)
REMARK    1  A    between atoms: N_5  and  C_14
REMARK    2  A    between atoms: N_6  and  C_15
REMARK    3  A    between atoms: C_14  and  C_16
REMARK    4  A    between atoms: C_15  and  C_17
REMARK                            x       y       z     vdW  Elec       q    Type
REMARK                         _______ _______ _______ _____ _____    ______ ____
ROOT
ATOM      3  O   UNL     1      15.958   9.749  20.612  0.00  0.00    -0.252 OA
ATOM      4  N   UNL     1      17.395   7.915  20.912  0.00  0.00    -0.278 N 
ATOM      5  N   UNL     1      19.798   6.467  21.097  0.00  0.00    -0.295 NA
ATOM      6  N   UNL     1      15.568   7.638  19.635  0.00  0.00    -0.279 N 
ATOM      8  C   UNL     1      17.392   6.505  20.582  0.00  0.00    +0.109 C 
ATOM      9  C   UNL     1      18.778   6.067  20.108  0.00  0.00    +0.109 C 
ATOM     10  C   UNL     1      16.286   6.379  19.536  0.00  0.00    +0.133 C 
ATOM     11  C   UNL     1      18.443   8.443  21.758  0.00  0.00    +0.125 C 
ATOM     12  C   UNL     1      19.806   7.932  21.284  0.00  0.00    +0.104 C 
ATOM     13  C   UNL     1      16.266   8.582  20.415  0.00  0.00    +0.305 C 
ENDROOT
BRANCH   5  14
ATOM     14  C   UNL     1      21.121   6.000  20.682  0.00  0.00    +0.122 C 
BRANCH  14  16
ATOM      1  F   UNL     1      21.023   3.155  20.797  0.00  0.00    -0.204 F 
ATOM      7  N   UNL     1      23.048   3.696  23.756  0.00  0.00    -0.260 NA
ATOM     16  C   UNL     1      21.794   5.192  21.756  0.00  0.00    +0.005 A 
ATOM     18  C   UNL     1      21.704   3.805  21.748  0.00  0.00    +0.146 A 
ATOM     19  C   UNL     1      22.510   5.833  22.761  0.00  0.00    +0.027 A 
ATOM     24  C   UNL     1      22.342   3.109  22.762  0.00  0.00    +0.149 A 
ATOM     25  C   UNL     1      23.112   5.045  23.729  0.00  0.00    +0.111 A 
ENDBRANCH  14  16
ENDBRANCH   5  14
BRANCH   6  15
ATOM     15  C   UNL     1      14.361   7.893  18.880  0.00  0.00    +0.144 C 
BRANCH  15  17
ATOM      2  F   UNL     1       9.733   7.323  22.035  0.00  0.00    -0.205 F 
ATOM     17  C   UNL     1      13.127   7.741  19.721  0.00  0.00    -0.030 A 
ATOM     20  C   UNL     1      12.061   8.625  19.560  0.00  0.00    +0.008 A 
ATOM     21  C   UNL     1      13.047   6.716  20.664  0.00  0.00    +0.008 A 
ATOM     22  C   UNL     1      10.914   8.484  20.342  0.00  0.00    +0.038 A 
ATOM     23  C   UNL     1      11.902   6.574  21.445  0.00  0.00    +0.038 A 
ATOM     26  C   UNL     1      10.834   7.459  21.285  0.00  0.00    +0.123 A 
ENDBRANCH  15  17
ENDBRANCH   6  15
TORSDOF 4
ENDMDL
MODEL 2
REMARK VINA RESULT:      -6.8     30.721     33.539
REMARK  Name = 75537093
REMARK  4 active torsions:
REMARK  status: ('A' for Active; 'I' for Inactive)
REMARK    1  A    between atoms: N_5  and  C_14
REMARK    2  A    between atoms: N_6  and  C_15
REMARK    3  A    between atoms: C_14  and  C_16
REMARK    4  A    between atoms: C_15  and  C_17
REMARK                            x       y       z     vdW  Elec       q    Type
REMARK                         _______ _______ _______ _____ _____    ______ ____
ROOT
ATOM      3  O   UNL     1     -17.579   2.511  22.187  0.00  0.00    -0.252 OA
ATOM      4  N   UNL     1     -16.678   2.528  24.357  0.00  0.00    -0.278 N 
ATOM      5  N   UNL     1     -16.553   2.216  27.149  0.00  0.00    -0.295 NA
ATOM      6  N   UNL     1     -16.268   4.287  23.021  0.00  0.00    -0.279 N 
ATOM      8  C   UNL     1     -15.764   3.356  25.115  0.00  0.00    +0.109 C 
ATOM      9  C   UNL     1     -16.270   3.534  26.546  0.00  0.00    +0.109 C 
ATOM     10  C   UNL     1     -15.678   4.644  24.299  0.00  0.00    +0.133 C 
ATOM     11  C   UNL     1     -17.139   1.278  24.922  0.00  0.00    +0.125 C 
ATOM     12  C   UNL     1     -17.580   1.491  26.373  0.00  0.00    +0.104 C 
ATOM     13  C   UNL     1     -16.922   3.039  23.075  0.00  0.00    +0.305 C 
ENDROOT
BRANCH   5  14
ATOM     14  C   UNL     1     -16.981   2.372  28.539  0.00  0.00    +0.122 C 
BRANCH  14  16
ATOM      1  F   UNL     1     -14.909   4.082  29.486  0.00  0.00    -0.204 F 
ATOM      7  N   UNL     1     -13.951   1.097  31.306  0.00  0.00    -0.260 NA
ATOM     16  C   UNL     1     -15.921   1.928  29.506  0.00  0.00    +0.005 A 
ATOM     18  C   UNL     1     -14.939   2.819  29.926  0.00  0.00    +0.146 A 
ATOM     19  C   UNL     1     -15.920   0.623  29.985  0.00  0.00    +0.027 A 
ATOM     24  C   UNL     1     -13.985   2.357  30.818  0.00  0.00    +0.149 A 
ATOM     25  C   UNL     1     -14.921   0.261  30.875  0.00  0.00    +0.111 A 
ENDBRANCH  14  16
ENDBRANCH   5  14
BRANCH   6  15
ATOM     15  C   UNL     1     -16.289   5.204  21.903  0.00  0.00    +0.144 C 
BRANCH  15  17
ATOM      2  F   UNL     1     -11.176   7.272  20.774  0.00  0.00    -0.205 F 
ATOM     17  C   UNL     1     -14.926   5.756  21.602  0.00  0.00    -0.030 A 
ATOM     20  C   UNL     1     -14.798   6.965  20.919  0.00  0.00    +0.008 A 
ATOM     21  C   UNL     1     -13.786   5.059  22.005  0.00  0.00    +0.008 A 
ATOM     22  C   UNL     1     -13.531   7.477  20.639  0.00  0.00    +0.038 A 
ATOM     23  C   UNL     1     -12.520   5.570  21.726  0.00  0.00    +0.038 A 
ATOM     26  C   UNL     1     -12.392   6.781  21.042  0.00  0.00    +0.123 A 
ENDBRANCH  15  17
ENDBRANCH   6  15
TORSDOF 4
ENDMDL
MODEL 3
REMARK VINA RESULT:      -6.4      5.401      9.869
REMARK  Name = 75537093
REMARK  4 active torsions:
REMARK  status: ('A' for Active; 'I' for Inactive)
REMARK    1  A    between atoms: N_5  and  C_14
REMARK    2  A    between atoms: N_6  and  C_15
REMARK    3  A    between atoms: C_14  and  C_16
REMARK    4  A    between atoms: C_15  and  C_17
REMARK                            x       y       z     vdW  Elec       q    Type
REMARK                         _______ _______ _______ _____ _____    ______ ____
ROOT
ATOM      3  O   UNL     1      12.613   6.987  17.594  0.00  0.00    -0.252 OA
ATOM      4  N   UNL     1      13.263   9.223  17.286  0.00  0.00    -0.278 N 
ATOM      5  N   UNL     1      14.186  11.531  15.970  0.00  0.00    -0.295 NA
ATOM      6  N   UNL     1      13.987   8.148  19.120  0.00  0.00    -0.279 N 
ATOM      8  C   UNL     1      13.958  10.236  18.051  0.00  0.00    +0.109 C 
ATOM      9  C   UNL     1      14.912  11.022  17.151  0.00  0.00    +0.109 C 
ATOM     10  C   UNL     1      14.636   9.446  19.170  0.00  0.00    +0.133 C 
ATOM     11  C   UNL     1      12.639   9.586  16.031  0.00  0.00    +0.125 C 
ATOM     12  C   UNL     1      13.606  10.420  15.188  0.00  0.00    +0.104 C 
ATOM     13  C   UNL     1      13.208   7.993  17.955  0.00  0.00    +0.305 C 
ENDROOT
BRANCH   5  14
ATOM     14  C   UNL     1      15.075  12.334  15.132  0.00  0.00    +0.122 C 
BRANCH  14  16
ATOM      1  F   UNL     1      15.651  11.413  12.498  0.00  0.00    -0.204 F 
ATOM      7  N   UNL     1      13.074  13.808  11.626  0.00  0.00    -0.260 NA
ATOM     16  C   UNL     1      14.377  12.849  13.905  0.00  0.00    +0.005 A 
ATOM     18  C   UNL     1      14.710  12.352  12.650  0.00  0.00    +0.146 A 
ATOM     19  C   UNL     1      13.393  13.824  14.023  0.00  0.00    +0.027 A 
ATOM     24  C   UNL     1      14.036  12.861  11.552  0.00  0.00    +0.149 A 
ATOM     25  C   UNL     1      12.778  14.267  12.863  0.00  0.00    +0.111 A 
ENDBRANCH  14  16
ENDBRANCH   5  14
BRANCH   6  15
ATOM     15  C   UNL     1      14.263   7.116  20.096  0.00  0.00    +0.144 C 
BRANCH  15  17
ATOM      2  F   UNL     1      19.715   5.717  20.203  0.00  0.00    -0.205 F 
ATOM     17  C   UNL     1      15.716   6.743  20.124  0.00  0.00    -0.030 A 
ATOM     20  C   UNL     1      16.302   6.135  19.014  0.00  0.00    +0.008 A 
ATOM     21  C   UNL     1      16.481   7.004  21.261  0.00  0.00    +0.008 A 
ATOM     22  C   UNL     1      17.653   5.788  19.041  0.00  0.00    +0.038 A 
ATOM     23  C   UNL     1      17.832   6.657  21.288  0.00  0.00    +0.038 A 
ATOM     26  C   UNL     1      18.418   6.049  20.178  0.00  0.00    +0.123 A 
ENDBRANCH  15  17
ENDBRANCH   6  15
TORSDOF 4
ENDMDL
MODEL 4
REMARK VINA RESULT:      -6.3      2.401      9.072
REMARK  Name = 75537093
REMARK  4 active torsions:
REMARK  status: ('A' for Active; 'I' for Inactive)
REMARK    1  A    between atoms: N_5  and  C_14
REMARK    2  A    between atoms: N_6  and  C_15
REMARK    3  A    between atoms: C_14  and  C_16
REMARK    4  A    between atoms: C_15  and  C_17
REMARK                            x       y       z     vdW  Elec       q    Type
REMARK                         _______ _______ _______ _____ _____    ______ ____
ROOT
ATOM      3  O   UNL     1      18.837   4.955  19.473  0.00  0.00    -0.252 OA
ATOM      4  N   UNL     1      17.485   6.629  20.418  0.00  0.00    -0.278 N 
ATOM      5  N   UNL     1      15.425   8.531  20.627  0.00  0.00    -0.295 NA
ATOM      6  N   UNL     1      19.711   6.790  20.673  0.00  0.00    -0.279 N 
ATOM      8  C   UNL     1      17.670   7.771  21.288  0.00  0.00    +0.109 C 
ATOM      9  C   UNL     1      16.829   8.951  20.802  0.00  0.00    +0.109 C 
ATOM     10  C   UNL     1      19.180   8.005  21.264  0.00  0.00    +0.133 C 
ATOM     11  C   UNL     1      16.144   6.220  20.060  0.00  0.00    +0.125 C 
ATOM     12  C   UNL     1      15.320   7.439  19.637  0.00  0.00    +0.104 C 
ATOM     13  C   UNL     1      18.695   5.991  20.110  0.00  0.00    +0.305 C 
ENDROOT
BRANCH   5  14
ATOM     14  C   UNL     1      14.599   9.668  20.219  0.00  0.00    +0.122 C 
BRANCH  14  16
ATOM      1  F   UNL     1      13.704   9.501  17.520  0.00  0.00    -0.204 F 
ATOM      7  N   UNL     1      10.626   8.453  19.123  0.00  0.00    -0.260 NA
ATOM     16  C   UNL     1      13.211   9.244  19.834  0.00  0.00    +0.005 A 
ATOM     18  C   UNL     1      12.843   9.185  18.494  0.00  0.00    +0.146 A 
ATOM     19  C   UNL     1      12.289   8.907  20.819  0.00  0.00    +0.027 A 
ATOM     24  C   UNL     1      11.550   8.788  18.194  0.00  0.00    +0.149 A 
ATOM     25  C   UNL     1      11.020   8.522  20.414  0.00  0.00    +0.111 A 
ENDBRANCH  14  16
ENDBRANCH   5  14
BRANCH   6  15
ATOM     15  C   UNL     1      21.133   6.549  20.562  0.00  0.00    +0.144 C 
BRANCH  15  17
ATOM      2  F   UNL     1      22.976   2.947  24.476  0.00  0.00    -0.205 F 
ATOM     17  C   UNL     1      21.625   5.589  21.605  0.00  0.00    -0.030 A 
ATOM     20  C   UNL     1      22.000   6.059  22.863  0.00  0.00    +0.008 A 
ATOM     21  C   UNL     1      21.706   4.226  21.317  0.00  0.00    +0.008 A 
ATOM     22  C   UNL     1      22.457   5.166  23.834  0.00  0.00    +0.038 A 
ATOM     23  C   UNL     1      22.162   3.334  22.286  0.00  0.00    +0.038 A 
ATOM     26  C   UNL     1      22.539   3.804  23.546  0.00  0.00    +0.123 A 
ENDBRANCH  15  17
ENDBRANCH   6  15
TORSDOF 4
ENDMDL
MODEL 5
REMARK VINA RESULT:      -6.2      2.795      3.991
REMARK  Name = 75537093
REMARK  4 active torsions:
REMARK  status: ('A' for Active; 'I' for Inactive)
REMARK    1  A    between atoms: N_5  and  C_14
REMARK    2  A    between atoms: N_6  and  C_15
REMARK    3  A    between atoms: C_14  and  C_16
REMARK    4  A    between atoms: C_15  and  C_17
REMARK                            x       y       z     vdW  Elec       q    Type
REMARK                         _______ _______ _______ _____ _____    ______ ____
ROOT
ATOM      3  O   UNL     1      12.747   6.949  19.843  0.00  0.00    -0.252 OA
ATOM      4  N   UNL     1      14.976   7.674  19.999  0.00  0.00    -0.278 N 
ATOM      5  N   UNL     1      17.639   7.799  20.895  0.00  0.00    -0.295 NA
ATOM      6  N   UNL     1      13.358   9.227  19.874  0.00  0.00    -0.279 N 
ATOM      8  C   UNL     1      15.686   8.933  19.917  0.00  0.00    +0.109 C 
ATOM      9  C   UNL     1      16.780   8.997  20.982  0.00  0.00    +0.109 C 
ATOM     10  C   UNL     1      14.585   9.982  20.065  0.00  0.00    +0.133 C 
ATOM     11  C   UNL     1      15.728   6.439  20.070  0.00  0.00    +0.125 C 
ATOM     12  C   UNL     1      16.849   6.568  21.104  0.00  0.00    +0.104 C 
ATOM     13  C   UNL     1      13.588   7.837  19.895  0.00  0.00    +0.305 C 
ENDROOT
BRANCH   5  14
ATOM     14  C   UNL     1      18.726   7.878  21.870  0.00  0.00    +0.122 C 
BRANCH  14  16
ATOM      1  F   UNL     1      20.642   9.852  21.131  0.00  0.00    -0.204 F 
ATOM      7  N   UNL     1      22.531   6.930  20.113  0.00  0.00    -0.260 NA
ATOM     16  C   UNL     1      20.057   7.549  21.255  0.00  0.00    +0.005 A 
ATOM     18  C   UNL     1      20.943   8.566  20.920  0.00  0.00    +0.146 A 
ATOM     19  C   UNL     1      20.405   6.223  21.022  0.00  0.00    +0.027 A 
ATOM     24  C   UNL     1      22.157   8.207  20.356  0.00  0.00    +0.149 A 
ATOM     25  C   UNL     1      21.643   5.970  20.452  0.00  0.00    +0.111 A 
ENDBRANCH  14  16
ENDBRANCH   5  14
BRANCH   6  15
ATOM     15  C   UNL     1      12.063   9.869  19.829  0.00  0.00    +0.144 C 
BRANCH  15  17
ATOM      2  F   UNL     1      10.561  11.949  24.840  0.00  0.00    -0.205 F 
ATOM     17  C   UNL     1      11.663  10.424  21.165  0.00  0.00    -0.030 A 
ATOM     20  C   UNL     1      11.656  11.803  21.374  0.00  0.00    +0.008 A 
ATOM     21  C   UNL     1      11.297   9.560  22.198  0.00  0.00    +0.008 A 
ATOM     22  C   UNL     1      11.284  12.318  22.616  0.00  0.00    +0.038 A 
ATOM     23  C   UNL     1      10.925  10.075  23.439  0.00  0.00    +0.038 A 
ATOM     26  C   UNL     1      10.919  11.455  23.649  0.00  0.00    +0.123 A 
ENDBRANCH  15  17
ENDBRANCH   6  15
TORSDOF 4
ENDMDL
MODEL 6
REMARK VINA RESULT:      -6.2     27.808     30.257
REMARK  Name = 75537093
REMARK  4 active torsions:
REMARK  status: ('A' for Active; 'I' for Inactive)
REMARK    1  A    between atoms: N_5  and  C_14
REMARK    2  A    between atoms: N_6  and  C_15
REMARK    3  A    between atoms: C_14  and  C_16
REMARK    4  A    between atoms: C_15  and  C_17
REMARK                            x       y       z     vdW  Elec       q    Type
REMARK                         _______ _______ _______ _____ _____    ______ ____
ROOT
ATOM      3  O   UNL     1      -1.377 -11.096  15.529  0.00  0.00    -0.252 OA
ATOM      4  N   UNL     1      -3.686 -10.864  15.896  0.00  0.00    -0.278 N 
ATOM      5  N   UNL     1      -6.247 -11.405  16.922  0.00  0.00    -0.295 NA
ATOM      6  N   UNL     1      -2.918 -10.671  13.794  0.00  0.00    -0.279 N 
ATOM      8  C   UNL     1      -4.847 -10.488  15.118  0.00  0.00    +0.109 C 
ATOM      9  C   UNL     1      -6.032 -11.390  15.462  0.00  0.00    +0.109 C 
ATOM     10  C   UNL     1      -4.363 -10.587  13.672  0.00  0.00    +0.133 C 
ATOM     11  C   UNL     1      -3.820 -11.052  17.325  0.00  0.00    +0.125 C 
ATOM     12  C   UNL     1      -5.051 -11.910  17.627  0.00  0.00    +0.104 C 
ATOM     13  C   UNL     1      -2.515 -10.898  15.125  0.00  0.00    +0.305 C 
ENDROOT
BRANCH   5  14
ATOM     14  C   UNL     1      -7.416 -12.218  17.257  0.00  0.00    +0.122 C 
BRANCH  14  16
ATOM      1  F   UNL     1      -9.014 -10.263  15.938  0.00  0.00    -0.204 F 
ATOM      7  N   UNL     1     -10.455  -9.921  19.247  0.00  0.00    -0.260 NA
ATOM     16  C   UNL     1      -8.479 -11.414  17.951  0.00  0.00    +0.005 A 
ATOM     18  C   UNL     1      -9.221 -10.476  17.243  0.00  0.00    +0.146 A 
ATOM     19  C   UNL     1      -8.724 -11.608  19.306  0.00  0.00    +0.027 A 
ATOM     24  C   UNL     1     -10.189  -9.761  17.931  0.00  0.00    +0.149 A 
ATOM     25  C   UNL     1      -9.714 -10.842  19.901  0.00  0.00    +0.111 A 
ENDBRANCH  14  16
ENDBRANCH   5  14
BRANCH   6  15
ATOM     15  C   UNL     1      -2.051 -10.672  12.637  0.00  0.00    +0.144 C 
BRANCH  15  17
ATOM      2  F   UNL     1      -4.943 -10.199   7.830  0.00  0.00    -0.205 F 
ATOM     17  C   UNL     1      -2.822 -10.546  11.355  0.00  0.00    -0.030 A 
ATOM     20  C   UNL     1      -3.369 -11.681  10.757  0.00  0.00    +0.008 A 
ATOM     21  C   UNL     1      -2.991  -9.295  10.762  0.00  0.00    +0.008 A 
ATOM     22  C   UNL     1      -4.086 -11.563   9.565  0.00  0.00    +0.038 A 
ATOM     23  C   UNL     1      -3.707  -9.177   9.572  0.00  0.00    +0.038 A 
ATOM     26  C   UNL     1      -4.255 -10.312   8.972  0.00  0.00    +0.123 A 
ENDBRANCH  15  17
ENDBRANCH   6  15
TORSDOF 4
ENDMDL
MODEL 7
REMARK VINA RESULT:      -6.2     28.678     31.493
REMARK  Name = 75537093
REMARK  4 active torsions:
REMARK  status: ('A' for Active; 'I' for Inactive)
REMARK    1  A    between atoms: N_5  and  C_14
REMARK    2  A    between atoms: N_6  and  C_15
REMARK    3  A    between atoms: C_14  and  C_16
REMARK    4  A    between atoms: C_15  and  C_17
REMARK                            x       y       z     vdW  Elec       q    Type
REMARK                         _______ _______ _______ _____ _____    ______ ____
ROOT
ATOM      3  O   UNL     1     -12.517  -8.600  13.696  0.00  0.00    -0.252 OA
ATOM      4  N   UNL     1     -10.584  -8.377  15.012  0.00  0.00    -0.278 N 
ATOM      5  N   UNL     1      -8.445  -9.118  16.681  0.00  0.00    -0.295 NA
ATOM      6  N   UNL     1     -12.212  -6.847  15.246  0.00  0.00    -0.279 N 
ATOM      8  C   UNL     1     -10.035  -7.398  15.926  0.00  0.00    +0.109 C 
ATOM      9  C   UNL     1      -9.405  -8.092  17.133  0.00  0.00    +0.109 C 
ATOM     10  C   UNL     1     -11.225  -6.497  16.252  0.00  0.00    +0.133 C 
ATOM     11  C   UNL     1      -9.775  -9.511  14.618  0.00  0.00    +0.125 C 
ATOM     12  C   UNL     1      -9.116 -10.138  15.849  0.00  0.00    +0.104 C 
ATOM     13  C   UNL     1     -11.853  -8.014  14.541  0.00  0.00    +0.305 C 
ENDROOT
BRANCH   5  14
ATOM     14  C   UNL     1      -7.792  -9.747  17.828  0.00  0.00    +0.122 C 
BRANCH  14  16
ATOM      1  F   UNL     1      -6.224 -11.378  19.560  0.00  0.00    -0.204 F 
ATOM      7  N   UNL     1      -3.791 -11.011  16.897  0.00  0.00    -0.260 NA
ATOM     16  C   UNL     1      -6.393 -10.190  17.505  0.00  0.00    +0.005 A 
ATOM     18  C   UNL     1      -5.686 -10.987  18.398  0.00  0.00    +0.146 A 
ATOM     19  C   UNL     1      -5.801  -9.804  16.307  0.00  0.00    +0.027 A 
ATOM     24  C   UNL     1      -4.400 -11.367  18.051  0.00  0.00    +0.149 A 
ATOM     25  C   UNL     1      -4.509 -10.237  16.054  0.00  0.00    +0.111 A 
ENDBRANCH  14  16
ENDBRANCH   5  14
BRANCH   6  15
ATOM     15  C   UNL     1     -13.469  -6.141  15.127  0.00  0.00    +0.144 C 
BRANCH  15  17
ATOM      2  F   UNL     1     -13.603  -2.820  10.583  0.00  0.00    -0.205 F 
ATOM     17  C   UNL     1     -13.505  -5.256  13.916  0.00  0.00    -0.030 A 
ATOM     20  C   UNL     1     -12.320  -4.729  13.402  0.00  0.00    +0.008 A 
ATOM     21  C   UNL     1     -14.723  -4.959  13.304  0.00  0.00    +0.008 A 
ATOM     22  C   UNL     1     -12.353  -3.906  12.276  0.00  0.00    +0.038 A 
ATOM     23  C   UNL     1     -14.757  -4.136  12.179  0.00  0.00    +0.038 A 
ATOM     26  C   UNL     1     -13.571  -3.609  11.664  0.00  0.00    +0.123 A 
ENDBRANCH  15  17
ENDBRANCH   6  15
TORSDOF 4
ENDMDL
MODEL 8
REMARK VINA RESULT:      -6.2     14.194     15.366
REMARK  Name = 75537093
REMARK  4 active torsions:
REMARK  status: ('A' for Active; 'I' for Inactive)
REMARK    1  A    between atoms: N_5  and  C_14
REMARK    2  A    between atoms: N_6  and  C_15
REMARK    3  A    between atoms: C_14  and  C_16
REMARK    4  A    between atoms: C_15  and  C_17
REMARK                            x       y       z     vdW  Elec       q    Type
REMARK                         _______ _______ _______ _____ _____    ______ ____
ROOT
ATOM      3  O   UNL     1      11.512   9.975   6.675  0.00  0.00    -0.252 OA
ATOM      4  N   UNL     1      13.666   9.103   6.331  0.00  0.00    -0.278 N 
ATOM      5  N   UNL     1      16.346   8.986   5.489  0.00  0.00    -0.295 NA
ATOM      6  N   UNL     1      11.902   7.775   5.918  0.00  0.00    -0.279 N 
ATOM      8  C   UNL     1      14.246   7.815   6.013  0.00  0.00    +0.109 C 
ATOM      9  C   UNL     1      15.382   7.978   5.004  0.00  0.00    +0.109 C 
ATOM     10  C   UNL     1      13.058   6.994   5.514  0.00  0.00    +0.133 C 
ATOM     11  C   UNL     1      14.536  10.206   6.677  0.00  0.00    +0.125 C 
ATOM     12  C   UNL     1      15.691  10.296   5.676  0.00  0.00    +0.104 C 
ATOM     13  C   UNL     1      12.265   9.065   6.353  0.00  0.00    +0.305 C 
ENDROOT
BRANCH   5  14
ATOM     14  C   UNL     1      17.469   9.107   4.559  0.00  0.00    +0.122 C 
BRANCH  14  16
ATOM      1  F   UNL     1      19.350   7.555   3.085  0.00  0.00    -0.204 F 
ATOM      7  N   UNL     1      21.119   7.595   6.250  0.00  0.00    -0.260 NA
ATOM     16  C   UNL     1      18.746   8.577   5.148  0.00  0.00    +0.005 A 
ATOM     18  C   UNL     1      19.618   7.826   4.368  0.00  0.00    +0.146 A 
ATOM     19  C   UNL     1      19.058   8.838   6.478  0.00  0.00    +0.027 A 
ATOM     24  C   UNL     1      20.781   7.362   4.962  0.00  0.00    +0.149 A 
ATOM     25  C   UNL     1      20.246   8.328   6.976  0.00  0.00    +0.111 A 
ENDBRANCH  14  16
ENDBRANCH   5  14
BRANCH   6  15
ATOM     15  C   UNL     1      10.550   7.295   5.731  0.00  0.00    +0.144 C 
BRANCH  15  17
ATOM      2  F   UNL     1       8.791   4.186  10.083  0.00  0.00    -0.205 F 
ATOM     17  C   UNL     1      10.081   6.466   6.891  0.00  0.00    -0.030 A 
ATOM     20  C   UNL     1       9.460   7.079   7.979  0.00  0.00    +0.008 A 
ATOM     21  C   UNL     1      10.267   5.084   6.882  0.00  0.00    +0.008 A 
ATOM     22  C   UNL     1       9.024   6.308   9.058  0.00  0.00    +0.038 A 
ATOM     23  C   UNL     1       9.831   4.313   7.959  0.00  0.00    +0.038 A 
ATOM     26  C   UNL     1       9.210   4.926   9.048  0.00  0.00    +0.123 A 
ENDBRANCH  15  17
ENDBRANCH   6  15
TORSDOF 4
ENDMDL
MODEL 9
REMARK VINA RESULT:      -6.1      3.259      8.585
REMARK  Name = 75537093
REMARK  4 active torsions:
REMARK  status: ('A' for Active; 'I' for Inactive)
REMARK    1  A    between atoms: N_5  and  C_14
REMARK    2  A    between atoms: N_6  and  C_15
REMARK    3  A    between atoms: C_14  and  C_16
REMARK    4  A    between atoms: C_15  and  C_17
REMARK                            x       y       z     vdW  Elec       q    Type
REMARK                         _______ _______ _______ _____ _____    ______ ____
ROOT
ATOM      3  O   UNL     1      20.454   6.348  20.447  0.00  0.00    -0.252 OA
ATOM      4  N   UNL     1      18.130   6.693  20.449  0.00  0.00    -0.278 N 
ATOM      5  N   UNL     1      15.513   6.945  19.452  0.00  0.00    -0.295 NA
ATOM      6  N   UNL     1      19.413   8.076  21.669  0.00  0.00    -0.279 N 
ATOM      8  C   UNL     1      17.188   7.536  21.155  0.00  0.00    +0.109 C 
ATOM      9  C   UNL     1      16.124   8.065  20.194  0.00  0.00    +0.109 C 
ATOM     10  C   UNL     1      18.068   8.610  21.794  0.00  0.00    +0.133 C 
ATOM     11  C   UNL     1      17.634   5.653  19.574  0.00  0.00    +0.125 C 
ATOM     12  C   UNL     1      16.531   6.212  18.671  0.00  0.00    +0.104 C 
ATOM     13  C   UNL     1      19.458   6.959  20.811  0.00  0.00    +0.305 C 
ENDROOT
BRANCH   5  14
ATOM     14  C   UNL     1      14.452   7.433  18.572  0.00  0.00    +0.122 C 
BRANCH  14  16
ATOM      1  F   UNL     1      12.465   9.352  17.873  0.00  0.00    -0.204 F 
ATOM      7  N   UNL     1      10.704   7.810  20.641  0.00  0.00    -0.260 NA
ATOM     16  C   UNL     1      13.141   7.567  19.294  0.00  0.00    +0.005 A 
ATOM     18  C   UNL     1      12.217   8.527  18.897  0.00  0.00    +0.146 A 
ATOM     19  C   UNL     1      12.848   6.727  20.363  0.00  0.00    +0.027 A 
ATOM     24  C   UNL     1      11.025   8.608  19.597  0.00  0.00    +0.149 A 
ATOM     25  C   UNL     1      11.627   6.889  20.998  0.00  0.00    +0.111 A 
ENDBRANCH  14  16
ENDBRANCH   5  14
BRANCH   6  15
ATOM     15  C   UNL     1      20.558   8.742  22.251  0.00  0.00    +0.144 C 
BRANCH  15  17
ATOM      2  F   UNL     1      20.497   8.516  27.876  0.00  0.00    -0.205 F 
ATOM     17  C   UNL     1      20.542   8.682  23.751  0.00  0.00    -0.030 A 
ATOM     20  C   UNL     1      20.477   7.448  24.398  0.00  0.00    +0.008 A 
ATOM     21  C   UNL     1      20.591   9.859  24.497  0.00  0.00    +0.008 A 
ATOM     22  C   UNL     1      20.462   7.392  25.792  0.00  0.00    +0.038 A 
ATOM     23  C   UNL     1      20.576   9.804  25.890  0.00  0.00    +0.038 A 
ATOM     26  C   UNL     1      20.511   8.570  26.539  0.00  0.00    +0.123 A 
ENDBRANCH  15  17
ENDBRANCH   6  15
TORSDOF 4
ENDMDL
MODEL 10
REMARK VINA RESULT:      -6.0     27.687     30.284
REMARK  Name = 75537093
REMARK  4 active torsions:
REMARK  status: ('A' for Active; 'I' for Inactive)
REMARK    1  A    between atoms: N_5  and  C_14
REMARK    2  A    between atoms: N_6  and  C_15
REMARK    3  A    between atoms: C_14  and  C_16
REMARK    4  A    between atoms: C_15  and  C_17
REMARK                            x       y       z     vdW  Elec       q    Type
REMARK                         _______ _______ _______ _____ _____    ______ ____
ROOT
ATOM      3  O   UNL     1      -3.790 -14.123  14.099  0.00  0.00    -0.252 OA
ATOM      4  N   UNL     1      -4.287 -12.610  15.827  0.00  0.00    -0.278 N 
ATOM      5  N   UNL     1      -5.828 -11.062  17.597  0.00  0.00    -0.295 NA
ATOM      6  N   UNL     1      -2.675 -12.060  14.362  0.00  0.00    -0.279 N 
ATOM      8  C   UNL     1      -3.736 -11.373  16.339  0.00  0.00    +0.109 C 
ATOM      9  C   UNL     1      -4.859 -10.401  16.701  0.00  0.00    +0.109 C 
ATOM     10  C   UNL     1      -2.810 -10.897  15.221  0.00  0.00    +0.133 C 
ATOM     11  C   UNL     1      -5.351 -13.268  16.555  0.00  0.00    +0.125 C 
ATOM     12  C   UNL     1      -6.423 -12.248  16.948  0.00  0.00    +0.104 C 
ATOM     13  C   UNL     1      -3.605 -13.067  14.691  0.00  0.00    +0.305 C 
ENDROOT
BRANCH   5  14
ATOM     14  C   UNL     1      -6.875 -10.122  17.998  0.00  0.00    +0.122 C 
BRANCH  14  16
ATOM      1  F   UNL     1      -6.986 -11.859  20.254  0.00  0.00    -0.204 F 
ATOM      7  N   UNL     1     -10.457 -12.142  19.246  0.00  0.00    -0.260 NA
ATOM     16  C   UNL     1      -8.127 -10.830  18.436  0.00  0.00    +0.005 A 
ATOM     18  C   UNL     1      -8.106 -11.663  19.549  0.00  0.00    +0.146 A 
ATOM     19  C   UNL     1      -9.310 -10.651  17.728  0.00  0.00    +0.027 A 
ATOM     24  C   UNL     1      -9.288 -12.291  19.909  0.00  0.00    +0.149 A 
ATOM     25  C   UNL     1     -10.437 -11.324  18.171  0.00  0.00    +0.111 A 
ENDBRANCH  14  16
ENDBRANCH   5  14
BRANCH   6  15
ATOM     15  C   UNL     1      -1.783 -12.073  13.224  0.00  0.00    +0.144 C 
BRANCH  15  17
ATOM      2  F   UNL     1      -3.617  -8.742   9.071  0.00  0.00    -0.205 F 
ATOM     17  C   UNL     1      -2.272 -11.185  12.117  0.00  0.00    -0.030 A 
ATOM     20  C   UNL     1      -3.398 -11.547  11.378  0.00  0.00    +0.008 A 
ATOM     21  C   UNL     1      -1.600  -9.997  11.826  0.00  0.00    +0.008 A 
ATOM     22  C   UNL     1      -3.853 -10.722  10.349  0.00  0.00    +0.038 A 
ATOM     23  C   UNL     1      -2.053  -9.172  10.797  0.00  0.00    +0.038 A 
ATOM     26  C   UNL     1      -3.181  -9.535  10.058  0.00  0.00    +0.123 A 
ENDBRANCH  15  17
ENDBRANCH   6  15
TORSDOF 4
ENDMDL
