MODEL 1
REMARK VINA RESULT:      -7.3      0.000      0.000
REMARK  Name = 51136662
REMARK  9 active torsions:
REMARK  status: ('A' for Active; 'I' for Inactive)
REMARK    1  A    between atoms: O_2  and  C_17
REMARK    2  A    between atoms: O_4  and  C_26
REMARK    3  A    between atoms: O_4  and  C_32
REMARK    4  A    between atoms: C_7  and  C_12
REMARK    5  A    between atoms: C_8  and  C_13
REMARK    6  A    between atoms: C_12  and  C_14
REMARK    7  A    between atoms: C_13  and  C_17
REMARK    8  A    between atoms: C_15  and  C_18
REMARK    9  A    between atoms: C_18  and  C_23
REMARK                            x       y       z     vdW  Elec       q    Type
REMARK                         _______ _______ _______ _____ _____    ______ ____
ROOT
ATOM      1  O   UNL     1      16.946  11.036  20.595  0.00  0.00    -0.275 OA
ATOM      5  N   UNL     1      15.344  10.767  22.255  0.00  0.00    -0.301 N 
ATOM      7  C   UNL     1      12.989  10.827  23.046  0.00  0.00    +0.016 C 
ATOM      8  C   UNL     1      13.302  12.165  23.762  0.00  0.00    +0.006 C 
ATOM      9  C   UNL     1      14.458  12.915  23.077  0.00  0.00    +0.023 C 
ATOM     10  C   UNL     1      14.277   9.995  22.905  0.00  0.00    +0.112 C 
ATOM     11  C   UNL     1      15.685  12.023  22.924  0.00  0.00    +0.108 C 
ATOM     15  C   UNL     1      16.035  10.380  21.107  0.00  0.00    +0.220 C 
ENDROOT
BRANCH   7  12
ATOM     12  C   UNL     1      12.310  10.994  21.681  0.00  0.00    +0.061 C 
BRANCH  12  14
ATOM      6  N   UNL     1      11.212   8.871  21.908  0.00  0.00    -0.287 NA
ATOM     14  C   UNL     1      11.906   9.644  21.140  0.00  0.00    +0.044 C 
ATOM     16  C   UNL     1      12.329   9.268  19.767  0.00  0.00    -0.001 A 
ATOM     19  C   UNL     1      12.284   7.906  19.444  0.00  0.00    -0.033 A 
ATOM     20  C   UNL     1      11.835   6.931  20.491  0.00  0.00    +0.059 C 
ATOM     21  C   UNL     1      10.768   7.584  21.361  0.00  0.00    +0.146 C 
ATOM     22  C   UNL     1      12.768  10.204  18.829  0.00  0.00    +0.013 A 
ATOM     24  C   UNL     1      12.707   7.482  18.181  0.00  0.00    +0.050 A 
ATOM     25  C   UNL     1      13.174   9.773  17.566  0.00  0.00    +0.046 A 
ATOM     26  C   UNL     1      13.146   8.416  17.243  0.00  0.00    +0.120 A 
BRANCH  26   4
ATOM      4  O   UNL     1      13.551   8.003  16.010  0.00  0.00    -0.495 OA
ATOM     32  C   UNL     1      14.423   8.871  15.289  0.00  0.00    +0.277 C 
ENDBRANCH  26   4
ENDBRANCH  12  14
ENDBRANCH   7  12
BRANCH   8  13
ATOM     13  C   UNL     1      12.080  13.071  23.904  0.00  0.00    +0.124 C 
BRANCH  13  17
ATOM      3  O   UNL     1      11.033  11.791  25.694  0.00  0.00    -0.251 OA
ATOM     17  C   UNL     1      10.957  12.380  24.626  0.00  0.00    +0.305 C 
BRANCH  17   2
ATOM      2  O   UNL     1       9.809  12.500  23.910  0.00  0.00    -0.481 OA
ATOM     33  H   UNL     1       9.985  12.709  22.968  0.00  0.00    +0.295 HD
ENDBRANCH  17   2
ENDBRANCH  13  17
ENDBRANCH   8  13
BRANCH  15  18
ATOM     18  C   UNL     1      15.621   9.077  20.475  0.00  0.00    +0.131 C 
BRANCH  18  23
ATOM     23  C   UNL     1      16.737   8.081  20.539  0.00  0.00    -0.039 A 
ATOM     27  C   UNL     1      17.762   8.240  21.471  0.00  0.00    +0.004 A 
ATOM     28  C   UNL     1      16.752   6.994  19.664  0.00  0.00    +0.004 A 
ATOM     29  C   UNL     1      18.802   7.311  21.530  0.00  0.00    +0.000 A 
ATOM     30  C   UNL     1      17.792   6.066  19.722  0.00  0.00    +0.000 A 
ATOM     31  C   UNL     1      18.816   6.225  20.655  0.00  0.00    +0.000 A 
ENDBRANCH  18  23
ENDBRANCH  15  18
TORSDOF 8
ENDMDL
MODEL 2
REMARK VINA RESULT:      -7.2      2.272      4.118
REMARK  Name = 51136662
REMARK  9 active torsions:
REMARK  status: ('A' for Active; 'I' for Inactive)
REMARK    1  A    between atoms: O_2  and  C_17
REMARK    2  A    between atoms: O_4  and  C_26
REMARK    3  A    between atoms: O_4  and  C_32
REMARK    4  A    between atoms: C_7  and  C_12
REMARK    5  A    between atoms: C_8  and  C_13
REMARK    6  A    between atoms: C_12  and  C_14
REMARK    7  A    between atoms: C_13  and  C_17
REMARK    8  A    between atoms: C_15  and  C_18
REMARK    9  A    between atoms: C_18  and  C_23
REMARK                            x       y       z     vdW  Elec       q    Type
REMARK                         _______ _______ _______ _____ _____    ______ ____
ROOT
ATOM      1  O   UNL     1      11.717   5.950  21.364  0.00  0.00    -0.275 OA
ATOM      5  N   UNL     1      11.360   8.213  20.980  0.00  0.00    -0.301 N 
ATOM      7  C   UNL     1      12.110  10.582  21.032  0.00  0.00    +0.016 C 
ATOM      8  C   UNL     1      11.219  10.797  22.282  0.00  0.00    +0.006 C 
ATOM      9  C   UNL     1      11.011   9.487  23.061  0.00  0.00    +0.023 C 
ATOM     10  C   UNL     1      11.544   9.430  20.179  0.00  0.00    +0.112 C 
ATOM     11  C   UNL     1      10.497   8.376  22.151  0.00  0.00    +0.108 C 
ATOM     15  C   UNL     1      11.909   6.964  20.688  0.00  0.00    +0.220 C 
ENDROOT
BRANCH   7  12
ATOM     12  C   UNL     1      13.587  10.329  21.356  0.00  0.00    +0.061 C 
BRANCH  12  14
ATOM      6  N   UNL     1      14.931  12.317  21.443  0.00  0.00    -0.287 NA
ATOM     14  C   UNL     1      14.444  11.382  20.696  0.00  0.00    +0.044 C 
ATOM     16  C   UNL     1      14.679  11.299  19.232  0.00  0.00    -0.001 A 
ATOM     19  C   UNL     1      15.132  12.463  18.598  0.00  0.00    -0.033 A 
ATOM     20  C   UNL     1      15.333  13.700  19.422  0.00  0.00    +0.059 C 
ATOM     21  C   UNL     1      15.813  13.305  20.813  0.00  0.00    +0.146 C 
ATOM     22  C   UNL     1      14.454  10.134  18.495  0.00  0.00    +0.013 A 
ATOM     24  C   UNL     1      15.335  12.462  17.216  0.00  0.00    +0.050 A 
ATOM     25  C   UNL     1      14.673  10.138  17.118  0.00  0.00    +0.046 A 
ATOM     26  C   UNL     1      15.110  11.299  16.479  0.00  0.00    +0.120 A 
BRANCH  26   4
ATOM      4  O   UNL     1      15.314  11.297  15.132  0.00  0.00    -0.495 OA
ATOM     32  C   UNL     1      16.626  11.616  14.674  0.00  0.00    +0.277 C 
ENDBRANCH  26   4
ENDBRANCH  12  14
ENDBRANCH   7  12
BRANCH   8  13
ATOM     13  C   UNL     1      11.737  11.898  23.206  0.00  0.00    +0.124 C 
BRANCH  13  17
ATOM      3  O   UNL     1      11.125  11.763  25.562  0.00  0.00    -0.251 OA
ATOM     17  C   UNL     1      10.854  12.073  24.411  0.00  0.00    +0.305 C 
BRANCH  17   2
ATOM      2  O   UNL     1       9.678  12.639  24.039  0.00  0.00    -0.481 OA
ATOM     33  H   UNL     1       9.185  12.075  23.404  0.00  0.00    +0.295 HD
ENDBRANCH  17   2
ENDBRANCH  13  17
ENDBRANCH   8  13
BRANCH  15  18
ATOM     18  C   UNL     1      12.788   6.880  19.468  0.00  0.00    +0.131 C 
BRANCH  18  23
ATOM     23  C   UNL     1      14.232   6.848  19.859  0.00  0.00    -0.039 A 
ATOM     27  C   UNL     1      15.211   6.593  18.899  0.00  0.00    +0.004 A 
ATOM     28  C   UNL     1      14.600   7.073  21.186  0.00  0.00    +0.004 A 
ATOM     29  C   UNL     1      16.557   6.563  19.264  0.00  0.00    +0.000 A 
ATOM     30  C   UNL     1      15.946   7.043  21.552  0.00  0.00    +0.000 A 
ATOM     31  C   UNL     1      16.924   6.789  20.591  0.00  0.00    +0.000 A 
ENDBRANCH  18  23
ENDBRANCH  15  18
TORSDOF 8
ENDMDL
MODEL 3
REMARK VINA RESULT:      -7.0     26.526     29.264
REMARK  Name = 51136662
REMARK  9 active torsions:
REMARK  status: ('A' for Active; 'I' for Inactive)
REMARK    1  A    between atoms: O_2  and  C_17
REMARK    2  A    between atoms: O_4  and  C_26
REMARK    3  A    between atoms: O_4  and  C_32
REMARK    4  A    between atoms: C_7  and  C_12
REMARK    5  A    between atoms: C_8  and  C_13
REMARK    6  A    between atoms: C_12  and  C_14
REMARK    7  A    between atoms: C_13  and  C_17
REMARK    8  A    between atoms: C_15  and  C_18
REMARK    9  A    between atoms: C_18  and  C_23
REMARK                            x       y       z     vdW  Elec       q    Type
REMARK                         _______ _______ _______ _____ _____    ______ ____
ROOT
ATOM      1  O   UNL     1      -1.382  -9.782  12.443  0.00  0.00    -0.275 OA
ATOM      5  N   UNL     1      -2.240 -11.309  13.969  0.00  0.00    -0.301 N 
ATOM      7  C   UNL     1      -4.050 -12.114  15.469  0.00  0.00    +0.016 C 
ATOM      8  C   UNL     1      -3.237 -11.580  16.675  0.00  0.00    +0.006 C 
ATOM      9  C   UNL     1      -2.315 -10.419  16.266  0.00  0.00    +0.023 C 
ATOM     10  C   UNL     1      -3.099 -12.452  14.305  0.00  0.00    +0.112 C 
ATOM     11  C   UNL     1      -1.435 -10.801  15.079  0.00  0.00    +0.108 C 
ATOM     15  C   UNL     1      -2.131 -10.726  12.706  0.00  0.00    +0.220 C 
ENDROOT
BRANCH   7  12
ATOM     12  C   UNL     1      -5.157 -11.165  14.994  0.00  0.00    +0.061 C 
BRANCH  12  14
ATOM      6  N   UNL     1      -6.722 -12.985  15.066  0.00  0.00    -0.287 NA
ATOM     14  C   UNL     1      -6.510 -11.740  15.340  0.00  0.00    +0.044 C 
ATOM     16  C   UNL     1      -7.525 -10.854  15.964  0.00  0.00    -0.001 A 
ATOM     19  C   UNL     1      -8.856 -11.287  15.915  0.00  0.00    -0.033 A 
ATOM     20  C   UNL     1      -9.167 -12.587  15.234  0.00  0.00    +0.059 C 
ATOM     21  C   UNL     1      -8.014 -13.559  15.457  0.00  0.00    +0.146 C 
ATOM     22  C   UNL     1      -7.199  -9.637  16.565  0.00  0.00    +0.013 A 
ATOM     24  C   UNL     1      -9.864 -10.481  16.450  0.00  0.00    +0.050 A 
ATOM     25  C   UNL     1      -8.210  -8.846  17.110  0.00  0.00    +0.046 A 
ATOM     26  C   UNL     1      -9.539  -9.264  17.050  0.00  0.00    +0.120 A 
BRANCH  26   4
ATOM      4  O   UNL     1     -10.522  -8.482  17.577  0.00  0.00    -0.495 OA
ATOM     32  C   UNL     1     -10.818  -7.264  16.896  0.00  0.00    +0.277 C 
ENDBRANCH  26   4
ENDBRANCH  12  14
ENDBRANCH   7  12
BRANCH   8  13
ATOM     13  C   UNL     1      -4.114 -11.180  17.861  0.00  0.00    +0.124 C 
BRANCH  13  17
ATOM      3  O   UNL     1      -3.447 -12.254  19.945  0.00  0.00    -0.251 OA
ATOM     17  C   UNL     1      -4.124 -12.240  18.927  0.00  0.00    +0.305 C 
BRANCH  17   2
ATOM      2  O   UNL     1      -5.013 -13.212  18.598  0.00  0.00    -0.481 OA
ATOM     33  H   UNL     1      -4.767 -13.667  17.765  0.00  0.00    +0.295 HD
ENDBRANCH  17   2
ENDBRANCH  13  17
ENDBRANCH   8  13
BRANCH  15  18
ATOM     18  C   UNL     1      -2.997 -11.305  11.617  0.00  0.00    +0.131 C 
BRANCH  18  23
ATOM     23  C   UNL     1      -3.859 -10.244  11.008  0.00  0.00    -0.039 A 
ATOM     27  C   UNL     1      -4.965  -9.758  11.705  0.00  0.00    +0.004 A 
ATOM     28  C   UNL     1      -3.556  -9.741   9.742  0.00  0.00    +0.004 A 
ATOM     29  C   UNL     1      -5.769  -8.769  11.137  0.00  0.00    +0.000 A 
ATOM     30  C   UNL     1      -4.359  -8.752   9.174  0.00  0.00    +0.000 A 
ATOM     31  C   UNL     1      -5.465  -8.266   9.872  0.00  0.00    +0.000 A 
ENDBRANCH  18  23
ENDBRANCH  15  18
TORSDOF 8
ENDMDL
MODEL 4
REMARK VINA RESULT:      -6.8      1.964      4.978
REMARK  Name = 51136662
REMARK  9 active torsions:
REMARK  status: ('A' for Active; 'I' for Inactive)
REMARK    1  A    between atoms: O_2  and  C_17
REMARK    2  A    between atoms: O_4  and  C_26
REMARK    3  A    between atoms: O_4  and  C_32
REMARK    4  A    between atoms: C_7  and  C_12
REMARK    5  A    between atoms: C_8  and  C_13
REMARK    6  A    between atoms: C_12  and  C_14
REMARK    7  A    between atoms: C_13  and  C_17
REMARK    8  A    between atoms: C_15  and  C_18
REMARK    9  A    between atoms: C_18  and  C_23
REMARK                            x       y       z     vdW  Elec       q    Type
REMARK                         _______ _______ _______ _____ _____    ______ ____
ROOT
ATOM      1  O   UNL     1      12.014   6.093  20.208  0.00  0.00    -0.275 OA
ATOM      5  N   UNL     1      11.770   8.402  20.283  0.00  0.00    -0.301 N 
ATOM      7  C   UNL     1      12.513  10.653  21.028  0.00  0.00    +0.016 C 
ATOM      8  C   UNL     1      11.375  10.639  22.080  0.00  0.00    +0.006 C 
ATOM      9  C   UNL     1      10.992   9.204  22.480  0.00  0.00    +0.023 C 
ATOM     10  C   UNL     1      12.135   9.753  19.837  0.00  0.00    +0.112 C 
ATOM     11  C   UNL     1      10.677   8.353  21.254  0.00  0.00    +0.108 C 
ATOM     15  C   UNL     1      12.357   7.219  19.836  0.00  0.00    +0.220 C 
ENDROOT
BRANCH   7  12
ATOM     12  C   UNL     1      13.883  10.250  21.586  0.00  0.00    +0.061 C 
BRANCH  12  14
ATOM      6  N   UNL     1      14.447  12.541  21.138  0.00  0.00    -0.287 NA
ATOM     14  C   UNL     1      14.891  11.340  21.309  0.00  0.00    +0.044 C 
ATOM     16  C   UNL     1      16.330  10.982  21.239  0.00  0.00    -0.001 A 
ATOM     19  C   UNL     1      17.180  11.901  20.612  0.00  0.00    -0.033 A 
ATOM     20  C   UNL     1      16.589  13.160  20.048  0.00  0.00    +0.059 C 
ATOM     21  C   UNL     1      15.430  13.609  20.929  0.00  0.00    +0.146 C 
ATOM     22  C   UNL     1      16.838   9.786  21.753  0.00  0.00    +0.013 A 
ATOM     24  C   UNL     1      18.539  11.606  20.479  0.00  0.00    +0.050 A 
ATOM     25  C   UNL     1      18.198   9.507  21.629  0.00  0.00    +0.046 A 
ATOM     26  C   UNL     1      19.047  10.413  20.991  0.00  0.00    +0.120 A 
BRANCH  26   4
ATOM      4  O   UNL     1      20.374  10.128  20.867  0.00  0.00    -0.495 OA
ATOM     32  C   UNL     1      20.835   8.914  21.455  0.00  0.00    +0.277 C 
ENDBRANCH  26   4
ENDBRANCH  12  14
ENDBRANCH   7  12
BRANCH   8  13
ATOM     13  C   UNL     1      11.692  11.477  23.318  0.00  0.00    +0.124 C 
BRANCH  13  17
ATOM      3  O   UNL     1      10.133  12.758  24.686  0.00  0.00    -0.251 OA
ATOM     17  C   UNL     1      10.614  12.489  23.595  0.00  0.00    +0.305 C 
BRANCH  17   2
ATOM      2  O   UNL     1      10.233  13.082  22.435  0.00  0.00    -0.481 OA
ATOM     33  H   UNL     1      10.934  13.031  21.750  0.00  0.00    +0.295 HD
ENDBRANCH  17   2
ENDBRANCH  13  17
ENDBRANCH   8  13
BRANCH  15  18
ATOM     18  C   UNL     1      13.479   7.355  18.839  0.00  0.00    +0.131 C 
BRANCH  18  23
ATOM     23  C   UNL     1      14.778   6.925  19.445  0.00  0.00    -0.039 A 
ATOM     27  C   UNL     1      14.908   6.839  20.830  0.00  0.00    +0.004 A 
ATOM     28  C   UNL     1      15.860   6.610  18.622  0.00  0.00    +0.004 A 
ATOM     29  C   UNL     1      16.120   6.437  21.395  0.00  0.00    +0.000 A 
ATOM     30  C   UNL     1      17.072   6.209  19.185  0.00  0.00    +0.000 A 
ATOM     31  C   UNL     1      17.201   6.122  20.572  0.00  0.00    +0.000 A 
ENDBRANCH  18  23
ENDBRANCH  15  18
TORSDOF 8
ENDMDL
MODEL 5
REMARK VINA RESULT:      -6.7     27.186     29.246
REMARK  Name = 51136662
REMARK  9 active torsions:
REMARK  status: ('A' for Active; 'I' for Inactive)
REMARK    1  A    between atoms: O_2  and  C_17
REMARK    2  A    between atoms: O_4  and  C_26
REMARK    3  A    between atoms: O_4  and  C_32
REMARK    4  A    between atoms: C_7  and  C_12
REMARK    5  A    between atoms: C_8  and  C_13
REMARK    6  A    between atoms: C_12  and  C_14
REMARK    7  A    between atoms: C_13  and  C_17
REMARK    8  A    between atoms: C_15  and  C_18
REMARK    9  A    between atoms: C_18  and  C_23
REMARK                            x       y       z     vdW  Elec       q    Type
REMARK                         _______ _______ _______ _____ _____    ______ ____
ROOT
ATOM      1  O   UNL     1      -0.960 -11.120  15.108  0.00  0.00    -0.275 OA
ATOM      5  N   UNL     1      -3.151 -11.762  15.536  0.00  0.00    -0.301 N 
ATOM      7  C   UNL     1      -5.593 -11.618  15.098  0.00  0.00    +0.016 C 
ATOM      8  C   UNL     1      -5.737 -10.772  16.388  0.00  0.00    +0.006 C 
ATOM      9  C   UNL     1      -4.435 -10.024  16.722  0.00  0.00    +0.023 C 
ATOM     10  C   UNL     1      -4.357 -12.532  15.206  0.00  0.00    +0.112 C 
ATOM     11  C   UNL     1      -3.244 -10.976  16.767  0.00  0.00    +0.108 C 
ATOM     15  C   UNL     1      -1.969 -11.757  14.795  0.00  0.00    +0.220 C 
ENDROOT
BRANCH   7  12
ATOM     12  C   UNL     1      -5.529 -10.787  13.811  0.00  0.00    +0.061 C 
BRANCH  12  14
ATOM      6  N   UNL     1      -7.187 -12.378  13.114  0.00  0.00    -0.287 NA
ATOM     14  C   UNL     1      -6.554 -11.289  12.824  0.00  0.00    +0.044 C 
ATOM     16  C   UNL     1      -6.780 -10.520  11.573  0.00  0.00    -0.001 A 
ATOM     19  C   UNL     1      -7.426 -11.192  10.527  0.00  0.00    -0.033 A 
ATOM     20  C   UNL     1      -7.826 -12.624  10.728  0.00  0.00    +0.059 C 
ATOM     21  C   UNL     1      -8.225 -12.834  12.184  0.00  0.00    +0.146 C 
ATOM     22  C   UNL     1      -6.368  -9.196  11.416  0.00  0.00    +0.013 A 
ATOM     24  C   UNL     1      -7.633 -10.537   9.311  0.00  0.00    +0.050 A 
ATOM     25  C   UNL     1      -6.592  -8.545  10.203  0.00  0.00    +0.046 A 
ATOM     26  C   UNL     1      -7.221  -9.214   9.152  0.00  0.00    +0.120 A 
BRANCH  26   4
ATOM      4  O   UNL     1      -7.430  -8.574   7.967  0.00  0.00    -0.495 OA
ATOM     32  C   UNL     1      -7.987  -7.263   8.028  0.00  0.00    +0.277 C 
ENDBRANCH  26   4
ENDBRANCH  12  14
ENDBRANCH   7  12
BRANCH   8  13
ATOM     13  C   UNL     1      -6.919  -9.805  16.343  0.00  0.00    +0.124 C 
BRANCH  13  17
ATOM      3  O   UNL     1      -7.394 -10.398  18.660  0.00  0.00    -0.251 OA
ATOM     17  C   UNL     1      -7.598  -9.694  17.681  0.00  0.00    +0.305 C 
BRANCH  17   2
ATOM      2  O   UNL     1      -8.497  -8.678  17.656  0.00  0.00    -0.481 OA
ATOM     33  H   UNL     1      -8.058  -7.801  17.628  0.00  0.00    +0.295 HD
ENDBRANCH  17   2
ENDBRANCH  13  17
ENDBRANCH   8  13
BRANCH  15  18
ATOM     18  C   UNL     1      -1.955 -12.589  13.538  0.00  0.00    +0.131 C 
BRANCH  18  23
ATOM     23  C   UNL     1      -2.414 -11.781  12.366  0.00  0.00    -0.039 A 
ATOM     27  C   UNL     1      -1.998 -10.457  12.224  0.00  0.00    +0.004 A 
ATOM     28  C   UNL     1      -3.260 -12.352  11.414  0.00  0.00    +0.004 A 
ATOM     29  C   UNL     1      -2.426  -9.704  11.129  0.00  0.00    +0.000 A 
ATOM     30  C   UNL     1      -3.688 -11.599  10.320  0.00  0.00    +0.000 A 
ATOM     31  C   UNL     1      -3.271 -10.276  10.178  0.00  0.00    +0.000 A 
ENDBRANCH  18  23
ENDBRANCH  15  18
TORSDOF 8
ENDMDL
MODEL 6
REMARK VINA RESULT:      -6.7      2.915      6.557
REMARK  Name = 51136662
REMARK  9 active torsions:
REMARK  status: ('A' for Active; 'I' for Inactive)
REMARK    1  A    between atoms: O_2  and  C_17
REMARK    2  A    between atoms: O_4  and  C_26
REMARK    3  A    between atoms: O_4  and  C_32
REMARK    4  A    between atoms: C_7  and  C_12
REMARK    5  A    between atoms: C_8  and  C_13
REMARK    6  A    between atoms: C_12  and  C_14
REMARK    7  A    between atoms: C_13  and  C_17
REMARK    8  A    between atoms: C_15  and  C_18
REMARK    9  A    between atoms: C_18  and  C_23
REMARK                            x       y       z     vdW  Elec       q    Type
REMARK                         _______ _______ _______ _____ _____    ______ ____
ROOT
ATOM      1  O   UNL     1      14.781   6.932  17.343  0.00  0.00    -0.275 OA
ATOM      5  N   UNL     1      15.514   6.849  19.546  0.00  0.00    -0.301 N 
ATOM      7  C   UNL     1      16.694   7.845  21.493  0.00  0.00    +0.016 C 
ATOM      8  C   UNL     1      17.885   6.895  21.209  0.00  0.00    +0.006 C 
ATOM      9  C   UNL     1      17.946   6.492  19.726  0.00  0.00    +0.023 C 
ATOM     10  C   UNL     1      15.390   7.221  20.961  0.00  0.00    +0.112 C 
ATOM     11  C   UNL     1      16.611   5.928  19.250  0.00  0.00    +0.108 C 
ATOM     15  C   UNL     1      14.671   7.280  18.522  0.00  0.00    +0.220 C 
ENDROOT
BRANCH   7  12
ATOM     12  C   UNL     1      16.877   9.260  20.930  0.00  0.00    +0.061 C 
BRANCH  12  14
ATOM      6  N   UNL     1      15.138   9.951  22.435  0.00  0.00    -0.287 NA
ATOM     14  C   UNL     1      15.674  10.106  21.270  0.00  0.00    +0.044 C 
ATOM     16  C   UNL     1      15.163  11.063  20.255  0.00  0.00    -0.001 A 
ATOM     19  C   UNL     1      13.857  11.536  20.434  0.00  0.00    -0.033 A 
ATOM     20  C   UNL     1      13.067  11.042  21.611  0.00  0.00    +0.059 C 
ATOM     21  C   UNL     1      14.008  10.816  22.788  0.00  0.00    +0.146 C 
ATOM     22  C   UNL     1      15.921  11.477  19.158  0.00  0.00    +0.013 A 
ATOM     24  C   UNL     1      13.303  12.408  19.494  0.00  0.00    +0.050 A 
ATOM     25  C   UNL     1      15.365  12.359  18.232  0.00  0.00    +0.046 A 
ATOM     26  C   UNL     1      14.059  12.821  18.397  0.00  0.00    +0.120 A 
BRANCH  26   4
ATOM      4  O   UNL     1      13.521  13.677  17.483  0.00  0.00    -0.495 OA
ATOM     32  C   UNL     1      14.125  13.712  16.192  0.00  0.00    +0.277 C 
ENDBRANCH  26   4
ENDBRANCH  12  14
ENDBRANCH   7  12
BRANCH   8  13
ATOM     13  C   UNL     1      19.228   7.461  21.669  0.00  0.00    +0.124 C 
BRANCH  13  17
ATOM      3  O   UNL     1      20.893   5.714  22.009  0.00  0.00    -0.251 OA
ATOM     17  C   UNL     1      20.020   6.448  22.449  0.00  0.00    +0.305 C 
BRANCH  17   2
ATOM      2  O   UNL     1      19.625   6.457  23.747  0.00  0.00    -0.481 OA
ATOM     33  H   UNL     1      18.677   6.691  23.840  0.00  0.00    +0.295 HD
ENDBRANCH  17   2
ENDBRANCH  13  17
ENDBRANCH   8  13
BRANCH  15  18
ATOM     18  C   UNL     1      13.568   8.231  18.908  0.00  0.00    +0.131 C 
BRANCH  18  23
ATOM     23  C   UNL     1      12.812   8.682  17.698  0.00  0.00    -0.039 A 
ATOM     27  C   UNL     1      13.433   9.494  16.749  0.00  0.00    +0.004 A 
ATOM     28  C   UNL     1      11.484   8.292  17.520  0.00  0.00    +0.004 A 
ATOM     29  C   UNL     1      12.728   9.914  15.620  0.00  0.00    +0.000 A 
ATOM     30  C   UNL     1      10.778   8.712  16.392  0.00  0.00    +0.000 A 
ATOM     31  C   UNL     1      11.401   9.523  15.443  0.00  0.00    +0.000 A 
ENDBRANCH  18  23
ENDBRANCH  15  18
TORSDOF 8
ENDMDL
MODEL 7
REMARK VINA RESULT:      -6.6     26.005     29.554
REMARK  Name = 51136662
REMARK  9 active torsions:
REMARK  status: ('A' for Active; 'I' for Inactive)
REMARK    1  A    between atoms: O_2  and  C_17
REMARK    2  A    between atoms: O_4  and  C_26
REMARK    3  A    between atoms: O_4  and  C_32
REMARK    4  A    between atoms: C_7  and  C_12
REMARK    5  A    between atoms: C_8  and  C_13
REMARK    6  A    between atoms: C_12  and  C_14
REMARK    7  A    between atoms: C_13  and  C_17
REMARK    8  A    between atoms: C_15  and  C_18
REMARK    9  A    between atoms: C_18  and  C_23
REMARK                            x       y       z     vdW  Elec       q    Type
REMARK                         _______ _______ _______ _____ _____    ______ ____
ROOT
ATOM      1  O   UNL     1      -8.082 -11.854  17.832  0.00  0.00    -0.275 OA
ATOM      5  N   UNL     1      -6.331 -10.624  16.928  0.00  0.00    -0.301 N 
ATOM      7  C   UNL     1      -4.500 -10.322  15.275  0.00  0.00    +0.016 C 
ATOM      8  C   UNL     1      -3.485 -10.684  16.388  0.00  0.00    +0.006 C 
ATOM      9  C   UNL     1      -4.123 -11.578  17.466  0.00  0.00    +0.023 C 
ATOM     10  C   UNL     1      -5.777  -9.731  15.903  0.00  0.00    +0.112 C 
ATOM     11  C   UNL     1      -5.407 -10.960  18.011  0.00  0.00    +0.108 C 
ATOM     15  C   UNL     1      -7.633 -11.124  16.944  0.00  0.00    +0.220 C 
ENDROOT
BRANCH   7  12
ATOM     12  C   UNL     1      -4.855 -11.492  14.349  0.00  0.00    +0.061 C 
BRANCH  12  14
ATOM      6  N   UNL     1      -3.343 -11.482  12.484  0.00  0.00    -0.287 NA
ATOM     14  C   UNL     1      -4.510 -11.141  12.922  0.00  0.00    +0.044 C 
ATOM     16  C   UNL     1      -5.514 -10.419  12.100  0.00  0.00    -0.001 A 
ATOM     19  C   UNL     1      -5.043  -9.777  10.948  0.00  0.00    -0.033 A 
ATOM     20  C   UNL     1      -3.578  -9.845  10.633  0.00  0.00    +0.059 C 
ATOM     21  C   UNL     1      -3.030 -11.195  11.080  0.00  0.00    +0.146 C 
ATOM     22  C   UNL     1      -6.866 -10.356  12.443  0.00  0.00    +0.013 A 
ATOM     24  C   UNL     1      -5.930  -9.048  10.153  0.00  0.00    +0.050 A 
ATOM     25  C   UNL     1      -7.747  -9.638  11.634  0.00  0.00    +0.046 A 
ATOM     26  C   UNL     1      -7.281  -8.983  10.494  0.00  0.00    +0.120 A 
BRANCH  26   4
ATOM      4  O   UNL     1      -8.147  -8.278   9.714  0.00  0.00    -0.495 OA
ATOM     32  C   UNL     1      -7.617  -7.678   8.534  0.00  0.00    +0.277 C 
ENDBRANCH  26   4
ENDBRANCH  12  14
ENDBRANCH   7  12
BRANCH   8  13
ATOM     13  C   UNL     1      -2.204 -11.319  15.849  0.00  0.00    +0.124 C 
BRANCH  13  17
ATOM      3  O   UNL     1      -1.275  -9.633  14.354  0.00  0.00    -0.251 OA
ATOM     17  C   UNL     1      -1.219 -10.279  15.390  0.00  0.00    +0.305 C 
BRANCH  17   2
ATOM      2  O   UNL     1      -0.227 -10.150  16.308  0.00  0.00    -0.481 OA
ATOM     33  H   UNL     1      -0.536  -9.694  17.120  0.00  0.00    +0.295 HD
ENDBRANCH  17   2
ENDBRANCH  13  17
ENDBRANCH   8  13
BRANCH  15  18
ATOM     18  C   UNL     1      -8.521 -10.735  15.791  0.00  0.00    +0.131 C 
BRANCH  18  23
ATOM     23  C   UNL     1      -9.587  -9.787  16.243  0.00  0.00    -0.039 A 
ATOM     27  C   UNL     1     -10.931 -10.144  16.135  0.00  0.00    +0.004 A 
ATOM     28  C   UNL     1      -9.236  -8.545  16.773  0.00  0.00    +0.004 A 
ATOM     29  C   UNL     1     -11.925  -9.260  16.557  0.00  0.00    +0.000 A 
ATOM     30  C   UNL     1     -10.230  -7.660  17.194  0.00  0.00    +0.000 A 
ATOM     31  C   UNL     1     -11.574  -8.018  17.087  0.00  0.00    +0.000 A 
ENDBRANCH  18  23
ENDBRANCH  15  18
TORSDOF 8
ENDMDL
MODEL 8
REMARK VINA RESULT:      -6.6     26.641     29.768
REMARK  Name = 51136662
REMARK  9 active torsions:
REMARK  status: ('A' for Active; 'I' for Inactive)
REMARK    1  A    between atoms: O_2  and  C_17
REMARK    2  A    between atoms: O_4  and  C_26
REMARK    3  A    between atoms: O_4  and  C_32
REMARK    4  A    between atoms: C_7  and  C_12
REMARK    5  A    between atoms: C_8  and  C_13
REMARK    6  A    between atoms: C_12  and  C_14
REMARK    7  A    between atoms: C_13  and  C_17
REMARK    8  A    between atoms: C_15  and  C_18
REMARK    9  A    between atoms: C_18  and  C_23
REMARK                            x       y       z     vdW  Elec       q    Type
REMARK                         _______ _______ _______ _____ _____    ______ ____
ROOT
ATOM      1  O   UNL     1      -4.964 -14.907  11.588  0.00  0.00    -0.275 OA
ATOM      5  N   UNL     1      -3.560 -13.065  11.410  0.00  0.00    -0.301 N 
ATOM      7  C   UNL     1      -3.017 -10.682  11.862  0.00  0.00    +0.016 C 
ATOM      8  C   UNL     1      -3.400 -10.356  10.396  0.00  0.00    +0.006 C 
ATOM      9  C   UNL     1      -4.414 -11.369   9.837  0.00  0.00    +0.023 C 
ATOM     10  C   UNL     1      -2.557 -12.149  11.967  0.00  0.00    +0.112 C 
ATOM     11  C   UNL     1      -3.922 -12.802  10.017  0.00  0.00    +0.108 C 
ATOM     15  C   UNL     1      -4.141 -14.136  12.089  0.00  0.00    +0.220 C 
ENDROOT
BRANCH   7  12
ATOM     12  C   UNL     1      -4.131 -10.399  12.876  0.00  0.00    +0.061 C 
BRANCH  12  14
ATOM      6  N   UNL     1      -2.287 -10.517  14.410  0.00  0.00    -0.287 NA
ATOM     14  C   UNL     1      -3.569 -10.426  14.277  0.00  0.00    +0.044 C 
ATOM     16  C   UNL     1      -4.508 -10.357  15.425  0.00  0.00    -0.001 A 
ATOM     19  C   UNL     1      -4.015 -10.768  16.670  0.00  0.00    -0.033 A 
ATOM     20  C   UNL     1      -2.599 -11.258  16.758  0.00  0.00    +0.059 C 
ATOM     21  C   UNL     1      -1.737 -10.483  15.769  0.00  0.00    +0.146 C 
ATOM     22  C   UNL     1      -5.828  -9.920  15.297  0.00  0.00    +0.013 A 
ATOM     24  C   UNL     1      -4.859 -10.764  17.783  0.00  0.00    +0.050 A 
ATOM     25  C   UNL     1      -6.659  -9.905  16.417  0.00  0.00    +0.046 A 
ATOM     26  C   UNL     1      -6.178 -10.328  17.656  0.00  0.00    +0.120 A 
BRANCH  26   4
ATOM      4  O   UNL     1      -6.999 -10.318  18.743  0.00  0.00    -0.495 OA
ATOM     32  C   UNL     1      -7.044 -11.504  19.533  0.00  0.00    +0.277 C 
ENDBRANCH  26   4
ENDBRANCH  12  14
ENDBRANCH   7  12
BRANCH   8  13
ATOM     13  C   UNL     1      -3.910  -8.927  10.213  0.00  0.00    +0.124 C 
BRANCH  13  17
ATOM      3  O   UNL     1      -6.313  -8.893   9.807  0.00  0.00    -0.251 OA
ATOM     17  C   UNL     1      -5.165  -8.886   9.386  0.00  0.00    +0.305 C 
BRANCH  17   2
ATOM      2  O   UNL     1      -4.845  -8.839   8.068  0.00  0.00    -0.481 OA
ATOM     33  H   UNL     1      -4.666  -9.732   7.703  0.00  0.00    +0.295 HD
ENDBRANCH  17   2
ENDBRANCH  13  17
ENDBRANCH   8  13
BRANCH  15  18
ATOM     18  C   UNL     1      -3.719 -14.337  13.521  0.00  0.00    +0.131 C 
BRANCH  18  23
ATOM     23  C   UNL     1      -4.860 -14.064  14.451  0.00  0.00    -0.039 A 
ATOM     27  C   UNL     1      -4.746 -14.372  15.806  0.00  0.00    +0.004 A 
ATOM     28  C   UNL     1      -6.039 -13.501  13.960  0.00  0.00    +0.004 A 
ATOM     29  C   UNL     1      -5.810 -14.117  16.673  0.00  0.00    +0.000 A 
ATOM     30  C   UNL     1      -7.103 -13.246  14.826  0.00  0.00    +0.000 A 
ATOM     31  C   UNL     1      -6.988 -13.554  16.182  0.00  0.00    +0.000 A 
ENDBRANCH  18  23
ENDBRANCH  15  18
TORSDOF 8
ENDMDL
MODEL 9
REMARK VINA RESULT:      -6.6     28.069     30.135
REMARK  Name = 51136662
REMARK  9 active torsions:
REMARK  status: ('A' for Active; 'I' for Inactive)
REMARK    1  A    between atoms: O_2  and  C_17
REMARK    2  A    between atoms: O_4  and  C_26
REMARK    3  A    between atoms: O_4  and  C_32
REMARK    4  A    between atoms: C_7  and  C_12
REMARK    5  A    between atoms: C_8  and  C_13
REMARK    6  A    between atoms: C_12  and  C_14
REMARK    7  A    between atoms: C_13  and  C_17
REMARK    8  A    between atoms: C_15  and  C_18
REMARK    9  A    between atoms: C_18  and  C_23
REMARK                            x       y       z     vdW  Elec       q    Type
REMARK                         _______ _______ _______ _____ _____    ______ ____
ROOT
ATOM      1  O   UNL     1     -10.928 -10.625  17.577  0.00  0.00    -0.275 OA
ATOM      5  N   UNL     1      -8.641 -10.268  17.773  0.00  0.00    -0.301 N 
ATOM      7  C   UNL     1      -6.286 -10.839  17.219  0.00  0.00    +0.016 C 
ATOM      8  C   UNL     1      -6.159 -11.505  18.613  0.00  0.00    +0.006 C 
ATOM      9  C   UNL     1      -7.523 -11.993  19.132  0.00  0.00    +0.023 C 
ATOM     10  C   UNL     1      -7.369  -9.743  17.260  0.00  0.00    +0.112 C 
ATOM     11  C   UNL     1      -8.561 -10.876  19.101  0.00  0.00    +0.108 C 
ATOM     15  C   UNL     1      -9.867 -10.199  17.112  0.00  0.00    +0.220 C 
ENDROOT
BRANCH   7  12
ATOM     12  C   UNL     1      -6.569 -11.825  16.080  0.00  0.00    +0.061 C 
BRANCH  12  14
ATOM      6  N   UNL     1      -4.372 -12.224  15.196  0.00  0.00    -0.287 NA
ATOM     14  C   UNL     1      -5.526 -11.675  15.000  0.00  0.00    +0.044 C 
ATOM     16  C   UNL     1      -5.867 -10.903  13.778  0.00  0.00    -0.001 A 
ATOM     19  C   UNL     1      -4.796 -10.456  12.993  0.00  0.00    -0.033 A 
ATOM     20  C   UNL     1      -3.397 -10.768  13.439  0.00  0.00    +0.059 C 
ATOM     21  C   UNL     1      -3.379 -12.130  14.121  0.00  0.00    +0.146 C 
ATOM     22  C   UNL     1      -7.182 -10.610  13.412  0.00  0.00    +0.013 A 
ATOM     24  C   UNL     1      -5.048  -9.691  11.852  0.00  0.00    +0.050 A 
ATOM     25  C   UNL     1      -7.425  -9.859  12.262  0.00  0.00    +0.046 A 
ATOM     26  C   UNL     1      -6.361  -9.398  11.486  0.00  0.00    +0.120 A 
BRANCH  26   4
ATOM      4  O   UNL     1      -6.607  -8.657  10.369  0.00  0.00    -0.495 OA
ATOM     32  C   UNL     1      -5.476  -8.137   9.674  0.00  0.00    +0.277 C 
ENDBRANCH  26   4
ENDBRANCH  12  14
ENDBRANCH   7  12
BRANCH   8  13
ATOM     13  C   UNL     1      -5.133 -12.636  18.646  0.00  0.00    +0.124 C 
BRANCH  13  17
ATOM      3  O   UNL     1      -3.223 -12.141  20.078  0.00  0.00    -0.251 OA
ATOM     17  C   UNL     1      -3.757 -12.128  18.979  0.00  0.00    +0.305 C 
BRANCH  17   2
ATOM      2  O   UNL     1      -3.167 -11.635  17.859  0.00  0.00    -0.481 OA
ATOM     33  H   UNL     1      -3.770 -11.663  17.085  0.00  0.00    +0.295 HD
ENDBRANCH  17   2
ENDBRANCH  13  17
ENDBRANCH   8  13
BRANCH  15  18
ATOM     18  C   UNL     1      -9.865  -9.562  15.746  0.00  0.00    +0.131 C 
BRANCH  18  23
ATOM     23  C   UNL     1     -10.775  -8.374  15.717  0.00  0.00    -0.039 A 
ATOM     27  C   UNL     1     -10.391  -7.184  16.334  0.00  0.00    +0.004 A 
ATOM     28  C   UNL     1     -12.009  -8.458  15.071  0.00  0.00    +0.004 A 
ATOM     29  C   UNL     1     -11.239  -6.077  16.306  0.00  0.00    +0.000 A 
ATOM     30  C   UNL     1     -12.858  -7.351  15.043  0.00  0.00    +0.000 A 
ATOM     31  C   UNL     1     -12.473  -6.161  15.660  0.00  0.00    +0.000 A 
ENDBRANCH  18  23
ENDBRANCH  15  18
TORSDOF 8
ENDMDL
MODEL 10
REMARK VINA RESULT:      -6.5     27.405     29.695
REMARK  Name = 51136662
REMARK  9 active torsions:
REMARK  status: ('A' for Active; 'I' for Inactive)
REMARK    1  A    between atoms: O_2  and  C_17
REMARK    2  A    between atoms: O_4  and  C_26
REMARK    3  A    between atoms: O_4  and  C_32
REMARK    4  A    between atoms: C_7  and  C_12
REMARK    5  A    between atoms: C_8  and  C_13
REMARK    6  A    between atoms: C_12  and  C_14
REMARK    7  A    between atoms: C_13  and  C_17
REMARK    8  A    between atoms: C_15  and  C_18
REMARK    9  A    between atoms: C_18  and  C_23
REMARK                            x       y       z     vdW  Elec       q    Type
REMARK                         _______ _______ _______ _____ _____    ______ ____
ROOT
ATOM      1  O   UNL     1      -2.195 -10.321  13.996  0.00  0.00    -0.275 OA
ATOM      5  N   UNL     1      -3.852 -11.379  15.234  0.00  0.00    -0.301 N 
ATOM      7  C   UNL     1      -6.190 -11.546  16.059  0.00  0.00    +0.016 C 
ATOM      8  C   UNL     1      -5.704 -11.011  17.430  0.00  0.00    +0.006 C 
ATOM      9  C   UNL     1      -4.441 -10.145  17.284  0.00  0.00    +0.023 C 
ATOM     10  C   UNL     1      -5.029 -12.252  15.333  0.00  0.00    +0.112 C 
ATOM     11  C   UNL     1      -3.350 -10.881  16.514  0.00  0.00    +0.108 C 
ATOM     15  C   UNL     1      -3.199 -11.036  14.050  0.00  0.00    +0.220 C 
ENDROOT
BRANCH   7  12
ATOM     12  C   UNL     1      -6.811 -10.475  15.155  0.00  0.00    +0.061 C 
BRANCH  12  14
ATOM      6  N   UNL     1      -8.517 -11.982  14.390  0.00  0.00    -0.287 NA
ATOM     14  C   UNL     1      -8.256 -10.813  14.876  0.00  0.00    +0.044 C 
ATOM     16  C   UNL     1      -9.297  -9.794  15.163  0.00  0.00    -0.001 A 
ATOM     19  C   UNL     1     -10.543  -9.975  14.549  0.00  0.00    -0.033 A 
ATOM     20  C   UNL     1     -10.737 -11.157  13.646  0.00  0.00    +0.059 C 
ATOM     21  C   UNL     1      -9.925 -12.333  14.176  0.00  0.00    +0.146 C 
ATOM     22  C   UNL     1      -9.069  -8.692  15.988  0.00  0.00    +0.013 A 
ATOM     24  C   UNL     1     -11.553  -9.030  14.746  0.00  0.00    +0.050 A 
ATOM     25  C   UNL     1     -10.088  -7.762  16.192  0.00  0.00    +0.046 A 
ATOM     26  C   UNL     1     -11.326  -7.929  15.570  0.00  0.00    +0.120 A 
BRANCH  26   4
ATOM      4  O   UNL     1     -12.314  -7.011  15.768  0.00  0.00    -0.495 OA
ATOM     32  C   UNL     1     -12.244  -5.808  15.007  0.00  0.00    +0.277 C 
ENDBRANCH  26   4
ENDBRANCH  12  14
ENDBRANCH   7  12
BRANCH   8  13
ATOM     13  C   UNL     1      -6.789 -10.257  18.198  0.00  0.00    +0.124 C 
BRANCH  13  17
ATOM      3  O   UNL     1      -6.039 -11.207  20.314  0.00  0.00    -0.251 OA
ATOM     17  C   UNL     1      -6.933 -10.771  19.605  0.00  0.00    +0.305 C 
BRANCH  17   2
ATOM      2  O   UNL     1      -8.231 -10.685  19.993  0.00  0.00    -0.481 OA
ATOM     33  H   UNL     1      -8.395 -11.168  20.831  0.00  0.00    +0.295 HD
ENDBRANCH  17   2
ENDBRANCH  13  17
ENDBRANCH   8  13
BRANCH  15  18
ATOM     18  C   UNL     1      -3.781 -11.586  12.773  0.00  0.00    +0.131 C 
BRANCH  18  23
ATOM     23  C   UNL     1      -4.074 -10.480  11.808  0.00  0.00    -0.039 A 
ATOM     27  C   UNL     1      -5.213  -9.693  11.972  0.00  0.00    +0.004 A 
ATOM     28  C   UNL     1      -3.207 -10.238  10.742  0.00  0.00    +0.004 A 
ATOM     29  C   UNL     1      -5.486  -8.662  11.072  0.00  0.00    +0.000 A 
ATOM     30  C   UNL     1      -3.480  -9.208   9.841  0.00  0.00    +0.000 A 
ATOM     31  C   UNL     1      -4.619  -8.420  10.007  0.00  0.00    +0.000 A 
ENDBRANCH  18  23
ENDBRANCH  15  18
TORSDOF 8
ENDMDL
