MODEL 1
REMARK VINA RESULT:      -6.5      0.000      0.000
REMARK  Name = 11882468
REMARK  11 active torsions:
REMARK  status: ('A' for Active; 'I' for Inactive)
REMARK    1  A    between atoms: S_1  and  N_10
REMARK    2  A    between atoms: S_1  and  C_24
REMARK    3  A    between atoms: N_10  and  C_15
REMARK    4  A    between atoms: N_11  and  C_23
REMARK    5  A    between atoms: N_12  and  C_31
REMARK    6  A    between atoms: C_17  and  C_20
REMARK    7  A    between atoms: C_21  and  C_22
REMARK    8  A    between atoms: C_23  and  C_25
REMARK    9  A    between atoms: C_23  and  C_27
REMARK   10  A    between atoms: C_25  and  C_30
REMARK   11  A    between atoms: C_28  and  C_34
REMARK                            x       y       z     vdW  Elec       q    Type
REMARK                         _______ _______ _______ _____ _____    ______ ____
ROOT
ATOM      5  O   UNL     1       9.858   8.337   5.592  0.00  0.00    -0.268 OA
ATOM      9  N   UNL     1      12.060   7.613   5.717  0.00  0.00    -0.285 N 
ATOM     15  C   UNL     1      14.906   8.254   5.497  0.00  0.00    +0.080 C 
ATOM     16  C   UNL     1      13.839   9.251   5.041  0.00  0.00    +0.052 C 
ATOM     17  C   UNL     1      12.499   8.592   4.715  0.00  0.00    +0.164 C 
ATOM     18  C   UNL     1      14.363   7.394   6.635  0.00  0.00    +0.039 C 
ATOM     19  C   UNL     1      13.081   6.679   6.226  0.00  0.00    +0.110 C 
ATOM     21  C   UNL     1      10.685   7.538   6.036  0.00  0.00    +0.265 C 
ENDROOT
BRANCH  21  22
ATOM     12  N   UNL     1       9.973   5.189   6.537  0.00  0.00    -0.262 N 
ATOM     13  N   UNL     1       9.598   4.390   7.551  0.00  0.00    -0.176 NA
ATOM     22  C   UNL     1      10.255   6.464   6.924  0.00  0.00    +0.123 A 
ATOM     26  C   UNL     1      10.052   6.506   8.278  0.00  0.00    +0.057 A 
ATOM     28  C   UNL     1       9.648   5.200   8.612  0.00  0.00    +0.061 A 
ATOM     31  C   UNL     1      10.039   4.651   5.199  0.00  0.00    +0.173 C 
ATOM     34  C   UNL     1       9.299   4.680   9.945  0.00  0.00    +0.067 C 
ENDBRANCH  21  22
BRANCH  17  20
ATOM      4  O   UNL     1      13.547   7.337   2.973  0.00  0.00    -0.274 OA
ATOM     11  N   UNL     1      11.302   7.913   2.754  0.00  0.00    -0.302 N 
ATOM     20  C   UNL     1      12.526   7.871   3.399  0.00  0.00    +0.234 C 
ATOM     39  H   UNL     1      10.548   8.455   3.165  0.00  0.00    +0.150 HD
BRANCH  11  23
ATOM     23  C   UNL     1      11.070   7.313   1.460  0.00  0.00    +0.163 C 
BRANCH  23  27
ATOM      8  O   UNL     1       9.897   9.396   1.018  0.00  0.00    -0.274 OA
ATOM     14  N   UNL     1       9.539   7.613  -0.386  0.00  0.00    -0.328 N 
ATOM     27  C   UNL     1      10.109   8.224   0.710  0.00  0.00    +0.231 C 
ATOM     40  H   UNL     1       9.726   6.646  -0.632  0.00  0.00    +0.145 HD
ATOM     41  H   UNL     1       8.891   8.116  -0.984  0.00  0.00    +0.145 HD
ENDBRANCH  23  27
BRANCH  23  25
ATOM     25  C   UNL     1      10.488   5.899   1.571  0.00  0.00    +0.074 C 
BRANCH  25  30
ATOM      3  S   UNL     1      11.755   4.424  -0.388  0.00  0.00    -0.102 S 
ATOM     30  C   UNL     1      11.505   4.831   1.240  0.00  0.00    -0.008 A 
ATOM     35  C   UNL     1      12.275   4.128   2.111  0.00  0.00    +0.011 A 
ATOM     36  C   UNL     1      13.114   3.206   1.419  0.00  0.00    +0.008 A 
ATOM     37  C   UNL     1      12.933   3.264   0.055  0.00  0.00    +0.045 A 
ENDBRANCH  25  30
ENDBRANCH  23  25
ENDBRANCH  11  23
ENDBRANCH  17  20
BRANCH  15  10
ATOM     10  N   UNL     1      16.109   8.943   5.904  0.00  0.00    -0.186 NA
ATOM     38  H   UNL     1      16.398   8.791   6.878  0.00  0.00    +0.148 HD
BRANCH  10   1
ATOM      1  S   UNL     1      17.348   9.140   4.741  0.00  0.00    +0.065 S 
ATOM      6  O   UNL     1      17.523  10.551   4.457  0.00  0.00    -0.153 OA
ATOM      7  O   UNL     1      17.148   8.176   3.677  0.00  0.00    -0.153 OA
BRANCH   1  24
ATOM      2  S   UNL     1      19.916   7.771   4.454  0.00  0.00    -0.077 S 
ATOM     24  C   UNL     1      18.882   8.613   5.506  0.00  0.00    +0.142 A 
ATOM     29  C   UNL     1      19.368   8.760   6.762  0.00  0.00    +0.036 A 
ATOM     32  C   UNL     1      20.653   8.156   6.885  0.00  0.00    +0.010 A 
ATOM     33  C   UNL     1      21.070   7.582   5.704  0.00  0.00    +0.047 A 
ENDBRANCH   1  24
ENDBRANCH  10   1
ENDBRANCH  15  10
TORSDOF 9
ENDMDL
MODEL 2
REMARK VINA RESULT:      -6.3     24.799     29.317
REMARK  Name = 11882468
REMARK  11 active torsions:
REMARK  status: ('A' for Active; 'I' for Inactive)
REMARK    1  A    between atoms: S_1  and  N_10
REMARK    2  A    between atoms: S_1  and  C_24
REMARK    3  A    between atoms: N_10  and  C_15
REMARK    4  A    between atoms: N_11  and  C_23
REMARK    5  A    between atoms: N_12  and  C_31
REMARK    6  A    between atoms: C_17  and  C_20
REMARK    7  A    between atoms: C_21  and  C_22
REMARK    8  A    between atoms: C_23  and  C_25
REMARK    9  A    between atoms: C_23  and  C_27
REMARK   10  A    between atoms: C_25  and  C_30
REMARK   11  A    between atoms: C_28  and  C_34
REMARK                            x       y       z     vdW  Elec       q    Type
REMARK                         _______ _______ _______ _____ _____    ______ ____
ROOT
ATOM      5  O   UNL     1      -6.918  -9.179  11.974  0.00  0.00    -0.268 OA
ATOM      9  N   UNL     1      -7.155 -10.493  13.872  0.00  0.00    -0.285 N 
ATOM     15  C   UNL     1      -6.757 -10.793  16.756  0.00  0.00    +0.080 C 
ATOM     16  C   UNL     1      -6.121  -9.630  15.992  0.00  0.00    +0.052 C 
ATOM     17  C   UNL     1      -5.962  -9.906  14.498  0.00  0.00    +0.164 C 
ATOM     18  C   UNL     1      -8.060 -11.211  16.078  0.00  0.00    +0.039 C 
ATOM     19  C   UNL     1      -7.830 -11.573  14.615  0.00  0.00    +0.110 C 
ATOM     21  C   UNL     1      -7.505 -10.087  12.564  0.00  0.00    +0.265 C 
ENDROOT
BRANCH  21  22
ATOM     12  N   UNL     1      -8.497 -11.964  11.235  0.00  0.00    -0.262 N 
ATOM     13  N   UNL     1      -9.662 -12.402  10.726  0.00  0.00    -0.176 NA
ATOM     22  C   UNL     1      -8.606 -10.788  11.912  0.00  0.00    +0.123 A 
ATOM     26  C   UNL     1      -9.926 -10.429  11.845  0.00  0.00    +0.057 A 
ATOM     28  C   UNL     1     -10.531 -11.460  11.102  0.00  0.00    +0.061 A 
ATOM     31  C   UNL     1      -7.298 -12.741  11.026  0.00  0.00    +0.173 C 
ATOM     34  C   UNL     1     -11.950 -11.583  10.728  0.00  0.00    +0.067 C 
ENDBRANCH  21  22
BRANCH  17  20
ATOM      4  O   UNL     1      -4.937 -12.059  14.354  0.00  0.00    -0.274 OA
ATOM     11  N   UNL     1      -3.685 -10.174  13.803  0.00  0.00    -0.302 N 
ATOM     20  C   UNL     1      -4.826 -10.844  14.210  0.00  0.00    +0.234 C 
ATOM     39  H   UNL     1      -3.686  -9.158  13.798  0.00  0.00    +0.150 HD
BRANCH  11  23
ATOM     23  C   UNL     1      -2.446 -10.847  13.487  0.00  0.00    +0.163 C 
BRANCH  23  27
ATOM      8  O   UNL     1      -1.204 -11.477  15.479  0.00  0.00    -0.274 OA
ATOM     14  N   UNL     1      -0.967  -9.341  14.666  0.00  0.00    -0.328 N 
ATOM     27  C   UNL     1      -1.500 -10.613  14.657  0.00  0.00    +0.231 C 
ATOM     40  H   UNL     1      -1.217  -8.639  13.979  0.00  0.00    +0.145 HD
ATOM     41  H   UNL     1      -0.308  -9.059  15.385  0.00  0.00    +0.145 HD
ENDBRANCH  23  27
BRANCH  23  25
ATOM     25  C   UNL     1      -1.821 -10.333  12.185  0.00  0.00    +0.074 C 
BRANCH  25  30
ATOM      3  S   UNL     1      -3.578 -11.723  10.573  0.00  0.00    -0.102 S 
ATOM     30  C   UNL     1      -2.818 -10.283  11.050  0.00  0.00    -0.008 A 
ATOM     35  C   UNL     1      -3.199  -9.193  10.334  0.00  0.00    +0.011 A 
ATOM     36  C   UNL     1      -4.161  -9.545   9.343  0.00  0.00    +0.008 A 
ATOM     37  C   UNL     1      -4.458 -10.890   9.364  0.00  0.00    +0.045 A 
ENDBRANCH  25  30
ENDBRANCH  23  25
ENDBRANCH  11  23
ENDBRANCH  17  20
BRANCH  15  10
ATOM     10  N   UNL     1      -6.991 -10.432  18.135  0.00  0.00    -0.186 NA
ATOM     38  H   UNL     1      -7.761  -9.772  18.296  0.00  0.00    +0.148 HD
BRANCH  10   1
ATOM      1  S   UNL     1      -6.724 -11.628  19.329  0.00  0.00    +0.065 S 
ATOM      6  O   UNL     1      -6.196 -11.005  20.526  0.00  0.00    -0.153 OA
ATOM      7  O   UNL     1      -6.063 -12.763  18.714  0.00  0.00    -0.153 OA
BRANCH   1  24
ATOM      2  S   UNL     1      -9.585 -11.139  19.686  0.00  0.00    -0.077 S 
ATOM     24  C   UNL     1      -8.329 -12.277  19.796  0.00  0.00    +0.142 A 
ATOM     29  C   UNL     1      -8.725 -13.501  20.220  0.00  0.00    +0.036 A 
ATOM     32  C   UNL     1     -10.128 -13.525  20.472  0.00  0.00    +0.010 A 
ATOM     33  C   UNL     1     -10.719 -12.305  20.222  0.00  0.00    +0.047 A 
ENDBRANCH   1  24
ENDBRANCH  10   1
ENDBRANCH  15  10
TORSDOF 9
ENDMDL
MODEL 3
REMARK VINA RESULT:      -6.3      2.420      3.395
REMARK  Name = 11882468
REMARK  11 active torsions:
REMARK  status: ('A' for Active; 'I' for Inactive)
REMARK    1  A    between atoms: S_1  and  N_10
REMARK    2  A    between atoms: S_1  and  C_24
REMARK    3  A    between atoms: N_10  and  C_15
REMARK    4  A    between atoms: N_11  and  C_23
REMARK    5  A    between atoms: N_12  and  C_31
REMARK    6  A    between atoms: C_17  and  C_20
REMARK    7  A    between atoms: C_21  and  C_22
REMARK    8  A    between atoms: C_23  and  C_25
REMARK    9  A    between atoms: C_23  and  C_27
REMARK   10  A    between atoms: C_25  and  C_30
REMARK   11  A    between atoms: C_28  and  C_34
REMARK                            x       y       z     vdW  Elec       q    Type
REMARK                         _______ _______ _______ _____ _____    ______ ____
ROOT
ATOM      5  O   UNL     1       8.754   6.651   4.473  0.00  0.00    -0.268 OA
ATOM      9  N   UNL     1      11.043   6.855   4.802  0.00  0.00    -0.285 N 
ATOM     15  C   UNL     1      13.592   7.991   3.922  0.00  0.00    +0.080 C 
ATOM     16  C   UNL     1      12.341   8.097   3.047  0.00  0.00    +0.052 C 
ATOM     17  C   UNL     1      11.292   7.033   3.366  0.00  0.00    +0.164 C 
ATOM     18  C   UNL     1      13.195   7.955   5.396  0.00  0.00    +0.039 C 
ATOM     19  C   UNL     1      12.226   6.814   5.681  0.00  0.00    +0.110 C 
ATOM     21  C   UNL     1       9.720   6.609   5.237  0.00  0.00    +0.265 C 
ENDROOT
BRANCH  21  22
ATOM     12  N   UNL     1       9.195   7.192   7.615  0.00  0.00    -0.262 N 
ATOM     13  N   UNL     1       9.067   6.645   8.837  0.00  0.00    -0.176 NA
ATOM     22  C   UNL     1       9.521   6.293   6.646  0.00  0.00    +0.123 A 
ATOM     26  C   UNL     1       9.612   5.076   7.269  0.00  0.00    +0.057 A 
ATOM     28  C   UNL     1       9.323   5.352   8.619  0.00  0.00    +0.061 A 
ATOM     31  C   UNL     1       8.987   8.612   7.451  0.00  0.00    +0.173 C 
ATOM     34  C   UNL     1       9.280   4.400   9.742  0.00  0.00    +0.067 C 
ENDBRANCH  21  22
BRANCH  17  20
ATOM      4  O   UNL     1      11.245   4.645   3.329  0.00  0.00    -0.274 OA
ATOM     11  N   UNL     1      12.545   5.771   1.760  0.00  0.00    -0.302 N 
ATOM     20  C   UNL     1      11.671   5.683   2.829  0.00  0.00    +0.234 C 
ATOM     39  H   UNL     1      12.894   6.684   1.484  0.00  0.00    +0.150 HD
BRANCH  11  23
ATOM     23  C   UNL     1      13.079   4.613   1.079  0.00  0.00    +0.163 C 
BRANCH  23  27
ATOM      8  O   UNL     1      14.792   3.085   1.877  0.00  0.00    -0.274 OA
ATOM     14  N   UNL     1      15.055   5.333   2.270  0.00  0.00    -0.328 N 
ATOM     27  C   UNL     1      14.373   4.237   1.786  0.00  0.00    +0.231 C 
ATOM     40  H   UNL     1      14.700   6.279   2.185  0.00  0.00    +0.145 HD
ATOM     41  H   UNL     1      15.943   5.223   2.749  0.00  0.00    +0.145 HD
ENDBRANCH  23  27
BRANCH  23  25
ATOM     25  C   UNL     1      13.341   4.883  -0.407  0.00  0.00    +0.074 C 
BRANCH  25  30
ATOM      3  S   UNL     1      11.174   4.831  -2.115  0.00  0.00    -0.102 S 
ATOM     30  C   UNL     1      12.450   4.058  -1.306  0.00  0.00    -0.008 A 
ATOM     35  C   UNL     1      12.539   2.727  -1.562  0.00  0.00    +0.011 A 
ATOM     36  C   UNL     1      11.517   2.310  -2.462  0.00  0.00    +0.008 A 
ATOM     37  C   UNL     1      10.705   3.355  -2.843  0.00  0.00    +0.045 A 
ENDBRANCH  25  30
ENDBRANCH  23  25
ENDBRANCH  11  23
ENDBRANCH  17  20
BRANCH  15  10
ATOM     10  N   UNL     1      14.493   9.090   3.661  0.00  0.00    -0.186 NA
ATOM     38  H   UNL     1      14.262   9.973   4.132  0.00  0.00    +0.148 HD
BRANCH  10   1
ATOM      1  S   UNL     1      16.151   8.727   3.447  0.00  0.00    +0.065 S 
ATOM      6  O   UNL     1      16.515   8.938   2.059  0.00  0.00    -0.153 OA
ATOM      7  O   UNL     1      16.448   7.480   4.124  0.00  0.00    -0.153 OA
BRANCH   1  24
ATOM      2  S   UNL     1      16.549  10.140   5.976  0.00  0.00    -0.077 S 
ATOM     24  C   UNL     1      17.084   9.945   4.375  0.00  0.00    +0.142 A 
ATOM     29  C   UNL     1      18.132  10.735   4.040  0.00  0.00    +0.036 A 
ATOM     32  C   UNL     1      18.529  11.549   5.140  0.00  0.00    +0.010 A 
ATOM     33  C   UNL     1      17.752  11.327   6.256  0.00  0.00    +0.047 A 
ENDBRANCH   1  24
ENDBRANCH  10   1
ENDBRANCH  15  10
TORSDOF 9
ENDMDL
MODEL 4
REMARK VINA RESULT:      -6.2     15.172     17.755
REMARK  Name = 11882468
REMARK  11 active torsions:
REMARK  status: ('A' for Active; 'I' for Inactive)
REMARK    1  A    between atoms: S_1  and  N_10
REMARK    2  A    between atoms: S_1  and  C_24
REMARK    3  A    between atoms: N_10  and  C_15
REMARK    4  A    between atoms: N_11  and  C_23
REMARK    5  A    between atoms: N_12  and  C_31
REMARK    6  A    between atoms: C_17  and  C_20
REMARK    7  A    between atoms: C_21  and  C_22
REMARK    8  A    between atoms: C_23  and  C_25
REMARK    9  A    between atoms: C_23  and  C_27
REMARK   10  A    between atoms: C_25  and  C_30
REMARK   11  A    between atoms: C_28  and  C_34
REMARK                            x       y       z     vdW  Elec       q    Type
REMARK                         _______ _______ _______ _____ _____    ______ ____
ROOT
ATOM      5  O   UNL     1      12.068  12.147  20.744  0.00  0.00    -0.268 OA
ATOM      9  N   UNL     1      13.876  11.359  21.969  0.00  0.00    -0.285 N 
ATOM     15  C   UNL     1      16.737  10.754  22.073  0.00  0.00    +0.080 C 
ATOM     16  C   UNL     1      16.056  11.104  20.748  0.00  0.00    +0.052 C 
ATOM     17  C   UNL     1      14.548  10.857  20.763  0.00  0.00    +0.164 C 
ATOM     18  C   UNL     1      16.022  11.453  23.226  0.00  0.00    +0.039 C 
ATOM     19  C   UNL     1      14.541  11.095  23.258  0.00  0.00    +0.110 C 
ATOM     21  C   UNL     1      12.594  11.941  21.839  0.00  0.00    +0.265 C 
ENDROOT
BRANCH  21  22
ATOM     12  N   UNL     1      11.073  11.470  23.772  0.00  0.00    -0.262 N 
ATOM     13  N   UNL     1      10.542  12.042  24.867  0.00  0.00    -0.176 NA
ATOM     22  C   UNL     1      11.888  12.299  23.064  0.00  0.00    +0.123 A 
ATOM     26  C   UNL     1      11.896  13.493  23.736  0.00  0.00    +0.057 A 
ATOM     28  C   UNL     1      11.049  13.278  24.839  0.00  0.00    +0.061 A 
ATOM     31  C   UNL     1      10.745  10.098  23.463  0.00  0.00    +0.173 C 
ATOM     34  C   UNL     1      10.695  14.237  25.900  0.00  0.00    +0.067 C 
ENDBRANCH  21  22
BRANCH  17  20
ATOM      4  O   UNL     1      13.273   8.906  21.289  0.00  0.00    -0.274 OA
ATOM     11  N   UNL     1      15.076   8.716  19.827  0.00  0.00    -0.302 N 
ATOM     20  C   UNL     1      14.209   9.398  20.663  0.00  0.00    +0.234 C 
ATOM     39  H   UNL     1      15.866   9.212  19.426  0.00  0.00    +0.150 HD
BRANCH  11  23
ATOM     23  C   UNL     1      14.979   7.295  19.580  0.00  0.00    +0.163 C 
BRANCH  23  27
ATOM      8  O   UNL     1      17.142   6.212  19.341  0.00  0.00    -0.274 OA
ATOM     14  N   UNL     1      16.386   6.705  21.454  0.00  0.00    -0.328 N 
ATOM     27  C   UNL     1      16.271   6.665  20.081  0.00  0.00    +0.231 C 
ATOM     40  H   UNL     1      15.661   7.085  22.053  0.00  0.00    +0.145 HD
ATOM     41  H   UNL     1      17.209   6.332  21.918  0.00  0.00    +0.145 HD
ENDBRANCH  23  27
BRANCH  23  25
ATOM     25  C   UNL     1      14.771   6.976  18.095  0.00  0.00    +0.074 C 
BRANCH  25  30
ATOM      3  S   UNL     1      13.918   8.805  16.212  0.00  0.00    -0.102 S 
ATOM     30  C   UNL     1      13.612   7.743  17.500  0.00  0.00    -0.008 A 
ATOM     35  C   UNL     1      12.308   7.692  17.876  0.00  0.00    +0.011 A 
ATOM     36  C   UNL     1      11.511   8.562  17.077  0.00  0.00    +0.008 A 
ATOM     37  C   UNL     1      12.261   9.228  16.132  0.00  0.00    +0.045 A 
ENDBRANCH  25  30
ENDBRANCH  23  25
ENDBRANCH  11  23
ENDBRANCH  17  20
BRANCH  15  10
ATOM     10  N   UNL     1      18.135  11.118  22.041  0.00  0.00    -0.186 NA
ATOM     38  H   UNL     1      18.434  11.788  22.759  0.00  0.00    +0.148 HD
BRANCH  10   1
ATOM      1  S   UNL     1      19.261   9.919  21.571  0.00  0.00    +0.065 S 
ATOM      6  O   UNL     1      20.392  10.549  20.919  0.00  0.00    -0.153 OA
ATOM      7  O   UNL     1      18.544   8.824  20.947  0.00  0.00    -0.153 OA
BRANCH   1  24
ATOM      2  S   UNL     1      20.072   7.502  23.002  0.00  0.00    -0.077 S 
ATOM     24  C   UNL     1      19.918   9.192  23.073  0.00  0.00    +0.142 A 
ATOM     29  C   UNL     1      20.313   9.736  24.248  0.00  0.00    +0.036 A 
ATOM     32  C   UNL     1      20.768   8.731  25.149  0.00  0.00    +0.010 A 
ATOM     33  C   UNL     1      20.691   7.470  24.598  0.00  0.00    +0.047 A 
ENDBRANCH   1  24
ENDBRANCH  10   1
ENDBRANCH  15  10
TORSDOF 9
ENDMDL
MODEL 5
REMARK VINA RESULT:      -6.1      4.053      6.086
REMARK  Name = 11882468
REMARK  11 active torsions:
REMARK  status: ('A' for Active; 'I' for Inactive)
REMARK    1  A    between atoms: S_1  and  N_10
REMARK    2  A    between atoms: S_1  and  C_24
REMARK    3  A    between atoms: N_10  and  C_15
REMARK    4  A    between atoms: N_11  and  C_23
REMARK    5  A    between atoms: N_12  and  C_31
REMARK    6  A    between atoms: C_17  and  C_20
REMARK    7  A    between atoms: C_21  and  C_22
REMARK    8  A    between atoms: C_23  and  C_25
REMARK    9  A    between atoms: C_23  and  C_27
REMARK   10  A    between atoms: C_25  and  C_30
REMARK   11  A    between atoms: C_28  and  C_34
REMARK                            x       y       z     vdW  Elec       q    Type
REMARK                         _______ _______ _______ _____ _____    ______ ____
ROOT
ATOM      5  O   UNL     1      12.236   7.902   6.534  0.00  0.00    -0.268 OA
ATOM      9  N   UNL     1      11.201   6.510   4.991  0.00  0.00    -0.285 N 
ATOM     15  C   UNL     1      11.350   5.067   2.449  0.00  0.00    +0.080 C 
ATOM     16  C   UNL     1      12.426   6.083   2.840  0.00  0.00    +0.052 C 
ATOM     17  C   UNL     1      11.945   7.103   3.871  0.00  0.00    +0.164 C 
ATOM     18  C   UNL     1      10.759   4.426   3.702  0.00  0.00    +0.039 C 
ATOM     19  C   UNL     1      10.202   5.480   4.652  0.00  0.00    +0.110 C 
ATOM     21  C   UNL     1      11.389   7.040   6.287  0.00  0.00    +0.265 C 
ENDROOT
BRANCH  21  22
ATOM     12  N   UNL     1       9.420   7.152   7.831  0.00  0.00    -0.262 N 
ATOM     13  N   UNL     1       8.808   6.475   8.819  0.00  0.00    -0.176 NA
ATOM     22  C   UNL     1      10.535   6.532   7.355  0.00  0.00    +0.123 A 
ATOM     26  C   UNL     1      10.665   5.374   8.074  0.00  0.00    +0.057 A 
ATOM     28  C   UNL     1       9.574   5.390   8.963  0.00  0.00    +0.061 A 
ATOM     31  C   UNL     1       8.868   8.411   7.389  0.00  0.00    +0.173 C 
ATOM     34  C   UNL     1       9.223   4.377   9.973  0.00  0.00    +0.067 C 
ENDBRANCH  21  22
BRANCH  17  20
ATOM      4  O   UNL     1      10.927   8.267   2.051  0.00  0.00    -0.274 OA
ATOM     11  N   UNL     1      10.422   8.918   4.228  0.00  0.00    -0.302 N 
ATOM     20  C   UNL     1      11.046   8.142   3.267  0.00  0.00    +0.234 C 
ATOM     39  H   UNL     1      10.660   8.776   5.206  0.00  0.00    +0.150 HD
BRANCH  11  23
ATOM     23  C   UNL     1       9.524  10.003   3.906  0.00  0.00    +0.163 C 
BRANCH  23  27
ATOM      8  O   UNL     1      11.056  11.629   4.864  0.00  0.00    -0.274 OA
ATOM     14  N   UNL     1       8.837  11.731   5.450  0.00  0.00    -0.328 N 
ATOM     27  C   UNL     1       9.914  11.182   4.787  0.00  0.00    +0.231 C 
ATOM     40  H   UNL     1       7.898  11.356   5.374  0.00  0.00    +0.145 HD
ATOM     41  H   UNL     1       8.956  12.535   6.058  0.00  0.00    +0.145 HD
ENDBRANCH  23  27
BRANCH  23  25
ATOM     25  C   UNL     1       8.055   9.629   4.135  0.00  0.00    +0.074 C 
BRANCH  25  30
ATOM      3  S   UNL     1       5.623  10.224   2.973  0.00  0.00    -0.102 S 
ATOM     30  C   UNL     1       7.237   9.711   2.867  0.00  0.00    -0.008 A 
ATOM     35  C   UNL     1       7.641   9.416   1.604  0.00  0.00    +0.011 A 
ATOM     36  C   UNL     1       6.584   9.616   0.669  0.00  0.00    +0.008 A 
ATOM     37  C   UNL     1       5.430  10.055   1.280  0.00  0.00    +0.045 A 
ENDBRANCH  25  30
ENDBRANCH  23  25
ENDBRANCH  11  23
ENDBRANCH  17  20
BRANCH  15  10
ATOM     10  N   UNL     1      11.894   4.061   1.566  0.00  0.00    -0.186 NA
ATOM     38  H   UNL     1      11.648   3.091   1.797  0.00  0.00    +0.148 HD
BRANCH  10   1
ATOM      1  S   UNL     1      12.052   4.455  -0.091  0.00  0.00    +0.065 S 
ATOM      6  O   UNL     1      11.663   5.836  -0.298  0.00  0.00    -0.153 OA
ATOM      7  O   UNL     1      11.480   3.383  -0.882  0.00  0.00    -0.153 OA
BRANCH   1  24
ATOM      2  S   UNL     1      14.782   3.945   0.827  0.00  0.00    -0.077 S 
ATOM     24  C   UNL     1      13.800   4.385  -0.487  0.00  0.00    +0.142 A 
ATOM     29  C   UNL     1      14.480   4.618  -1.635  0.00  0.00    +0.036 A 
ATOM     32  C   UNL     1      15.880   4.430  -1.445  0.00  0.00    +0.010 A 
ATOM     33  C   UNL     1      16.182   4.063  -0.152  0.00  0.00    +0.047 A 
ENDBRANCH   1  24
ENDBRANCH  10   1
ENDBRANCH  15  10
TORSDOF 9
ENDMDL
MODEL 6
REMARK VINA RESULT:      -6.0      1.797      2.227
REMARK  Name = 11882468
REMARK  11 active torsions:
REMARK  status: ('A' for Active; 'I' for Inactive)
REMARK    1  A    between atoms: S_1  and  N_10
REMARK    2  A    between atoms: S_1  and  C_24
REMARK    3  A    between atoms: N_10  and  C_15
REMARK    4  A    between atoms: N_11  and  C_23
REMARK    5  A    between atoms: N_12  and  C_31
REMARK    6  A    between atoms: C_17  and  C_20
REMARK    7  A    between atoms: C_21  and  C_22
REMARK    8  A    between atoms: C_23  and  C_25
REMARK    9  A    between atoms: C_23  and  C_27
REMARK   10  A    between atoms: C_25  and  C_30
REMARK   11  A    between atoms: C_28  and  C_34
REMARK                            x       y       z     vdW  Elec       q    Type
REMARK                         _______ _______ _______ _____ _____    ______ ____
ROOT
ATOM      5  O   UNL     1       9.252   8.137   5.612  0.00  0.00    -0.268 OA
ATOM      9  N   UNL     1      11.545   7.852   5.830  0.00  0.00    -0.285 N 
ATOM     15  C   UNL     1      14.222   9.026   5.693  0.00  0.00    +0.080 C 
ATOM     16  C   UNL     1      13.002   9.791   5.178  0.00  0.00    +0.052 C 
ATOM     17  C   UNL     1      11.827   8.882   4.821  0.00  0.00    +0.164 C 
ATOM     18  C   UNL     1      13.811   8.095   6.831  0.00  0.00    +0.039 C 
ATOM     19  C   UNL     1      12.706   7.140   6.394  0.00  0.00    +0.110 C 
ATOM     21  C   UNL     1      10.199   7.519   6.102  0.00  0.00    +0.265 C 
ENDROOT
BRANCH  21  22
ATOM     12  N   UNL     1       9.861   5.092   6.619  0.00  0.00    -0.262 N 
ATOM     13  N   UNL     1       9.624   4.249   7.640  0.00  0.00    -0.176 NA
ATOM     22  C   UNL     1       9.949   6.396   6.999  0.00  0.00    +0.123 A 
ATOM     26  C   UNL     1       9.759   6.413   8.355  0.00  0.00    +0.057 A 
ATOM     28  C   UNL     1       9.564   5.062   8.698  0.00  0.00    +0.061 A 
ATOM     31  C   UNL     1       9.991   4.564   5.282  0.00  0.00    +0.173 C 
ATOM     34  C   UNL     1       9.314   4.502  10.037  0.00  0.00    +0.067 C 
ENDBRANCH  21  22
BRANCH  17  20
ATOM      4  O   UNL     1      13.166   7.878   3.117  0.00  0.00    -0.274 OA
ATOM     11  N   UNL     1      10.850   7.891   2.871  0.00  0.00    -0.302 N 
ATOM     20  C   UNL     1      12.041   8.159   3.523  0.00  0.00    +0.234 C 
ATOM     39  H   UNL     1       9.983   8.244   3.264  0.00  0.00    +0.150 HD
BRANCH  11  23
ATOM     23  C   UNL     1      10.785   7.224   1.590  0.00  0.00    +0.163 C 
BRANCH  23  27
ATOM      8  O   UNL     1       9.999   8.199  -0.493  0.00  0.00    -0.274 OA
ATOM     14  N   UNL     1       8.748   8.513   1.408  0.00  0.00    -0.328 N 
ATOM     27  C   UNL     1       9.838   8.031   0.714  0.00  0.00    +0.231 C 
ATOM     40  H   UNL     1       8.625   8.364   2.404  0.00  0.00    +0.145 HD
ATOM     41  H   UNL     1       8.030   9.054   0.938  0.00  0.00    +0.145 HD
ENDBRANCH  23  27
BRANCH  23  25
ATOM     25  C   UNL     1      10.294   5.776   1.713  0.00  0.00    +0.074 C 
BRANCH  25  30
ATOM      3  S   UNL     1      11.877   4.647  -0.246  0.00  0.00    -0.102 S 
ATOM     30  C   UNL     1      11.372   4.774   1.369  0.00  0.00    -0.008 A 
ATOM     35  C   UNL     1      12.013   3.928   2.217  0.00  0.00    +0.011 A 
ATOM     36  C   UNL     1      12.967   3.132   1.518  0.00  0.00    +0.008 A 
ATOM     37  C   UNL     1      12.996   3.422   0.172  0.00  0.00    +0.045 A 
ENDBRANCH  25  30
ENDBRANCH  23  25
ENDBRANCH  11  23
ENDBRANCH  17  20
BRANCH  15  10
ATOM     10  N   UNL     1      15.254   9.939   6.126  0.00  0.00    -0.186 NA
ATOM     38  H   UNL     1      15.209  10.223   7.112  0.00  0.00    +0.148 HD
BRANCH  10   1
ATOM      1  S   UNL     1      16.808   9.775   5.429  0.00  0.00    +0.065 S 
ATOM      6  O   UNL     1      17.506   8.673   6.060  0.00  0.00    -0.153 OA
ATOM      7  O   UNL     1      17.413  11.089   5.322  0.00  0.00    -0.153 OA
BRANCH   1  24
ATOM      2  S   UNL     1      16.037  10.534   2.712  0.00  0.00    -0.077 S 
ATOM     24  C   UNL     1      16.574   9.278   3.722  0.00  0.00    +0.142 A 
ATOM     29  C   UNL     1      16.744   8.093   3.090  0.00  0.00    +0.036 A 
ATOM     32  C   UNL     1      16.422   8.201   1.706  0.00  0.00    +0.010 A 
ATOM     33  C   UNL     1      16.023   9.475   1.366  0.00  0.00    +0.047 A 
ENDBRANCH   1  24
ENDBRANCH  10   1
ENDBRANCH  15  10
TORSDOF 9
ENDMDL
MODEL 7
REMARK VINA RESULT:      -6.0     25.752     28.726
REMARK  Name = 11882468
REMARK  11 active torsions:
REMARK  status: ('A' for Active; 'I' for Inactive)
REMARK    1  A    between atoms: S_1  and  N_10
REMARK    2  A    between atoms: S_1  and  C_24
REMARK    3  A    between atoms: N_10  and  C_15
REMARK    4  A    between atoms: N_11  and  C_23
REMARK    5  A    between atoms: N_12  and  C_31
REMARK    6  A    between atoms: C_17  and  C_20
REMARK    7  A    between atoms: C_21  and  C_22
REMARK    8  A    between atoms: C_23  and  C_25
REMARK    9  A    between atoms: C_23  and  C_27
REMARK   10  A    between atoms: C_25  and  C_30
REMARK   11  A    between atoms: C_28  and  C_34
REMARK                            x       y       z     vdW  Elec       q    Type
REMARK                         _______ _______ _______ _____ _____    ______ ____
ROOT
ATOM      5  O   UNL     1      -7.739 -13.905  16.896  0.00  0.00    -0.268 OA
ATOM      9  N   UNL     1      -6.975 -11.929  15.947  0.00  0.00    -0.285 N 
ATOM     15  C   UNL     1      -6.036 -10.513  13.565  0.00  0.00    +0.080 C 
ATOM     16  C   UNL     1      -6.208 -12.034  13.558  0.00  0.00    +0.052 C 
ATOM     17  C   UNL     1      -6.166 -12.650  14.955  0.00  0.00    +0.164 C 
ATOM     18  C   UNL     1      -7.032  -9.881  14.533  0.00  0.00    +0.039 C 
ATOM     19  C   UNL     1      -6.881 -10.458  15.937  0.00  0.00    +0.110 C 
ATOM     21  C   UNL     1      -7.682 -12.674  16.918  0.00  0.00    +0.265 C 
ENDROOT
BRANCH  21  22
ATOM     12  N   UNL     1      -7.782 -11.518  19.138  0.00  0.00    -0.262 N 
ATOM     13  N   UNL     1      -8.623 -10.852  19.949  0.00  0.00    -0.176 NA
ATOM     22  C   UNL     1      -8.359 -11.933  17.977  0.00  0.00    +0.123 A 
ATOM     26  C   UNL     1      -9.662 -11.515  18.026  0.00  0.00    +0.057 A 
ATOM     28  C   UNL     1      -9.770 -10.854  19.264  0.00  0.00    +0.061 A 
ATOM     31  C   UNL     1      -6.414 -11.721  19.552  0.00  0.00    +0.173 C 
ATOM     34  C   UNL     1     -10.962 -10.204  19.834  0.00  0.00    +0.067 C 
ENDBRANCH  21  22
BRANCH  17  20
ATOM      4  O   UNL     1      -4.555 -12.974  16.689  0.00  0.00    -0.274 OA
ATOM     11  N   UNL     1      -3.816 -12.425  14.550  0.00  0.00    -0.302 N 
ATOM     20  C   UNL     1      -4.772 -12.713  15.508  0.00  0.00    +0.234 C 
ATOM     39  H   UNL     1      -4.118 -12.143  13.622  0.00  0.00    +0.150 HD
BRANCH  11  23
ATOM     23  C   UNL     1      -2.399 -12.396  14.833  0.00  0.00    +0.163 C 
BRANCH  23  27
ATOM      8  O   UNL     1      -1.907 -10.718  16.522  0.00  0.00    -0.274 OA
ATOM     14  N   UNL     1      -1.927 -10.083  14.314  0.00  0.00    -0.328 N 
ATOM     27  C   UNL     1      -2.072 -10.998  15.336  0.00  0.00    +0.231 C 
ATOM     40  H   UNL     1      -2.062 -10.327  13.339  0.00  0.00    +0.145 HD
ATOM     41  H   UNL     1      -1.692  -9.115  14.511  0.00  0.00    +0.145 HD
ENDBRANCH  23  27
BRANCH  23  25
ATOM     25  C   UNL     1      -1.553 -12.731  13.599  0.00  0.00    +0.074 C 
BRANCH  25  30
ATOM      3  S   UNL     1      -1.417 -15.487  13.652  0.00  0.00    -0.102 S 
ATOM     30  C   UNL     1      -1.962 -14.037  12.959  0.00  0.00    -0.008 A 
ATOM     35  C   UNL     1      -2.740 -14.209  11.859  0.00  0.00    +0.011 A 
ATOM     36  C   UNL     1      -2.903 -15.593  11.560  0.00  0.00    +0.008 A 
ATOM     37  C   UNL     1      -2.236 -16.398  12.456  0.00  0.00    +0.045 A 
ENDBRANCH  25  30
ENDBRANCH  23  25
ENDBRANCH  11  23
ENDBRANCH  17  20
BRANCH  15  10
ATOM     10  N   UNL     1      -6.202  -9.974  12.235  0.00  0.00    -0.186 NA
ATOM     38  H   UNL     1      -7.009  -9.352  12.107  0.00  0.00    +0.148 HD
BRANCH  10   1
ATOM      1  S   UNL     1      -4.791  -9.619  11.336  0.00  0.00    +0.065 S 
ATOM      6  O   UNL     1      -3.624 -10.047  12.081  0.00  0.00    -0.153 OA
ATOM      7  O   UNL     1      -4.899  -8.272  10.810  0.00  0.00    -0.153 OA
BRANCH   1  24
ATOM      2  S   UNL     1      -5.544  -9.900   8.524  0.00  0.00    -0.077 S 
ATOM     24  C   UNL     1      -4.825 -10.649   9.868  0.00  0.00    +0.142 A 
ATOM     29  C   UNL     1      -4.385 -11.908   9.632  0.00  0.00    +0.036 A 
ATOM     32  C   UNL     1      -4.644 -12.295   8.285  0.00  0.00    +0.010 A 
ATOM     33  C   UNL     1      -5.270 -11.297   7.572  0.00  0.00    +0.047 A 
ENDBRANCH   1  24
ENDBRANCH  10   1
ENDBRANCH  15  10
TORSDOF 9
ENDMDL
MODEL 8
REMARK VINA RESULT:      -6.0     25.211     26.930
REMARK  Name = 11882468
REMARK  11 active torsions:
REMARK  status: ('A' for Active; 'I' for Inactive)
REMARK    1  A    between atoms: S_1  and  N_10
REMARK    2  A    between atoms: S_1  and  C_24
REMARK    3  A    between atoms: N_10  and  C_15
REMARK    4  A    between atoms: N_11  and  C_23
REMARK    5  A    between atoms: N_12  and  C_31
REMARK    6  A    between atoms: C_17  and  C_20
REMARK    7  A    between atoms: C_21  and  C_22
REMARK    8  A    between atoms: C_23  and  C_25
REMARK    9  A    between atoms: C_23  and  C_27
REMARK   10  A    between atoms: C_25  and  C_30
REMARK   11  A    between atoms: C_28  and  C_34
REMARK                            x       y       z     vdW  Elec       q    Type
REMARK                         _______ _______ _______ _____ _____    ______ ____
ROOT
ATOM      5  O   UNL     1      -4.137  -8.479  10.475  0.00  0.00    -0.268 OA
ATOM      9  N   UNL     1      -4.988 -10.545   9.843  0.00  0.00    -0.285 N 
ATOM     15  C   UNL     1      -5.327 -12.561   7.749  0.00  0.00    +0.080 C 
ATOM     16  C   UNL     1      -4.777 -11.171   7.420  0.00  0.00    +0.052 C 
ATOM     17  C   UNL     1      -5.162 -10.111   8.450  0.00  0.00    +0.164 C 
ATOM     18  C   UNL     1      -4.954 -12.944   9.179  0.00  0.00    +0.039 C 
ATOM     19  C   UNL     1      -5.450 -11.904  10.178  0.00  0.00    +0.110 C 
ATOM     21  C   UNL     1      -4.515  -9.609  10.791  0.00  0.00    +0.265 C 
ENDROOT
BRANCH  21  22
ATOM     12  N   UNL     1      -5.544  -9.961  13.048  0.00  0.00    -0.262 N 
ATOM     13  N   UNL     1      -5.258 -10.402  14.285  0.00  0.00    -0.176 NA
ATOM     22  C   UNL     1      -4.488 -10.020  12.190  0.00  0.00    +0.123 A 
ATOM     26  C   UNL     1      -3.440 -10.533  12.908  0.00  0.00    +0.057 A 
ATOM     28  C   UNL     1      -3.971 -10.750  14.194  0.00  0.00    +0.061 A 
ATOM     31  C   UNL     1      -6.877  -9.489  12.756  0.00  0.00    +0.173 C 
ATOM     34  C   UNL     1      -3.276 -11.294  15.373  0.00  0.00    +0.067 C 
ENDBRANCH  21  22
BRANCH  17  20
ATOM      4  O   UNL     1      -7.521 -10.379   8.719  0.00  0.00    -0.274 OA
ATOM     11  N   UNL     1      -6.715  -8.458   7.679  0.00  0.00    -0.302 N 
ATOM     20  C   UNL     1      -6.594  -9.681   8.315  0.00  0.00    +0.234 C 
ATOM     39  H   UNL     1      -5.881  -8.008   7.315  0.00  0.00    +0.150 HD
BRANCH  11  23
ATOM     23  C   UNL     1      -7.989  -7.833   7.406  0.00  0.00    +0.163 C 
BRANCH  23  27
ATOM      8  O   UNL     1      -9.367  -8.211   5.440  0.00  0.00    -0.274 OA
ATOM     14  N   UNL     1      -7.123  -7.816   5.150  0.00  0.00    -0.328 N 
ATOM     27  C   UNL     1      -8.255  -7.993   5.916  0.00  0.00    +0.231 C 
ATOM     40  H   UNL     1      -6.211  -7.633   5.556  0.00  0.00    +0.145 HD
ATOM     41  H   UNL     1      -7.164  -7.880   4.138  0.00  0.00    +0.145 HD
ENDBRANCH  23  27
BRANCH  23  25
ATOM     25  C   UNL     1      -8.005  -6.350   7.794  0.00  0.00    +0.074 C 
BRANCH  25  30
ATOM      3  S   UNL     1     -10.328  -7.170   9.039  0.00  0.00    -0.102 S 
ATOM     30  C   UNL     1      -9.292  -5.949   8.478  0.00  0.00    -0.008 A 
ATOM     35  C   UNL     1      -9.744  -4.689   8.712  0.00  0.00    +0.011 A 
ATOM     36  C   UNL     1     -11.002  -4.715   9.381  0.00  0.00    +0.008 A 
ATOM     37  C   UNL     1     -11.434  -6.000   9.621  0.00  0.00    +0.045 A 
ENDBRANCH  25  30
ENDBRANCH  23  25
ENDBRANCH  11  23
ENDBRANCH  17  20
BRANCH  15  10
ATOM     10  N   UNL     1      -4.835 -13.542   6.811  0.00  0.00    -0.186 NA
ATOM     38  H   UNL     1      -4.378 -14.363   7.227  0.00  0.00    +0.148 HD
BRANCH  10   1
ATOM      1  S   UNL     1      -5.727 -13.789   5.373  0.00  0.00    +0.065 S 
ATOM      6  O   UNL     1      -6.821 -12.839   5.314  0.00  0.00    -0.153 OA
ATOM      7  O   UNL     1      -5.953 -15.211   5.202  0.00  0.00    -0.153 OA
BRANCH   1  24
ATOM      2  S   UNL     1      -3.080 -12.928   4.476  0.00  0.00    -0.077 S 
ATOM     24  C   UNL     1      -4.652 -13.365   4.002  0.00  0.00    +0.142 A 
ATOM     29  C   UNL     1      -4.858 -13.327   2.664  0.00  0.00    +0.036 A 
ATOM     32  C   UNL     1      -3.677 -12.921   1.977  0.00  0.00    +0.010 A 
ATOM     33  C   UNL     1      -2.635 -12.672   2.843  0.00  0.00    +0.047 A 
ENDBRANCH   1  24
ENDBRANCH  10   1
ENDBRANCH  15  10
TORSDOF 9
ENDMDL
MODEL 9
REMARK VINA RESULT:      -6.0     25.011     28.894
REMARK  Name = 11882468
REMARK  11 active torsions:
REMARK  status: ('A' for Active; 'I' for Inactive)
REMARK    1  A    between atoms: S_1  and  N_10
REMARK    2  A    between atoms: S_1  and  C_24
REMARK    3  A    between atoms: N_10  and  C_15
REMARK    4  A    between atoms: N_11  and  C_23
REMARK    5  A    between atoms: N_12  and  C_31
REMARK    6  A    between atoms: C_17  and  C_20
REMARK    7  A    between atoms: C_21  and  C_22
REMARK    8  A    between atoms: C_23  and  C_25
REMARK    9  A    between atoms: C_23  and  C_27
REMARK   10  A    between atoms: C_25  and  C_30
REMARK   11  A    between atoms: C_28  and  C_34
REMARK                            x       y       z     vdW  Elec       q    Type
REMARK                         _______ _______ _______ _____ _____    ______ ____
ROOT
ATOM      5  O   UNL     1      -6.587  -9.065  11.633  0.00  0.00    -0.268 OA
ATOM      9  N   UNL     1      -7.410 -10.478  13.280  0.00  0.00    -0.285 N 
ATOM     15  C   UNL     1      -7.981 -10.929  16.115  0.00  0.00    +0.080 C 
ATOM     16  C   UNL     1      -7.153  -9.724  15.662  0.00  0.00    +0.052 C 
ATOM     17  C   UNL     1      -6.504  -9.920  14.293  0.00  0.00    +0.164 C 
ATOM     18  C   UNL     1      -8.977 -11.316  15.024  0.00  0.00    +0.039 C 
ATOM     19  C   UNL     1      -8.269 -11.599  13.704  0.00  0.00    +0.110 C 
ATOM     21  C   UNL     1      -7.317 -10.006  11.951  0.00  0.00    +0.265 C 
ENDROOT
BRANCH  21  22
ATOM     12  N   UNL     1      -9.419 -10.377  10.641  0.00  0.00    -0.262 N 
ATOM     13  N   UNL     1      -9.938 -11.143   9.665  0.00  0.00    -0.176 NA
ATOM     22  C   UNL     1      -8.124 -10.676  10.938  0.00  0.00    +0.123 A 
ATOM     26  C   UNL     1      -7.768 -11.703  10.105  0.00  0.00    +0.057 A 
ATOM     28  C   UNL     1      -8.924 -11.951   9.342  0.00  0.00    +0.061 A 
ATOM     31  C   UNL     1     -10.241  -9.360  11.253  0.00  0.00    +0.173 C 
ATOM     34  C   UNL     1      -9.103 -12.960   8.284  0.00  0.00    +0.067 C 
ENDBRANCH  21  22
BRANCH  17  20
ATOM      4  O   UNL     1      -5.414 -11.999  14.736  0.00  0.00    -0.274 OA
ATOM     11  N   UNL     1      -4.149 -10.206  13.957  0.00  0.00    -0.302 N 
ATOM     20  C   UNL     1      -5.317 -10.836  14.352  0.00  0.00    +0.234 C 
ATOM     39  H   UNL     1      -4.175  -9.214  13.737  0.00  0.00    +0.150 HD
BRANCH  11  23
ATOM     23  C   UNL     1      -2.862 -10.863  13.946  0.00  0.00    +0.163 C 
BRANCH  23  27
ATOM      8  O   UNL     1      -2.377 -10.963  16.326  0.00  0.00    -0.274 OA
ATOM     14  N   UNL     1      -1.167  -9.514  15.017  0.00  0.00    -0.328 N 
ATOM     27  C   UNL     1      -2.145 -10.462  15.227  0.00  0.00    +0.231 C 
ATOM     40  H   UNL     1      -0.982  -9.112  14.104  0.00  0.00    +0.145 HD
ATOM     41  H   UNL     1      -0.601  -9.171  15.787  0.00  0.00    +0.145 HD
ENDBRANCH  23  27
BRANCH  23  25
ATOM     25  C   UNL     1      -2.023 -10.477  12.722  0.00  0.00    +0.074 C 
BRANCH  25  30
ATOM      3  S   UNL     1      -3.543 -11.922  10.927  0.00  0.00    -0.102 S 
ATOM     30  C   UNL     1      -2.836 -10.470  11.448  0.00  0.00    -0.008 A 
ATOM     35  C   UNL     1      -3.083  -9.411  10.633  0.00  0.00    +0.011 A 
ATOM     36  C   UNL     1      -3.891  -9.799   9.524  0.00  0.00    +0.008 A 
ATOM     37  C   UNL     1      -4.213 -11.137   9.561  0.00  0.00    +0.045 A 
ENDBRANCH  25  30
ENDBRANCH  23  25
ENDBRANCH  11  23
ENDBRANCH  17  20
BRANCH  15  10
ATOM     10  N   UNL     1      -8.665 -10.642  17.354  0.00  0.00    -0.186 NA
ATOM     38  H   UNL     1      -9.611 -10.254  17.258  0.00  0.00    +0.148 HD
BRANCH  10   1
ATOM      1  S   UNL     1      -8.377 -11.680  18.683  0.00  0.00    +0.065 S 
ATOM      6  O   UNL     1      -8.938 -12.988  18.404  0.00  0.00    -0.153 OA
ATOM      7  O   UNL     1      -8.690 -10.970  19.907  0.00  0.00    -0.153 OA
BRANCH   1  24
ATOM      2  S   UNL     1      -6.060 -13.298  17.930  0.00  0.00    -0.077 S 
ATOM     24  C   UNL     1      -6.604 -11.933  18.783  0.00  0.00    +0.142 A 
ATOM     29  C   UNL     1      -5.622 -11.243  19.410  0.00  0.00    +0.036 A 
ATOM     32  C   UNL     1      -4.352 -11.849  19.190  0.00  0.00    +0.010 A 
ATOM     33  C   UNL     1      -4.446 -12.975  18.402  0.00  0.00    +0.047 A 
ENDBRANCH   1  24
ENDBRANCH  10   1
ENDBRANCH  15  10
TORSDOF 9
ENDMDL
MODEL 10
REMARK VINA RESULT:      -5.9     25.360     27.272
REMARK  Name = 11882468
REMARK  11 active torsions:
REMARK  status: ('A' for Active; 'I' for Inactive)
REMARK    1  A    between atoms: S_1  and  N_10
REMARK    2  A    between atoms: S_1  and  C_24
REMARK    3  A    between atoms: N_10  and  C_15
REMARK    4  A    between atoms: N_11  and  C_23
REMARK    5  A    between atoms: N_12  and  C_31
REMARK    6  A    between atoms: C_17  and  C_20
REMARK    7  A    between atoms: C_21  and  C_22
REMARK    8  A    between atoms: C_23  and  C_25
REMARK    9  A    between atoms: C_23  and  C_27
REMARK   10  A    between atoms: C_25  and  C_30
REMARK   11  A    between atoms: C_28  and  C_34
REMARK                            x       y       z     vdW  Elec       q    Type
REMARK                         _______ _______ _______ _____ _____    ______ ____
ROOT
ATOM      5  O   UNL     1      -4.227  -8.417  10.277  0.00  0.00    -0.268 OA
ATOM      9  N   UNL     1      -5.109 -10.460   9.617  0.00  0.00    -0.285 N 
ATOM     15  C   UNL     1      -5.491 -12.436   7.492  0.00  0.00    +0.080 C 
ATOM     16  C   UNL     1      -4.924 -11.049   7.182  0.00  0.00    +0.052 C 
ATOM     17  C   UNL     1      -5.289 -10.001   8.233  0.00  0.00    +0.164 C 
ATOM     18  C   UNL     1      -5.112 -12.848   8.913  0.00  0.00    +0.039 C 
ATOM     19  C   UNL     1      -5.586 -11.819   9.933  0.00  0.00    +0.110 C 
ATOM     21  C   UNL     1      -4.618  -9.547  10.577  0.00  0.00    +0.265 C 
ENDROOT
BRANCH  21  22
ATOM     12  N   UNL     1      -3.512 -10.543  12.592  0.00  0.00    -0.262 N 
ATOM     13  N   UNL     1      -3.740 -10.856  13.879  0.00  0.00    -0.176 NA
ATOM     22  C   UNL     1      -4.585  -9.982  11.969  0.00  0.00    +0.123 A 
ATOM     26  C   UNL     1      -5.582  -9.921  12.906  0.00  0.00    +0.057 A 
ATOM     28  C   UNL     1      -5.007 -10.473  14.065  0.00  0.00    +0.061 A 
ATOM     31  C   UNL     1      -2.216 -10.818  12.016  0.00  0.00    +0.173 C 
ATOM     34  C   UNL     1      -5.638 -10.654  15.383  0.00  0.00    +0.067 C 
ENDBRANCH  21  22
BRANCH  17  20
ATOM      4  O   UNL     1      -7.653 -10.282   8.425  0.00  0.00    -0.274 OA
ATOM     11  N   UNL     1      -6.819  -8.266   7.612  0.00  0.00    -0.302 N 
ATOM     20  C   UNL     1      -6.715  -9.551   8.116  0.00  0.00    +0.234 C 
ATOM     39  H   UNL     1      -5.976  -7.785   7.314  0.00  0.00    +0.150 HD
BRANCH  11  23
ATOM     23  C   UNL     1      -8.085  -7.608   7.382  0.00  0.00    +0.163 C 
BRANCH  23  27
ATOM      8  O   UNL     1      -9.418  -7.432   5.356  0.00  0.00    -0.274 OA
ATOM     14  N   UNL     1      -7.151  -7.749   5.157  0.00  0.00    -0.328 N 
ATOM     27  C   UNL     1      -8.317  -7.600   5.877  0.00  0.00    +0.231 C 
ATOM     40  H   UNL     1      -6.248  -7.883   5.599  0.00  0.00    +0.145 HD
ATOM     41  H   UNL     1      -7.163  -7.744   4.142  0.00  0.00    +0.145 HD
ENDBRANCH  23  27
BRANCH  23  25
ATOM     25  C   UNL     1      -8.106  -6.178   7.932  0.00  0.00    +0.074 C 
BRANCH  25  30
ATOM      3  S   UNL     1     -10.454  -7.085   9.066  0.00  0.00    -0.102 S 
ATOM     30  C   UNL     1      -9.432  -5.825   8.565  0.00  0.00    -0.008 A 
ATOM     35  C   UNL     1      -9.933  -4.583   8.795  0.00  0.00    +0.011 A 
ATOM     36  C   UNL     1     -11.217  -4.656   9.410  0.00  0.00    +0.008 A 
ATOM     37  C   UNL     1     -11.619  -5.957   9.614  0.00  0.00    +0.045 A 
ENDBRANCH  25  30
ENDBRANCH  23  25
ENDBRANCH  11  23
ENDBRANCH  17  20
BRANCH  15  10
ATOM     10  N   UNL     1      -5.017 -13.408   6.534  0.00  0.00    -0.186 NA
ATOM     38  H   UNL     1      -4.291 -14.049   6.875  0.00  0.00    +0.148 HD
BRANCH  10   1
ATOM      1  S   UNL     1      -6.144 -14.031   5.407  0.00  0.00    +0.065 S 
ATOM      6  O   UNL     1      -7.216 -14.700   6.117  0.00  0.00    -0.153 OA
ATOM      7  O   UNL     1      -5.419 -14.691   4.339  0.00  0.00    -0.153 OA
BRANCH   1  24
ATOM      2  S   UNL     1      -8.486 -12.300   5.141  0.00  0.00    -0.077 S 
ATOM     24  C   UNL     1      -6.911 -12.629   4.594  0.00  0.00    +0.142 A 
ATOM     29  C   UNL     1      -6.472 -11.787   3.629  0.00  0.00    +0.036 A 
ATOM     32  C   UNL     1      -7.465 -10.816   3.308  0.00  0.00    +0.010 A 
ATOM     33  C   UNL     1      -8.609 -10.980   4.057  0.00  0.00    +0.047 A 
ENDBRANCH   1  24
ENDBRANCH  10   1
ENDBRANCH  15  10
TORSDOF 9
ENDMDL
