MODEL 1
REMARK VINA RESULT:      -7.3      0.000      0.000
REMARK  Name = 75367654
REMARK  6 active torsions:
REMARK  status: ('A' for Active; 'I' for Inactive)
REMARK    1  A    between atoms: O_5  and  C_10
REMARK    2  A    between atoms: O_5  and  C_17
REMARK    3  A    between atoms: N_7  and  C_13
REMARK    4  A    between atoms: C_13  and  C_15
REMARK    5  A    between atoms: C_18  and  C_21
REMARK    6  A    between atoms: C_23  and  C_25
REMARK                            x       y       z     vdW  Elec       q    Type
REMARK                         _______ _______ _______ _____ _____    ______ ____
ROOT
ATOM      4  O   UNL     1      13.603   8.273  16.461  0.00  0.00    -0.375 OA
ATOM      7  N   UNL     1      12.879   9.866  19.043  0.00  0.00    -0.289 NA
ATOM      9  C   UNL     1      13.702   8.812  19.647  0.00  0.00    +0.131 C 
ATOM     10  C   UNL     1      14.350   7.782  18.709  0.00  0.00    +0.215 C 
ATOM     11  C   UNL     1      13.382  10.363  17.761  0.00  0.00    +0.113 C 
ATOM     12  C   UNL     1      13.473   7.356  17.541  0.00  0.00    +0.205 C 
ATOM     14  C   UNL     1      12.870   9.480  16.622  0.00  0.00    +0.175 C 
ENDROOT
BRANCH  10   5
ATOM      5  O   UNL     1      14.660   6.618  19.476  0.00  0.00    -0.469 OA
BRANCH   5  17
ATOM      8  N   UNL     1      16.728   5.771  18.857  0.00  0.00    -0.221 NA
ATOM     17  C   UNL     1      15.978   6.418  19.778  0.00  0.00    +0.215 A 
ATOM     20  C   UNL     1      16.468   6.879  20.990  0.00  0.00    +0.068 A 
ATOM     22  C   UNL     1      17.812   6.663  21.273  0.00  0.00    +0.019 A 
ATOM     23  C   UNL     1      18.615   6.002  20.350  0.00  0.00    +0.073 A 
ATOM     24  C   UNL     1      18.030   5.580  19.168  0.00  0.00    +0.127 A 
BRANCH  23  25
ATOM      1  F   UNL     1      20.525   4.583  20.101  0.00  0.00    -0.166 F 
ATOM      2  F   UNL     1      20.885   6.722  20.122  0.00  0.00    -0.166 F 
ATOM      3  F   UNL     1      20.338   5.695  21.960  0.00  0.00    -0.166 F 
ATOM     25  C   UNL     1      20.056   5.757  20.625  0.00  0.00    +0.419 C 
ENDBRANCH  23  25
ENDBRANCH   5  17
ENDBRANCH  10   5
BRANCH   7  13
ATOM     13  C   UNL     1      12.677  10.956  19.998  0.00  0.00    +0.159 C 
BRANCH  13  15
ATOM      6  O   UNL     1      11.942  11.302  22.292  0.00  0.00    -0.464 OA
ATOM     15  C   UNL     1      11.866  10.514  21.187  0.00  0.00    +0.119 A 
ATOM     16  C   UNL     1      11.030   9.445  21.413  0.00  0.00    +0.046 A 
ATOM     18  C   UNL     1      11.146  10.730  23.233  0.00  0.00    +0.102 A 
ATOM     19  C   UNL     1      10.563   9.585  22.741  0.00  0.00    +0.044 A 
ATOM     21  C   UNL     1      11.072  11.419  24.529  0.00  0.00    +0.086 C 
ENDBRANCH  13  15
ENDBRANCH   7  13
TORSDOF 5
ENDMDL
MODEL 2
REMARK VINA RESULT:      -6.7      1.638      2.708
REMARK  Name = 75367654
REMARK  6 active torsions:
REMARK  status: ('A' for Active; 'I' for Inactive)
REMARK    1  A    between atoms: O_5  and  C_10
REMARK    2  A    between atoms: O_5  and  C_17
REMARK    3  A    between atoms: N_7  and  C_13
REMARK    4  A    between atoms: C_13  and  C_15
REMARK    5  A    between atoms: C_18  and  C_21
REMARK    6  A    between atoms: C_23  and  C_25
REMARK                            x       y       z     vdW  Elec       q    Type
REMARK                         _______ _______ _______ _____ _____    ______ ____
ROOT
ATOM      4  O   UNL     1      11.621   6.397  20.698  0.00  0.00    -0.375 OA
ATOM      7  N   UNL     1      11.964   9.463  21.155  0.00  0.00    -0.289 NA
ATOM      9  C   UNL     1      12.750   9.326  19.923  0.00  0.00    +0.131 C 
ATOM     10  C   UNL     1      12.819   7.938  19.268  0.00  0.00    +0.215 C 
ATOM     11  C   UNL     1      10.743   8.655  21.184  0.00  0.00    +0.113 C 
ATOM     12  C   UNL     1      12.917   6.782  20.253  0.00  0.00    +0.205 C 
ATOM     14  C   UNL     1      11.062   7.247  21.689  0.00  0.00    +0.175 C 
ENDROOT
BRANCH  10   5
ATOM      5  O   UNL     1      13.975   7.901  18.429  0.00  0.00    -0.469 OA
BRANCH   5  17
ATOM      8  N   UNL     1      15.689   6.368  18.724  0.00  0.00    -0.221 NA
ATOM     17  C   UNL     1      15.158   7.573  19.031  0.00  0.00    +0.215 A 
ATOM     20  C   UNL     1      15.739   8.475  19.908  0.00  0.00    +0.068 A 
ATOM     22  C   UNL     1      16.941   8.118  20.507  0.00  0.00    +0.019 A 
ATOM     23  C   UNL     1      17.519   6.887  20.216  0.00  0.00    +0.073 A 
ATOM     24  C   UNL     1      16.858   6.056  19.327  0.00  0.00    +0.127 A 
BRANCH  23  25
ATOM      1  F   UNL     1      19.807   7.397  20.695  0.00  0.00    -0.166 F 
ATOM      2  F   UNL     1      18.718   6.261  22.189  0.00  0.00    -0.166 F 
ATOM      3  F   UNL     1      19.301   5.316  20.318  0.00  0.00    -0.166 F 
ATOM     25  C   UNL     1      18.804   6.477  20.841  0.00  0.00    +0.419 C 
ENDBRANCH  23  25
ENDBRANCH   5  17
ENDBRANCH  10   5
BRANCH   7  13
ATOM     13  C   UNL     1      11.679  10.874  21.415  0.00  0.00    +0.159 C 
BRANCH  13  15
ATOM      6  O   UNL     1      12.881  11.537  23.426  0.00  0.00    -0.464 OA
ATOM     15  C   UNL     1      11.683  11.183  22.889  0.00  0.00    +0.119 A 
ATOM     16  C   UNL     1      10.702  11.186  23.853  0.00  0.00    +0.046 A 
ATOM     18  C   UNL     1      12.661  11.769  24.746  0.00  0.00    +0.102 A 
ATOM     19  C   UNL     1      11.337  11.566  25.059  0.00  0.00    +0.044 A 
ATOM     21  C   UNL     1      13.831  12.173  25.540  0.00  0.00    +0.086 C 
ENDBRANCH  13  15
ENDBRANCH   7  13
TORSDOF 5
ENDMDL
MODEL 3
REMARK VINA RESULT:      -6.4     14.281     17.736
REMARK  Name = 75367654
REMARK  6 active torsions:
REMARK  status: ('A' for Active; 'I' for Inactive)
REMARK    1  A    between atoms: O_5  and  C_10
REMARK    2  A    between atoms: O_5  and  C_17
REMARK    3  A    between atoms: N_7  and  C_13
REMARK    4  A    between atoms: C_13  and  C_15
REMARK    5  A    between atoms: C_18  and  C_21
REMARK    6  A    between atoms: C_23  and  C_25
REMARK                            x       y       z     vdW  Elec       q    Type
REMARK                         _______ _______ _______ _____ _____    ______ ____
ROOT
ATOM      4  O   UNL     1      10.239   9.162   2.159  0.00  0.00    -0.375 OA
ATOM      7  N   UNL     1      10.830   6.122   2.529  0.00  0.00    -0.289 NA
ATOM      9  C   UNL     1      10.790   6.520   3.941  0.00  0.00    +0.131 C 
ATOM     10  C   UNL     1      10.458   7.986   4.263  0.00  0.00    +0.215 C 
ATOM     11  C   UNL     1       9.821   6.772   1.690  0.00  0.00    +0.113 C 
ATOM     12  C   UNL     1      11.071   8.995   3.302  0.00  0.00    +0.205 C 
ATOM     14  C   UNL     1      10.344   8.122   1.197  0.00  0.00    +0.175 C 
ENDROOT
BRANCH  10   5
ATOM      5  O   UNL     1      10.946   8.273   5.574  0.00  0.00    -0.469 OA
BRANCH   5  17
ATOM      8  N   UNL     1      11.435   6.590   7.091  0.00  0.00    -0.221 NA
ATOM     17  C   UNL     1      10.524   7.447   6.578  0.00  0.00    +0.215 A 
ATOM     20  C   UNL     1       9.210   7.531   7.010  0.00  0.00    +0.068 A 
ATOM     22  C   UNL     1       8.806   6.680   8.033  0.00  0.00    +0.019 A 
ATOM     23  C   UNL     1       9.714   5.785   8.586  0.00  0.00    +0.073 A 
ATOM     24  C   UNL     1      11.005   5.779   8.084  0.00  0.00    +0.127 A 
BRANCH  23  25
ATOM      1  F   UNL     1       8.171   5.245  10.333  0.00  0.00    -0.166 F 
ATOM      2  F   UNL     1       9.066   3.584   9.263  0.00  0.00    -0.166 F 
ATOM      3  F   UNL     1      10.263   4.750  10.655  0.00  0.00    -0.166 F 
ATOM     25  C   UNL     1       9.312   4.863   9.681  0.00  0.00    +0.419 C 
ENDBRANCH  23  25
ENDBRANCH   5  17
ENDBRANCH  10   5
BRANCH   7  13
ATOM     13  C   UNL     1      10.763   4.665   2.416  0.00  0.00    +0.159 C 
BRANCH  13  15
ATOM      6  O   UNL     1      11.492   3.937   0.210  0.00  0.00    -0.464 OA
ATOM     15  C   UNL     1      11.838   4.123   1.511  0.00  0.00    +0.119 A 
ATOM     16  C   UNL     1      13.148   3.759   1.720  0.00  0.00    +0.046 A 
ATOM     18  C   UNL     1      12.593   3.450  -0.418  0.00  0.00    +0.102 A 
ATOM     19  C   UNL     1      13.638   3.321   0.467  0.00  0.00    +0.044 A 
ATOM     21  C   UNL     1      12.452   3.170  -1.855  0.00  0.00    +0.086 C 
ENDBRANCH  13  15
ENDBRANCH   7  13
TORSDOF 5
ENDMDL
MODEL 4
REMARK VINA RESULT:      -6.3      2.793      4.972
REMARK  Name = 75367654
REMARK  6 active torsions:
REMARK  status: ('A' for Active; 'I' for Inactive)
REMARK    1  A    between atoms: O_5  and  C_10
REMARK    2  A    between atoms: O_5  and  C_17
REMARK    3  A    between atoms: N_7  and  C_13
REMARK    4  A    between atoms: C_13  and  C_15
REMARK    5  A    between atoms: C_18  and  C_21
REMARK    6  A    between atoms: C_23  and  C_25
REMARK                            x       y       z     vdW  Elec       q    Type
REMARK                         _______ _______ _______ _____ _____    ______ ____
ROOT
ATOM      4  O   UNL     1      11.753   7.808  17.089  0.00  0.00    -0.375 OA
ATOM      7  N   UNL     1      14.012   9.954  17.233  0.00  0.00    -0.289 NA
ATOM      9  C   UNL     1      14.520   9.020  18.243  0.00  0.00    +0.131 C 
ATOM     10  C   UNL     1      13.729   7.725  18.484  0.00  0.00    +0.215 C 
ATOM     11  C   UNL     1      13.423   9.310  16.057  0.00  0.00    +0.113 C 
ATOM     12  C   UNL     1      12.217   7.893  18.432  0.00  0.00    +0.205 C 
ATOM     14  C   UNL     1      11.951   8.987  16.322  0.00  0.00    +0.175 C 
ENDROOT
BRANCH  10   5
ATOM      5  O   UNL     1      14.072   7.229  19.779  0.00  0.00    -0.469 OA
BRANCH   5  17
ATOM      8  N   UNL     1      16.004   6.148  19.092  0.00  0.00    -0.221 NA
ATOM     17  C   UNL     1      15.392   6.947  19.996  0.00  0.00    +0.215 A 
ATOM     20  C   UNL     1      16.022   7.484  21.107  0.00  0.00    +0.068 A 
ATOM     22  C   UNL     1      17.365   7.182  21.303  0.00  0.00    +0.019 A 
ATOM     23  C   UNL     1      18.029   6.364  20.397  0.00  0.00    +0.073 A 
ATOM     24  C   UNL     1      17.310   5.876  19.318  0.00  0.00    +0.127 A 
BRANCH  23  25
ATOM      1  F   UNL     1      20.323   6.983  20.117  0.00  0.00    -0.166 F 
ATOM      2  F   UNL     1      19.823   5.830  21.886  0.00  0.00    -0.166 F 
ATOM      3  F   UNL     1      19.823   4.874  19.932  0.00  0.00    -0.166 F 
ATOM     25  C   UNL     1      19.464   6.023  20.580  0.00  0.00    +0.419 C 
ENDBRANCH  23  25
ENDBRANCH   5  17
ENDBRANCH  10   5
BRANCH   7  13
ATOM     13  C   UNL     1      15.058  10.904  16.855  0.00  0.00    +0.159 C 
BRANCH  13  15
ATOM      6  O   UNL     1      15.599  11.312  14.517  0.00  0.00    -0.464 OA
ATOM     15  C   UNL     1      14.752  11.582  15.545  0.00  0.00    +0.119 A 
ATOM     16  C   UNL     1      13.765  12.452  15.143  0.00  0.00    +0.046 A 
ATOM     18  C   UNL     1      15.147  12.016  13.447  0.00  0.00    +0.102 A 
ATOM     19  C   UNL     1      14.022  12.734  13.781  0.00  0.00    +0.044 A 
ATOM     21  C   UNL     1      15.918  11.876  12.203  0.00  0.00    +0.086 C 
ENDBRANCH  13  15
ENDBRANCH   7  13
TORSDOF 5
ENDMDL
MODEL 5
REMARK VINA RESULT:      -6.3      2.913      5.155
REMARK  Name = 75367654
REMARK  6 active torsions:
REMARK  status: ('A' for Active; 'I' for Inactive)
REMARK    1  A    between atoms: O_5  and  C_10
REMARK    2  A    between atoms: O_5  and  C_17
REMARK    3  A    between atoms: N_7  and  C_13
REMARK    4  A    between atoms: C_13  and  C_15
REMARK    5  A    between atoms: C_18  and  C_21
REMARK    6  A    between atoms: C_23  and  C_25
REMARK                            x       y       z     vdW  Elec       q    Type
REMARK                         _______ _______ _______ _____ _____    ______ ____
ROOT
ATOM      4  O   UNL     1      12.159  13.838  23.021  0.00  0.00    -0.375 OA
ATOM      7  N   UNL     1      11.384  10.877  22.424  0.00  0.00    -0.289 NA
ATOM      9  C   UNL     1      12.845  10.743  22.386  0.00  0.00    +0.131 C 
ATOM     10  C   UNL     1      13.687  11.991  22.694  0.00  0.00    +0.215 C 
ATOM     11  C   UNL     1      10.887  11.768  23.474  0.00  0.00    +0.113 C 
ATOM     12  C   UNL     1      13.121  13.287  22.130  0.00  0.00    +0.205 C 
ATOM     14  C   UNL     1      10.884  13.213  22.972  0.00  0.00    +0.175 C 
ENDROOT
BRANCH  10   5
ATOM      5  O   UNL     1      14.987  11.798  22.134  0.00  0.00    -0.469 OA
BRANCH   5  17
ATOM      8  N   UNL     1      15.691   9.590  22.177  0.00  0.00    -0.221 NA
ATOM     17  C   UNL     1      15.196  10.625  21.462  0.00  0.00    +0.215 A 
ATOM     20  C   UNL     1      14.895  10.561  20.111  0.00  0.00    +0.068 A 
ATOM     22  C   UNL     1      15.115   9.357  19.452  0.00  0.00    +0.019 A 
ATOM     23  C   UNL     1      15.624   8.269  20.152  0.00  0.00    +0.073 A 
ATOM     24  C   UNL     1      15.893   8.436  21.501  0.00  0.00    +0.127 A 
BRANCH  23  25
ATOM      1  F   UNL     1      15.381   5.889  20.158  0.00  0.00    -0.166 F 
ATOM      2  F   UNL     1      15.310   6.880  18.230  0.00  0.00    -0.166 F 
ATOM      3  F   UNL     1      17.200   6.710  19.294  0.00  0.00    -0.166 F 
ATOM     25  C   UNL     1      15.871   6.969  19.475  0.00  0.00    +0.419 C 
ENDBRANCH  23  25
ENDBRANCH   5  17
ENDBRANCH  10   5
BRANCH   7  13
ATOM     13  C   UNL     1      10.760   9.556  22.503  0.00  0.00    +0.159 C 
BRANCH  13  15
ATOM      6  O   UNL     1      11.265   9.037  20.179  0.00  0.00    -0.464 OA
ATOM     15  C   UNL     1      11.315   8.611  21.469  0.00  0.00    +0.119 A 
ATOM     16  C   UNL     1      11.884   7.361  21.544  0.00  0.00    +0.046 A 
ATOM     18  C   UNL     1      11.809   8.047  19.423  0.00  0.00    +0.102 A 
ATOM     19  C   UNL     1      12.204   6.995  20.216  0.00  0.00    +0.044 A 
ATOM     21  C   UNL     1      11.863   8.290  17.974  0.00  0.00    +0.086 C 
ENDBRANCH  13  15
ENDBRANCH   7  13
TORSDOF 5
ENDMDL
MODEL 6
REMARK VINA RESULT:      -6.3      1.330      1.817
REMARK  Name = 75367654
REMARK  6 active torsions:
REMARK  status: ('A' for Active; 'I' for Inactive)
REMARK    1  A    between atoms: O_5  and  C_10
REMARK    2  A    between atoms: O_5  and  C_17
REMARK    3  A    between atoms: N_7  and  C_13
REMARK    4  A    between atoms: C_13  and  C_15
REMARK    5  A    between atoms: C_18  and  C_21
REMARK    6  A    between atoms: C_23  and  C_25
REMARK                            x       y       z     vdW  Elec       q    Type
REMARK                         _______ _______ _______ _____ _____    ______ ____
ROOT
ATOM      4  O   UNL     1      14.433   9.164  16.695  0.00  0.00    -0.375 OA
ATOM      7  N   UNL     1      12.894   9.587  19.375  0.00  0.00    -0.289 NA
ATOM      9  C   UNL     1      13.776   8.490  19.789  0.00  0.00    +0.131 C 
ATOM     10  C   UNL     1      14.798   7.967  18.766  0.00  0.00    +0.215 C 
ATOM     11  C   UNL     1      13.532  10.580  18.509  0.00  0.00    +0.113 C 
ATOM     12  C   UNL     1      14.279   7.903  17.336  0.00  0.00    +0.205 C 
ATOM     14  C   UNL     1      13.451  10.128  17.050  0.00  0.00    +0.175 C 
ENDROOT
BRANCH  10   5
ATOM      5  O   UNL     1      15.179   6.647  19.157  0.00  0.00    -0.469 OA
BRANCH   5  17
ATOM      8  N   UNL     1      17.170   5.475  18.967  0.00  0.00    -0.221 NA
ATOM     17  C   UNL     1      16.477   6.478  19.552  0.00  0.00    +0.215 A 
ATOM     20  C   UNL     1      17.004   7.326  20.513  0.00  0.00    +0.068 A 
ATOM     22  C   UNL     1      18.326   7.133  20.897  0.00  0.00    +0.019 A 
ATOM     23  C   UNL     1      19.071   6.112  20.319  0.00  0.00    +0.073 A 
ATOM     24  C   UNL     1      18.452   5.318  19.368  0.00  0.00    +0.127 A 
BRANCH  23  25
ATOM      1  F   UNL     1      21.126   4.948  19.939  0.00  0.00    -0.166 F 
ATOM      2  F   UNL     1      21.271   6.999  20.630  0.00  0.00    -0.166 F 
ATOM      3  F   UNL     1      20.616   5.437  21.995  0.00  0.00    -0.166 F 
ATOM     25  C   UNL     1      20.487   5.881  20.709  0.00  0.00    +0.419 C 
ENDBRANCH  23  25
ENDBRANCH   5  17
ENDBRANCH  10   5
BRANCH   7  13
ATOM     13  C   UNL     1      12.284  10.212  20.548  0.00  0.00    +0.159 C 
BRANCH  13  15
ATOM      6  O   UNL     1      11.676   7.913  21.067  0.00  0.00    -0.464 OA
ATOM     15  C   UNL     1      11.477   9.227  21.352  0.00  0.00    +0.119 A 
ATOM     16  C   UNL     1      10.543   9.369  22.352  0.00  0.00    +0.046 A 
ATOM     18  C   UNL     1      10.860   7.209  21.895  0.00  0.00    +0.102 A 
ATOM     19  C   UNL     1      10.142   8.058  22.704  0.00  0.00    +0.044 A 
ATOM     21  C   UNL     1      10.908   5.745  21.764  0.00  0.00    +0.086 C 
ENDBRANCH  13  15
ENDBRANCH   7  13
TORSDOF 5
ENDMDL
MODEL 7
REMARK VINA RESULT:      -6.1     28.832     30.121
REMARK  Name = 75367654
REMARK  6 active torsions:
REMARK  status: ('A' for Active; 'I' for Inactive)
REMARK    1  A    between atoms: O_5  and  C_10
REMARK    2  A    between atoms: O_5  and  C_17
REMARK    3  A    between atoms: N_7  and  C_13
REMARK    4  A    between atoms: C_13  and  C_15
REMARK    5  A    between atoms: C_18  and  C_21
REMARK    6  A    between atoms: C_23  and  C_25
REMARK                            x       y       z     vdW  Elec       q    Type
REMARK                         _______ _______ _______ _____ _____    ______ ____
ROOT
ATOM      4  O   UNL     1     -11.215 -10.753  15.438  0.00  0.00    -0.375 OA
ATOM      7  N   UNL     1     -11.268  -7.701  16.081  0.00  0.00    -0.289 NA
ATOM      9  C   UNL     1     -10.323  -8.137  17.116  0.00  0.00    +0.131 C 
ATOM     10  C   UNL     1      -9.932  -9.622  17.149  0.00  0.00    +0.215 C 
ATOM     11  C   UNL     1     -11.099  -8.371  14.790  0.00  0.00    +0.113 C 
ATOM     12  C   UNL     1     -11.074 -10.581  16.843  0.00  0.00    +0.205 C 
ATOM     14  C   UNL     1     -11.881  -9.685  14.778  0.00  0.00    +0.175 C 
ENDROOT
BRANCH  10   5
ATOM      5  O   UNL     1      -9.443  -9.922  18.458  0.00  0.00    -0.469 OA
BRANCH   5  17
ATOM      8  N   UNL     1      -7.918 -11.255  19.585  0.00  0.00    -0.221 NA
ATOM     17  C   UNL     1      -8.182 -10.445  18.535  0.00  0.00    +0.215 A 
ATOM     20  C   UNL     1      -7.260 -10.124  17.552  0.00  0.00    +0.068 A 
ATOM     22  C   UNL     1      -5.985 -10.670  17.653  0.00  0.00    +0.019 A 
ATOM     23  C   UNL     1      -5.675 -11.507  18.719  0.00  0.00    +0.073 A 
ATOM     24  C   UNL     1      -6.667 -11.766  19.650  0.00  0.00    +0.127 A 
BRANCH  23  25
ATOM      1  F   UNL     1      -3.381 -11.537  18.037  0.00  0.00    -0.166 F 
ATOM      2  F   UNL     1      -3.796 -12.005  20.114  0.00  0.00    -0.166 F 
ATOM      3  F   UNL     1      -4.298 -13.439  18.557  0.00  0.00    -0.166 F 
ATOM     25  C   UNL     1      -4.320 -12.106  18.854  0.00  0.00    +0.419 C 
ENDBRANCH  23  25
ENDBRANCH   5  17
ENDBRANCH  10   5
BRANCH   7  13
ATOM     13  C   UNL     1     -11.224  -6.246  15.939  0.00  0.00    +0.159 C 
BRANCH  13  15
ATOM      6  O   UNL     1     -11.703  -4.951  13.935  0.00  0.00    -0.464 OA
ATOM     15  C   UNL     1     -12.206  -5.753  14.910  0.00  0.00    +0.119 A 
ATOM     16  C   UNL     1     -13.557  -5.942  14.731  0.00  0.00    +0.046 A 
ATOM     18  C   UNL     1     -12.744  -4.626  13.125  0.00  0.00    +0.102 A 
ATOM     19  C   UNL     1     -13.906  -5.209  13.572  0.00  0.00    +0.044 A 
ATOM     21  C   UNL     1     -12.432  -3.753  11.983  0.00  0.00    +0.086 C 
ENDBRANCH  13  15
ENDBRANCH   7  13
TORSDOF 5
ENDMDL
MODEL 8
REMARK VINA RESULT:      -6.1     27.966     29.219
REMARK  Name = 75367654
REMARK  6 active torsions:
REMARK  status: ('A' for Active; 'I' for Inactive)
REMARK    1  A    between atoms: O_5  and  C_10
REMARK    2  A    between atoms: O_5  and  C_17
REMARK    3  A    between atoms: N_7  and  C_13
REMARK    4  A    between atoms: C_13  and  C_15
REMARK    5  A    between atoms: C_18  and  C_21
REMARK    6  A    between atoms: C_23  and  C_25
REMARK                            x       y       z     vdW  Elec       q    Type
REMARK                         _______ _______ _______ _____ _____    ______ ____
ROOT
ATOM      4  O   UNL     1     -10.235 -11.017  15.233  0.00  0.00    -0.375 OA
ATOM      7  N   UNL     1     -10.518  -8.114  16.339  0.00  0.00    -0.289 NA
ATOM      9  C   UNL     1      -9.211  -8.452  16.914  0.00  0.00    +0.131 C 
ATOM     10  C   UNL     1      -8.612  -9.825  16.575  0.00  0.00    +0.215 C 
ATOM     11  C   UNL     1     -10.723  -8.608  14.976  0.00  0.00    +0.113 C 
ATOM     12  C   UNL     1      -9.627 -10.958  16.519  0.00  0.00    +0.205 C 
ATOM     14  C   UNL     1     -11.247 -10.044  15.015  0.00  0.00    +0.175 C 
ENDROOT
BRANCH  10   5
ATOM      5  O   UNL     1      -7.647 -10.148  17.579  0.00  0.00    -0.469 OA
BRANCH   5  17
ATOM      8  N   UNL     1      -6.110 -10.112  15.844  0.00  0.00    -0.221 NA
ATOM     17  C   UNL     1      -6.363 -10.344  17.152  0.00  0.00    +0.215 A 
ATOM     20  C   UNL     1      -5.408 -10.762  18.065  0.00  0.00    +0.068 A 
ATOM     22  C   UNL     1      -4.110 -10.953  17.605  0.00  0.00    +0.019 A 
ATOM     23  C   UNL     1      -3.810 -10.725  16.267  0.00  0.00    +0.073 A 
ATOM     24  C   UNL     1      -4.836 -10.310  15.435  0.00  0.00    +0.127 A 
BRANCH  23  25
ATOM      1  F   UNL     1      -1.459 -10.819  16.705  0.00  0.00    -0.166 F 
ATOM      2  F   UNL     1      -2.228 -12.145  15.170  0.00  0.00    -0.166 F 
ATOM      3  F   UNL     1      -2.091 -10.008  14.788  0.00  0.00    -0.166 F 
ATOM     25  C   UNL     1      -2.431 -10.922  15.746  0.00  0.00    +0.419 C 
ENDBRANCH  23  25
ENDBRANCH   5  17
ENDBRANCH  10   5
BRANCH   7  13
ATOM     13  C   UNL     1     -10.750  -6.673  16.428  0.00  0.00    +0.159 C 
BRANCH  13  15
ATOM      6  O   UNL     1     -11.555  -5.394  14.519  0.00  0.00    -0.464 OA
ATOM     15  C   UNL     1     -11.882  -6.232  15.538  0.00  0.00    +0.119 A 
ATOM     16  C   UNL     1     -13.232  -6.499  15.530  0.00  0.00    +0.046 A 
ATOM     18  C   UNL     1     -12.708  -5.125  13.853  0.00  0.00    +0.102 A 
ATOM     19  C   UNL     1     -13.768  -5.781  14.436  0.00  0.00    +0.044 A 
ATOM     21  C   UNL     1     -12.595  -4.227  12.694  0.00  0.00    +0.086 C 
ENDBRANCH  13  15
ENDBRANCH   7  13
TORSDOF 5
ENDMDL
MODEL 9
REMARK VINA RESULT:      -6.1     16.851     20.122
REMARK  Name = 75367654
REMARK  6 active torsions:
REMARK  status: ('A' for Active; 'I' for Inactive)
REMARK    1  A    between atoms: O_5  and  C_10
REMARK    2  A    between atoms: O_5  and  C_17
REMARK    3  A    between atoms: N_7  and  C_13
REMARK    4  A    between atoms: C_13  and  C_15
REMARK    5  A    between atoms: C_18  and  C_21
REMARK    6  A    between atoms: C_23  and  C_25
REMARK                            x       y       z     vdW  Elec       q    Type
REMARK                         _______ _______ _______ _____ _____    ______ ____
ROOT
ATOM      4  O   UNL     1      13.644   4.074   1.028  0.00  0.00    -0.375 OA
ATOM      7  N   UNL     1      10.952   5.100  -0.168  0.00  0.00    -0.289 NA
ATOM      9  C   UNL     1      10.548   4.985   1.238  0.00  0.00    +0.131 C 
ATOM     10  C   UNL     1      11.614   4.549   2.257  0.00  0.00    +0.215 C 
ATOM     11  C   UNL     1      12.307   5.617  -0.366  0.00  0.00    +0.113 C 
ATOM     12  C   UNL     1      12.570   3.479   1.747  0.00  0.00    +0.205 C 
ATOM     14  C   UNL     1      13.317   4.470  -0.297  0.00  0.00    +0.175 C 
ENDROOT
BRANCH  10   5
ATOM      5  O   UNL     1      10.943   4.029   3.406  0.00  0.00    -0.469 OA
BRANCH   5  17
ATOM      8  N   UNL     1      11.341   6.046   4.477  0.00  0.00    -0.221 NA
ATOM     17  C   UNL     1      10.579   4.935   4.363  0.00  0.00    +0.215 A 
ATOM     20  C   UNL     1       9.470   4.672   5.151  0.00  0.00    +0.068 A 
ATOM     22  C   UNL     1       9.121   5.609   6.117  0.00  0.00    +0.019 A 
ATOM     23  C   UNL     1       9.880   6.764   6.264  0.00  0.00    +0.073 A 
ATOM     24  C   UNL     1      10.971   6.934   5.427  0.00  0.00    +0.127 A 
BRANCH  23  25
ATOM      1  F   UNL     1      10.619   8.327   7.918  0.00  0.00    -0.166 F 
ATOM      2  F   UNL     1       8.845   8.857   6.787  0.00  0.00    -0.166 F 
ATOM      3  F   UNL     1       8.746   7.285   8.288  0.00  0.00    -0.166 F 
ATOM     25  C   UNL     1       9.532   7.785   7.288  0.00  0.00    +0.419 C 
ENDBRANCH  23  25
ENDBRANCH   5  17
ENDBRANCH  10   5
BRANCH   7  13
ATOM     13  C   UNL     1       9.966   5.884  -0.911  0.00  0.00    +0.159 C 
BRANCH  13  15
ATOM      6  O   UNL     1       9.735   3.891  -2.289  0.00  0.00    -0.464 OA
ATOM     15  C   UNL     1       9.620   5.244  -2.230  0.00  0.00    +0.119 A 
ATOM     16  C   UNL     1       9.195   5.746  -3.438  0.00  0.00    +0.046 A 
ATOM     18  C   UNL     1       9.380   3.526  -3.549  0.00  0.00    +0.102 A 
ATOM     19  C   UNL     1       9.040   4.631  -4.294  0.00  0.00    +0.044 A 
ATOM     21  C   UNL     1       9.429   2.087  -3.848  0.00  0.00    +0.086 C 
ENDBRANCH  13  15
ENDBRANCH   7  13
TORSDOF 5
ENDMDL
MODEL 10
REMARK VINA RESULT:      -6.1     15.617     18.285
REMARK  Name = 75367654
REMARK  6 active torsions:
REMARK  status: ('A' for Active; 'I' for Inactive)
REMARK    1  A    between atoms: O_5  and  C_10
REMARK    2  A    between atoms: O_5  and  C_17
REMARK    3  A    between atoms: N_7  and  C_13
REMARK    4  A    between atoms: C_13  and  C_15
REMARK    5  A    between atoms: C_18  and  C_21
REMARK    6  A    between atoms: C_23  and  C_25
REMARK                            x       y       z     vdW  Elec       q    Type
REMARK                         _______ _______ _______ _____ _____    ______ ____
ROOT
ATOM      4  O   UNL     1      13.619   8.157   2.625  0.00  0.00    -0.375 OA
ATOM      7  N   UNL     1      12.690   7.357   5.493  0.00  0.00    -0.289 NA
ATOM      9  C   UNL     1      11.979   6.327   4.727  0.00  0.00    +0.131 C 
ATOM     10  C   UNL     1      12.192   6.292   3.205  0.00  0.00    +0.215 C 
ATOM     11  C   UNL     1      14.040   7.647   5.007  0.00  0.00    +0.113 C 
ATOM     12  C   UNL     1      12.287   7.663   2.551  0.00  0.00    +0.205 C 
ATOM     14  C   UNL     1      13.979   8.692   3.892  0.00  0.00    +0.175 C 
ENDROOT
BRANCH  10   5
ATOM      5  O   UNL     1      11.088   5.600   2.619  0.00  0.00    -0.469 OA
BRANCH   5  17
ATOM      8  N   UNL     1      12.400   4.124   1.405  0.00  0.00    -0.221 NA
ATOM     17  C   UNL     1      11.329   4.950   1.441  0.00  0.00    +0.215 A 
ATOM     20  C   UNL     1      10.481   5.166   0.367  0.00  0.00    +0.068 A 
ATOM     22  C   UNL     1      10.748   4.492  -0.819  0.00  0.00    +0.019 A 
ATOM     23  C   UNL     1      11.840   3.635  -0.896  0.00  0.00    +0.073 A 
ATOM     24  C   UNL     1      12.628   3.487   0.234  0.00  0.00    +0.127 A 
BRANCH  23  25
ATOM      1  F   UNL     1      13.399   3.162  -2.648  0.00  0.00    -0.166 F 
ATOM      2  F   UNL     1      12.103   1.540  -2.020  0.00  0.00    -0.166 F 
ATOM      3  F   UNL     1      11.288   3.198  -3.167  0.00  0.00    -0.166 F 
ATOM     25  C   UNL     1      12.151   2.900  -2.151  0.00  0.00    +0.419 C 
ENDBRANCH  23  25
ENDBRANCH   5  17
ENDBRANCH  10   5
BRANCH   7  13
ATOM     13  C   UNL     1      12.695   7.012   6.915  0.00  0.00    +0.159 C 
BRANCH  13  15
ATOM      6  O   UNL     1      11.125   5.628   8.158  0.00  0.00    -0.464 OA
ATOM     15  C   UNL     1      11.304   6.766   7.437  0.00  0.00    +0.119 A 
ATOM     16  C   UNL     1      10.125   7.467   7.340  0.00  0.00    +0.046 A 
ATOM     18  C   UNL     1       9.818   5.604   8.527  0.00  0.00    +0.102 A 
ATOM     19  C   UNL     1       9.160   6.713   8.048  0.00  0.00    +0.044 A 
ATOM     21  C   UNL     1       9.389   4.448   9.328  0.00  0.00    +0.086 C 
ENDBRANCH  13  15
ENDBRANCH   7  13
TORSDOF 5
ENDMDL
