MODEL 1
REMARK VINA RESULT:      -5.3      0.000      0.000
REMARK  Name = 56775520
REMARK  12 active torsions:
REMARK  status: ('A' for Active; 'I' for Inactive)
REMARK    1  A    between atoms: O_3  and  C_18
REMARK    2  A    between atoms: N_4  and  C_6
REMARK    3  A    between atoms: N_4  and  C_10
REMARK    4  A    between atoms: C_6  and  C_9
REMARK    5  A    between atoms: C_9  and  C_12
REMARK    6  A    between atoms: C_10  and  C_11
REMARK    7  A    between atoms: C_11  and  C_13
REMARK    8  A    between atoms: C_11  and  C_14
REMARK    9  A    between atoms: C_11  and  C_15
REMARK   10  A    between atoms: C_17  and  C_18
REMARK   11  A    between atoms: C_18  and  C_19
REMARK   12  A    between atoms: C_18  and  C_20
REMARK                            x       y       z     vdW  Elec       q    Type
REMARK                         _______ _______ _______ _____ _____    ______ ____
ROOT
ATOM      1  O   UNL     1     -17.668   4.710  34.183  0.00  0.00    -0.376 OA
ATOM      6  C   UNL     1     -15.677   4.859  33.428  0.00  0.00    +0.072 C 
ATOM      7  C   UNL     1     -16.480   5.424  34.594  0.00  0.00    +0.184 C 
ATOM      8  C   UNL     1     -16.993   4.214  33.005  0.00  0.00    +0.184 C 
ENDROOT
BRANCH   6   4
ATOM      4  N   UNL     1     -15.364   5.948  32.498  0.00  0.00    -0.306 NA
ATOM     21  H   UNL     1     -15.666   5.787  31.539  0.00  0.00    +0.123 HD
BRANCH   4  10
ATOM     10  C   UNL     1     -13.928   6.210  32.530  0.00  0.00    +0.087 C 
BRANCH  10  11
ATOM     11  C   UNL     1     -13.552   7.604  33.094  0.00  0.00    -0.025 C 
ATOM     13  C   UNL     1     -14.729   8.563  32.837  0.00  0.00    +0.012 C 
ATOM     14  C   UNL     1     -13.298   7.531  34.610  0.00  0.00    +0.012 C 
ATOM     15  C   UNL     1     -12.299   8.168  32.398  0.00  0.00    +0.012 C 
ENDBRANCH  10  11
ENDBRANCH   4  10
ENDBRANCH   6   4
BRANCH   6   9
ATOM      9  C   UNL     1     -14.499   3.981  33.718  0.00  0.00    +0.085 C 
BRANCH   9  12
ATOM      2  O   UNL     1     -14.858   0.507  32.789  0.00  0.00    -0.356 OA
ATOM      5  N   UNL     1     -14.752   1.525  33.729  0.00  0.00    -0.083 NA
ATOM     12  C   UNL     1     -14.636   2.647  33.013  0.00  0.00    +0.086 A 
ATOM     16  C   UNL     1     -14.663   2.402  31.629  0.00  0.00    +0.074 A 
ATOM     17  C   UNL     1     -14.804   1.042  31.542  0.00  0.00    +0.168 A 
BRANCH  17  18
ATOM     18  C   UNL     1     -14.903   0.100  30.421  0.00  0.00    +0.120 C 
ATOM     19  C   UNL     1     -15.774   0.639  29.249  0.00  0.00    +0.049 C 
ATOM     20  C   UNL     1     -13.517  -0.316  29.851  0.00  0.00    +0.049 C 
BRANCH  18   3
ATOM      3  O   UNL     1     -15.536  -1.155  30.802  0.00  0.00    -0.381 OA
ATOM     22  H   UNL     1     -15.040  -1.530  31.550  0.00  0.00    +0.211 HD
ENDBRANCH  18   3
ENDBRANCH  17  18
ENDBRANCH   9  12
ENDBRANCH   6   9
TORSDOF 7
ENDMDL
MODEL 2
REMARK VINA RESULT:      -5.2     20.554     23.321
REMARK  Name = 56775520
REMARK  12 active torsions:
REMARK  status: ('A' for Active; 'I' for Inactive)
REMARK    1  A    between atoms: O_3  and  C_18
REMARK    2  A    between atoms: N_4  and  C_6
REMARK    3  A    between atoms: N_4  and  C_10
REMARK    4  A    between atoms: C_6  and  C_9
REMARK    5  A    between atoms: C_9  and  C_12
REMARK    6  A    between atoms: C_10  and  C_11
REMARK    7  A    between atoms: C_11  and  C_13
REMARK    8  A    between atoms: C_11  and  C_14
REMARK    9  A    between atoms: C_11  and  C_15
REMARK   10  A    between atoms: C_17  and  C_18
REMARK   11  A    between atoms: C_18  and  C_19
REMARK   12  A    between atoms: C_18  and  C_20
REMARK                            x       y       z     vdW  Elec       q    Type
REMARK                         _______ _______ _______ _____ _____    ______ ____
ROOT
ATOM      1  O   UNL     1      -7.679 -13.058  19.317  0.00  0.00    -0.376 OA
ATOM      6  C   UNL     1      -7.315 -11.249  18.245  0.00  0.00    +0.072 C 
ATOM      7  C   UNL     1      -8.061 -11.677  19.505  0.00  0.00    +0.184 C 
ATOM      8  C   UNL     1      -7.034 -12.737  18.064  0.00  0.00    +0.184 C 
ENDROOT
BRANCH   6   4
ATOM      4  N   UNL     1      -8.293 -10.826  17.239  0.00  0.00    -0.306 NA
ATOM     21  H   UNL     1      -7.984 -10.935  16.275  0.00  0.00    +0.123 HD
BRANCH   4  10
ATOM     10  C   UNL     1      -8.670  -9.438  17.486  0.00  0.00    +0.087 C 
BRANCH  10  11
ATOM     11  C   UNL     1     -10.184  -9.153  17.314  0.00  0.00    -0.025 C 
ATOM     13  C   UNL     1     -10.369  -7.641  17.089  0.00  0.00    +0.012 C 
ATOM     14  C   UNL     1     -10.748  -9.905  16.096  0.00  0.00    +0.012 C 
ATOM     15  C   UNL     1     -10.975  -9.561  18.571  0.00  0.00    +0.012 C 
ENDBRANCH  10  11
ENDBRANCH   4  10
ENDBRANCH   6   4
BRANCH   6   9
ATOM      9  C   UNL     1      -6.162 -10.302  18.373  0.00  0.00    +0.085 C 
BRANCH   9  12
ATOM      2  O   UNL     1      -4.590 -10.238  15.120  0.00  0.00    -0.356 OA
ATOM      5  N   UNL     1      -5.660 -10.001  15.974  0.00  0.00    -0.083 NA
ATOM     12  C   UNL     1      -5.241 -10.412  17.175  0.00  0.00    +0.086 A 
ATOM     16  C   UNL     1      -3.928 -10.912  17.140  0.00  0.00    +0.074 A 
ATOM     17  C   UNL     1      -3.564 -10.781  15.826  0.00  0.00    +0.168 A 
BRANCH  17  18
ATOM     18  C   UNL     1      -2.345 -11.096  15.072  0.00  0.00    +0.120 C 
ATOM     19  C   UNL     1      -2.421 -10.652  13.582  0.00  0.00    +0.049 C 
ATOM     20  C   UNL     1      -1.064 -10.478  15.703  0.00  0.00    +0.049 C 
BRANCH  18   3
ATOM      3  O   UNL     1      -2.077 -12.525  15.017  0.00  0.00    -0.381 OA
ATOM     22  H   UNL     1      -2.743 -12.938  14.441  0.00  0.00    +0.211 HD
ENDBRANCH  18   3
ENDBRANCH  17  18
ENDBRANCH   9  12
ENDBRANCH   6   9
TORSDOF 7
ENDMDL
MODEL 3
REMARK VINA RESULT:      -5.1     21.376     25.556
REMARK  Name = 56775520
REMARK  12 active torsions:
REMARK  status: ('A' for Active; 'I' for Inactive)
REMARK    1  A    between atoms: O_3  and  C_18
REMARK    2  A    between atoms: N_4  and  C_6
REMARK    3  A    between atoms: N_4  and  C_10
REMARK    4  A    between atoms: C_6  and  C_9
REMARK    5  A    between atoms: C_9  and  C_12
REMARK    6  A    between atoms: C_10  and  C_11
REMARK    7  A    between atoms: C_11  and  C_13
REMARK    8  A    between atoms: C_11  and  C_14
REMARK    9  A    between atoms: C_11  and  C_15
REMARK   10  A    between atoms: C_17  and  C_18
REMARK   11  A    between atoms: C_18  and  C_19
REMARK   12  A    between atoms: C_18  and  C_20
REMARK                            x       y       z     vdW  Elec       q    Type
REMARK                         _______ _______ _______ _____ _____    ______ ____
ROOT
ATOM      1  O   UNL     1      -2.756 -13.947  14.641  0.00  0.00    -0.376 OA
ATOM      6  C   UNL     1      -3.504 -11.956  14.457  0.00  0.00    +0.072 C 
ATOM      7  C   UNL     1      -3.999 -13.297  14.990  0.00  0.00    +0.184 C 
ATOM      8  C   UNL     1      -2.261 -12.732  14.034  0.00  0.00    +0.184 C 
ENDROOT
BRANCH   6   4
ATOM      4  N   UNL     1      -4.276 -11.609  13.261  0.00  0.00    -0.306 NA
ATOM     21  H   UNL     1      -4.208 -12.284  12.501  0.00  0.00    +0.123 HD
BRANCH   4  10
ATOM     10  C   UNL     1      -3.867 -10.289  12.790  0.00  0.00    +0.087 C 
BRANCH  10  11
ATOM     11  C   UNL     1      -3.196 -10.296  11.393  0.00  0.00    -0.025 C 
ATOM     13  C   UNL     1      -3.898  -9.245  10.513  0.00  0.00    +0.012 C 
ATOM     14  C   UNL     1      -1.704  -9.931  11.500  0.00  0.00    +0.012 C 
ATOM     15  C   UNL     1      -3.332 -11.672  10.715  0.00  0.00    +0.012 C 
ENDBRANCH  10  11
ENDBRANCH   4  10
ENDBRANCH   6   4
BRANCH   6   9
ATOM      9  C   UNL     1      -3.356 -10.810  15.410  0.00  0.00    +0.085 C 
BRANCH   9  12
ATOM      2  O   UNL     1      -6.609  -9.956  16.731  0.00  0.00    -0.356 OA
ATOM      5  N   UNL     1      -5.636  -9.923  15.739  0.00  0.00    -0.083 NA
ATOM     12  C   UNL     1      -4.615 -10.628  16.232  0.00  0.00    +0.086 A 
ATOM     16  C   UNL     1      -4.882 -11.126  17.520  0.00  0.00    +0.074 A 
ATOM     17  C   UNL     1      -6.148 -10.675  17.787  0.00  0.00    +0.168 A 
BRANCH  17  18
ATOM     18  C   UNL     1      -7.056 -10.812  18.932  0.00  0.00    +0.120 C 
ATOM     19  C   UNL     1      -8.530 -10.450  18.585  0.00  0.00    +0.049 C 
ATOM     20  C   UNL     1      -7.035 -12.236  19.558  0.00  0.00    +0.049 C 
BRANCH  18   3
ATOM      3  O   UNL     1      -6.707  -9.922  20.029  0.00  0.00    -0.381 OA
ATOM     22  H   UNL     1      -5.803 -10.134  20.317  0.00  0.00    +0.211 HD
ENDBRANCH  18   3
ENDBRANCH  17  18
ENDBRANCH   9  12
ENDBRANCH   6   9
TORSDOF 7
ENDMDL
MODEL 4
REMARK VINA RESULT:      -5.0     28.565     30.885
REMARK  Name = 56775520
REMARK  12 active torsions:
REMARK  status: ('A' for Active; 'I' for Inactive)
REMARK    1  A    between atoms: O_3  and  C_18
REMARK    2  A    between atoms: N_4  and  C_6
REMARK    3  A    between atoms: N_4  and  C_10
REMARK    4  A    between atoms: C_6  and  C_9
REMARK    5  A    between atoms: C_9  and  C_12
REMARK    6  A    between atoms: C_10  and  C_11
REMARK    7  A    between atoms: C_11  and  C_13
REMARK    8  A    between atoms: C_11  and  C_14
REMARK    9  A    between atoms: C_11  and  C_15
REMARK   10  A    between atoms: C_17  and  C_18
REMARK   11  A    between atoms: C_18  and  C_19
REMARK   12  A    between atoms: C_18  and  C_20
REMARK                            x       y       z     vdW  Elec       q    Type
REMARK                         _______ _______ _______ _____ _____    ______ ____
ROOT
ATOM      1  O   UNL     1      13.862   7.340  21.962  0.00  0.00    -0.376 OA
ATOM      6  C   UNL     1      13.008   8.845  20.713  0.00  0.00    +0.072 C 
ATOM      7  C   UNL     1      13.078   7.322  20.748  0.00  0.00    +0.184 C 
ATOM      8  C   UNL     1      13.915   8.784  21.937  0.00  0.00    +0.184 C 
ENDROOT
BRANCH   6   4
ATOM      4  N   UNL     1      13.788   9.327  19.570  0.00  0.00    -0.306 NA
ATOM     21  H   UNL     1      14.512  10.003  19.805  0.00  0.00    +0.123 HD
BRANCH   4  10
ATOM     10  C   UNL     1      12.883   9.895  18.574  0.00  0.00    +0.087 C 
BRANCH  10  11
ATOM     11  C   UNL     1      12.866   9.131  17.226  0.00  0.00    -0.025 C 
ATOM     13  C   UNL     1      11.437   8.613  16.980  0.00  0.00    +0.012 C 
ATOM     14  C   UNL     1      13.260  10.061  16.064  0.00  0.00    +0.012 C 
ATOM     15  C   UNL     1      13.825   7.926  17.256  0.00  0.00    +0.012 C 
ENDBRANCH  10  11
ENDBRANCH   4  10
ENDBRANCH   6   4
BRANCH   6   9
ATOM      9  C   UNL     1      11.672   9.511  20.832  0.00  0.00    +0.085 C 
BRANCH   9  12
ATOM      2  O   UNL     1      12.225  12.605  22.616  0.00  0.00    -0.356 OA
ATOM      5  N   UNL     1      12.366  11.783  21.503  0.00  0.00    -0.083 NA
ATOM     12  C   UNL     1      11.727  10.654  21.824  0.00  0.00    +0.086 A 
ATOM     16  C   UNL     1      11.168  10.705  23.113  0.00  0.00    +0.074 A 
ATOM     17  C   UNL     1      11.510  11.951  23.568  0.00  0.00    +0.168 A 
BRANCH  17  18
ATOM     18  C   UNL     1      11.265  12.680  24.818  0.00  0.00    +0.120 C 
ATOM     19  C   UNL     1      12.572  13.204  25.482  0.00  0.00    +0.049 C 
ATOM     20  C   UNL     1      10.290  13.879  24.641  0.00  0.00    +0.049 C 
BRANCH  18   3
ATOM      3  O   UNL     1      10.644  11.847  25.837  0.00  0.00    -0.381 OA
ATOM     22  H   UNL     1       9.739  11.637  25.548  0.00  0.00    +0.211 HD
ENDBRANCH  18   3
ENDBRANCH  17  18
ENDBRANCH   9  12
ENDBRANCH   6   9
TORSDOF 7
ENDMDL
MODEL 5
REMARK VINA RESULT:      -5.0     13.197     14.593
REMARK  Name = 56775520
REMARK  12 active torsions:
REMARK  status: ('A' for Active; 'I' for Inactive)
REMARK    1  A    between atoms: O_3  and  C_18
REMARK    2  A    between atoms: N_4  and  C_6
REMARK    3  A    between atoms: N_4  and  C_10
REMARK    4  A    between atoms: C_6  and  C_9
REMARK    5  A    between atoms: C_9  and  C_12
REMARK    6  A    between atoms: C_10  and  C_11
REMARK    7  A    between atoms: C_11  and  C_13
REMARK    8  A    between atoms: C_11  and  C_14
REMARK    9  A    between atoms: C_11  and  C_15
REMARK   10  A    between atoms: C_17  and  C_18
REMARK   11  A    between atoms: C_18  and  C_19
REMARK   12  A    between atoms: C_18  and  C_20
REMARK                            x       y       z     vdW  Elec       q    Type
REMARK                         _______ _______ _______ _____ _____    ______ ____
ROOT
ATOM      1  O   UNL     1     -10.506   8.322  16.609  0.00  0.00    -0.376 OA
ATOM      6  C   UNL     1     -11.148   9.115  18.484  0.00  0.00    +0.072 C 
ATOM      7  C   UNL     1     -11.630   8.072  17.482  0.00  0.00    +0.184 C 
ATOM      8  C   UNL     1     -10.044   9.389  17.468  0.00  0.00    +0.184 C 
ENDROOT
BRANCH   6   4
ATOM      4  N   UNL     1     -12.085  10.243  18.479  0.00  0.00    -0.306 NA
ATOM     21  H   UNL     1     -12.459  10.480  17.563  0.00  0.00    +0.123 HD
BRANCH   4  10
ATOM     10  C   UNL     1     -11.436  11.410  19.068  0.00  0.00    +0.087 C 
BRANCH  10  11
ATOM     11  C   UNL     1     -11.565  12.701  18.219  0.00  0.00    -0.025 C 
ATOM     13  C   UNL     1     -12.294  13.764  19.062  0.00  0.00    +0.012 C 
ATOM     14  C   UNL     1     -10.177  13.245  17.834  0.00  0.00    +0.012 C 
ATOM     15  C   UNL     1     -12.382  12.447  16.939  0.00  0.00    +0.012 C 
ENDBRANCH  10  11
ENDBRANCH   4  10
ENDBRANCH   6   4
BRANCH   6   9
ATOM      9  C   UNL     1     -10.772   8.674  19.865  0.00  0.00    +0.085 C 
BRANCH   9  12
ATOM      2  O   UNL     1     -13.785   8.005  21.744  0.00  0.00    -0.356 OA
ATOM      5  N   UNL     1     -12.834   8.865  21.208  0.00  0.00    -0.083 NA
ATOM     12  C   UNL     1     -11.964   8.071  20.579  0.00  0.00    +0.086 A 
ATOM     16  C   UNL     1     -12.311   6.712  20.682  0.00  0.00    +0.074 A 
ATOM     17  C   UNL     1     -13.462   6.725  21.423  0.00  0.00    +0.168 A 
BRANCH  17  18
ATOM     18  C   UNL     1     -14.369   5.680  21.912  0.00  0.00    +0.120 C 
ATOM     19  C   UNL     1     -14.783   5.881  23.399  0.00  0.00    +0.049 C 
ATOM     20  C   UNL     1     -15.662   5.547  21.057  0.00  0.00    +0.049 C 
BRANCH  18   3
ATOM      3  O   UNL     1     -13.765   4.356  21.875  0.00  0.00    -0.381 OA
ATOM     22  H   UNL     1     -14.201   3.803  22.546  0.00  0.00    +0.211 HD
ENDBRANCH  18   3
ENDBRANCH  17  18
ENDBRANCH   9  12
ENDBRANCH   6   9
TORSDOF 7
ENDMDL
MODEL 6
REMARK VINA RESULT:      -5.0     20.337     23.741
REMARK  Name = 56775520
REMARK  12 active torsions:
REMARK  status: ('A' for Active; 'I' for Inactive)
REMARK    1  A    between atoms: O_3  and  C_18
REMARK    2  A    between atoms: N_4  and  C_6
REMARK    3  A    between atoms: N_4  and  C_10
REMARK    4  A    between atoms: C_6  and  C_9
REMARK    5  A    between atoms: C_9  and  C_12
REMARK    6  A    between atoms: C_10  and  C_11
REMARK    7  A    between atoms: C_11  and  C_13
REMARK    8  A    between atoms: C_11  and  C_14
REMARK    9  A    between atoms: C_11  and  C_15
REMARK   10  A    between atoms: C_17  and  C_18
REMARK   11  A    between atoms: C_18  and  C_19
REMARK   12  A    between atoms: C_18  and  C_20
REMARK                            x       y       z     vdW  Elec       q    Type
REMARK                         _______ _______ _______ _____ _____    ______ ____
ROOT
ATOM      1  O   UNL     1      -3.675 -12.531  19.512  0.00  0.00    -0.376 OA
ATOM      6  C   UNL     1      -4.246 -11.616  17.670  0.00  0.00    +0.072 C 
ATOM      7  C   UNL     1      -4.802 -12.673  18.619  0.00  0.00    +0.184 C 
ATOM      8  C   UNL     1      -3.046 -11.592  18.610  0.00  0.00    +0.184 C 
ENDROOT
BRANCH   6   4
ATOM      4  N   UNL     1      -3.852 -12.267  16.417  0.00  0.00    -0.306 NA
ATOM     21  H   UNL     1      -2.987 -12.801  16.470  0.00  0.00    +0.123 HD
BRANCH   4  10
ATOM     10  C   UNL     1      -3.751 -11.261  15.363  0.00  0.00    +0.087 C 
BRANCH  10  11
ATOM     11  C   UNL     1      -2.386 -11.251  14.629  0.00  0.00    -0.025 C 
ATOM     13  C   UNL     1      -2.548 -10.458  13.318  0.00  0.00    +0.012 C 
ATOM     14  C   UNL     1      -1.307 -10.566  15.487  0.00  0.00    +0.012 C 
ATOM     15  C   UNL     1      -1.927 -12.679  14.283  0.00  0.00    +0.012 C 
ENDBRANCH  10  11
ENDBRANCH   4  10
ENDBRANCH   6   4
BRANCH   6   9
ATOM      9  C   UNL     1      -5.026 -10.356  17.454  0.00  0.00    +0.085 C 
BRANCH   9  12
ATOM      2  O   UNL     1      -8.509 -11.286  17.204  0.00  0.00    -0.356 OA
ATOM      5  N   UNL     1      -7.211 -11.229  16.708  0.00  0.00    -0.083 NA
ATOM     12  C   UNL     1      -6.507 -10.599  17.653  0.00  0.00    +0.086 A 
ATOM     16  C   UNL     1      -7.299 -10.238  18.757  0.00  0.00    +0.074 A 
ATOM     17  C   UNL     1      -8.548 -10.692  18.425  0.00  0.00    +0.168 A 
BRANCH  17  18
ATOM     18  C   UNL     1      -9.853 -10.664  19.096  0.00  0.00    +0.120 C 
ATOM     19  C   UNL     1     -10.819  -9.598  18.504  0.00  0.00    +0.049 C 
ATOM     20  C   UNL     1     -10.575 -12.043  19.080  0.00  0.00    +0.049 C 
BRANCH  18   3
ATOM      3  O   UNL     1      -9.747 -10.321  20.507  0.00  0.00    -0.381 OA
ATOM     22  H   UNL     1      -9.533 -11.130  21.002  0.00  0.00    +0.211 HD
ENDBRANCH  18   3
ENDBRANCH  17  18
ENDBRANCH   9  12
ENDBRANCH   6   9
TORSDOF 7
ENDMDL
MODEL 7
REMARK VINA RESULT:      -4.9     22.479     26.483
REMARK  Name = 56775520
REMARK  12 active torsions:
REMARK  status: ('A' for Active; 'I' for Inactive)
REMARK    1  A    between atoms: O_3  and  C_18
REMARK    2  A    between atoms: N_4  and  C_6
REMARK    3  A    between atoms: N_4  and  C_10
REMARK    4  A    between atoms: C_6  and  C_9
REMARK    5  A    between atoms: C_9  and  C_12
REMARK    6  A    between atoms: C_10  and  C_11
REMARK    7  A    between atoms: C_11  and  C_13
REMARK    8  A    between atoms: C_11  and  C_14
REMARK    9  A    between atoms: C_11  and  C_15
REMARK   10  A    between atoms: C_17  and  C_18
REMARK   11  A    between atoms: C_18  and  C_19
REMARK   12  A    between atoms: C_18  and  C_20
REMARK                            x       y       z     vdW  Elec       q    Type
REMARK                         _______ _______ _______ _____ _____    ______ ____
ROOT
ATOM      1  O   UNL     1      -2.259 -13.988  14.218  0.00  0.00    -0.376 OA
ATOM      6  C   UNL     1      -2.268 -12.019  13.395  0.00  0.00    +0.072 C 
ATOM      7  C   UNL     1      -3.293 -13.086  13.764  0.00  0.00    +0.184 C 
ATOM      8  C   UNL     1      -1.231 -13.060  13.803  0.00  0.00    +0.184 C 
ENDROOT
BRANCH   6   4
ATOM      4  N   UNL     1      -2.242 -11.873  11.936  0.00  0.00    -0.306 NA
ATOM     21  H   UNL     1      -1.393 -12.215  11.490  0.00  0.00    +0.123 HD
BRANCH   4  10
ATOM     10  C   UNL     1      -2.456 -10.472  11.588  0.00  0.00    +0.087 C 
BRANCH  10  11
ATOM     11  C   UNL     1      -3.729 -10.218  10.740  0.00  0.00    -0.025 C 
ATOM     13  C   UNL     1      -4.043 -11.498   9.944  0.00  0.00    +0.012 C 
ATOM     14  C   UNL     1      -4.933  -9.891  11.642  0.00  0.00    +0.012 C 
ATOM     15  C   UNL     1      -3.515  -9.063   9.745  0.00  0.00    +0.012 C 
ENDBRANCH  10  11
ENDBRANCH   4  10
ENDBRANCH   6   4
BRANCH   6   9
ATOM      9  C   UNL     1      -2.299 -10.705  14.113  0.00  0.00    +0.085 C 
BRANCH   9  12
ATOM      2  O   UNL     1      -3.862 -11.026  17.355  0.00  0.00    -0.356 OA
ATOM      5  N   UNL     1      -2.756 -11.056  16.513  0.00  0.00    -0.083 NA
ATOM     12  C   UNL     1      -3.236 -10.765  15.301  0.00  0.00    +0.086 A 
ATOM     16  C   UNL     1      -4.625 -10.542  15.316  0.00  0.00    +0.074 A 
ATOM     17  C   UNL     1      -4.969 -10.719  16.630  0.00  0.00    +0.168 A 
BRANCH  17  18
ATOM     18  C   UNL     1      -6.234 -10.644  17.370  0.00  0.00    +0.120 C 
ATOM     19  C   UNL     1      -6.034 -10.571  18.911  0.00  0.00    +0.049 C 
ATOM     20  C   UNL     1      -7.123  -9.444  16.933  0.00  0.00    +0.049 C 
BRANCH  18   3
ATOM      3  O   UNL     1      -7.071 -11.816  17.162  0.00  0.00    -0.381 OA
ATOM     22  H   UNL     1      -6.816 -12.227  16.319  0.00  0.00    +0.211 HD
ENDBRANCH  18   3
ENDBRANCH  17  18
ENDBRANCH   9  12
ENDBRANCH   6   9
TORSDOF 7
ENDMDL
MODEL 8
REMARK VINA RESULT:      -4.8     21.244     24.690
REMARK  Name = 56775520
REMARK  12 active torsions:
REMARK  status: ('A' for Active; 'I' for Inactive)
REMARK    1  A    between atoms: O_3  and  C_18
REMARK    2  A    between atoms: N_4  and  C_6
REMARK    3  A    between atoms: N_4  and  C_10
REMARK    4  A    between atoms: C_6  and  C_9
REMARK    5  A    between atoms: C_9  and  C_12
REMARK    6  A    between atoms: C_10  and  C_11
REMARK    7  A    between atoms: C_11  and  C_13
REMARK    8  A    between atoms: C_11  and  C_14
REMARK    9  A    between atoms: C_11  and  C_15
REMARK   10  A    between atoms: C_17  and  C_18
REMARK   11  A    between atoms: C_18  and  C_19
REMARK   12  A    between atoms: C_18  and  C_20
REMARK                            x       y       z     vdW  Elec       q    Type
REMARK                         _______ _______ _______ _____ _____    ______ ____
ROOT
ATOM      1  O   UNL     1      -4.670 -12.583  18.824  0.00  0.00    -0.376 OA
ATOM      6  C   UNL     1      -5.442 -11.144  17.449  0.00  0.00    +0.072 C 
ATOM      7  C   UNL     1      -5.284 -11.282  18.960  0.00  0.00    +0.184 C 
ATOM      8  C   UNL     1      -4.876 -12.559  17.393  0.00  0.00    +0.184 C 
ENDROOT
BRANCH   6   4
ATOM      4  N   UNL     1      -6.869 -11.193  17.117  0.00  0.00    -0.306 NA
ATOM     21  H   UNL     1      -7.085 -11.662  16.240  0.00  0.00    +0.123 HD
BRANCH   4  10
ATOM     10  C   UNL     1      -7.407  -9.836  17.100  0.00  0.00    +0.087 C 
BRANCH  10  11
ATOM     11  C   UNL     1      -8.947  -9.764  17.258  0.00  0.00    -0.025 C 
ATOM     13  C   UNL     1      -9.330 -10.448  18.584  0.00  0.00    +0.012 C 
ATOM     14  C   UNL     1      -9.426  -8.301  17.303  0.00  0.00    +0.012 C 
ATOM     15  C   UNL     1      -9.661 -10.494  16.106  0.00  0.00    +0.012 C 
ENDBRANCH  10  11
ENDBRANCH   4  10
ENDBRANCH   6   4
BRANCH   6   9
ATOM      9  C   UNL     1      -4.715 -10.042  16.742  0.00  0.00    +0.085 C 
BRANCH   9  12
ATOM      2  O   UNL     1      -4.703 -10.971  13.250  0.00  0.00    -0.356 OA
ATOM      5  N   UNL     1      -5.352 -10.610  14.425  0.00  0.00    -0.083 NA
ATOM     12  C   UNL     1      -4.375 -10.446  15.322  0.00  0.00    +0.086 A 
ATOM     16  C   UNL     1      -3.102 -10.688  14.776  0.00  0.00    +0.074 A 
ATOM     17  C   UNL     1      -3.364 -11.015  13.472  0.00  0.00    +0.168 A 
BRANCH  17  18
ATOM     18  C   UNL     1      -2.522 -11.382  12.327  0.00  0.00    +0.120 C 
ATOM     19  C   UNL     1      -3.331 -12.012  11.156  0.00  0.00    +0.049 C 
ATOM     20  C   UNL     1      -1.701 -10.185  11.768  0.00  0.00    +0.049 C 
BRANCH  18   3
ATOM      3  O   UNL     1      -1.526 -12.387  12.668  0.00  0.00    -0.381 OA
ATOM     22  H   UNL     1      -0.811 -11.950  13.163  0.00  0.00    +0.211 HD
ENDBRANCH  18   3
ENDBRANCH  17  18
ENDBRANCH   9  12
ENDBRANCH   6   9
TORSDOF 7
ENDMDL
MODEL 9
REMARK VINA RESULT:      -4.7     29.014     31.436
REMARK  Name = 56775520
REMARK  12 active torsions:
REMARK  status: ('A' for Active; 'I' for Inactive)
REMARK    1  A    between atoms: O_3  and  C_18
REMARK    2  A    between atoms: N_4  and  C_6
REMARK    3  A    between atoms: N_4  and  C_10
REMARK    4  A    between atoms: C_6  and  C_9
REMARK    5  A    between atoms: C_9  and  C_12
REMARK    6  A    between atoms: C_10  and  C_11
REMARK    7  A    between atoms: C_11  and  C_13
REMARK    8  A    between atoms: C_11  and  C_14
REMARK    9  A    between atoms: C_11  and  C_15
REMARK   10  A    between atoms: C_17  and  C_18
REMARK   11  A    between atoms: C_18  and  C_19
REMARK   12  A    between atoms: C_18  and  C_20
REMARK                            x       y       z     vdW  Elec       q    Type
REMARK                         _______ _______ _______ _____ _____    ______ ____
ROOT
ATOM      1  O   UNL     1      14.748   6.562  20.844  0.00  0.00    -0.376 OA
ATOM      6  C   UNL     1      13.945   8.335  19.968  0.00  0.00    +0.072 C 
ATOM      7  C   UNL     1      14.461   6.982  19.491  0.00  0.00    +0.184 C 
ATOM      8  C   UNL     1      14.362   7.858  21.355  0.00  0.00    +0.184 C 
ENDROOT
BRANCH   6   4
ATOM      4  N   UNL     1      14.875   9.378  19.527  0.00  0.00    -0.306 NA
ATOM     21  H   UNL     1      15.096  10.077  20.234  0.00  0.00    +0.123 HD
BRANCH   4  10
ATOM     10  C   UNL     1      14.339  10.029  18.335  0.00  0.00    +0.087 C 
BRANCH  10  11
ATOM     11  C   UNL     1      14.816  11.492  18.145  0.00  0.00    -0.025 C 
ATOM     13  C   UNL     1      13.633  12.430  18.446  0.00  0.00    +0.012 C 
ATOM     14  C   UNL     1      15.966  11.823  19.113  0.00  0.00    +0.012 C 
ATOM     15  C   UNL     1      15.284  11.742  16.700  0.00  0.00    +0.012 C 
ENDBRANCH  10  11
ENDBRANCH   4  10
ENDBRANCH   6   4
BRANCH   6   9
ATOM      9  C   UNL     1      12.510   8.690  19.723  0.00  0.00    +0.085 C 
BRANCH   9  12
ATOM      2  O   UNL     1      10.708   9.731  22.677  0.00  0.00    -0.356 OA
ATOM      5  N   UNL     1      11.029   8.800  21.696  0.00  0.00    -0.083 NA
ATOM     12  C   UNL     1      11.925   9.415  20.917  0.00  0.00    +0.086 A 
ATOM     16  C   UNL     1      12.204  10.722  21.354  0.00  0.00    +0.074 A 
ATOM     17  C   UNL     1      11.414  10.871  22.462  0.00  0.00    +0.168 A 
BRANCH  17  18
ATOM     18  C   UNL     1      11.193  11.966  23.415  0.00  0.00    +0.120 C 
ATOM     19  C   UNL     1      12.145  11.902  24.645  0.00  0.00    +0.049 C 
ATOM     20  C   UNL     1      11.326  13.373  22.766  0.00  0.00    +0.049 C 
BRANCH  18   3
ATOM      3  O   UNL     1       9.854  11.947  23.985  0.00  0.00    -0.381 OA
ATOM     22  H   UNL     1       9.213  12.004  23.256  0.00  0.00    +0.211 HD
ENDBRANCH  18   3
ENDBRANCH  17  18
ENDBRANCH   9  12
ENDBRANCH   6   9
TORSDOF 7
ENDMDL
MODEL 10
REMARK VINA RESULT:      -4.7     31.710     33.878
REMARK  Name = 56775520
REMARK  12 active torsions:
REMARK  status: ('A' for Active; 'I' for Inactive)
REMARK    1  A    between atoms: O_3  and  C_18
REMARK    2  A    between atoms: N_4  and  C_6
REMARK    3  A    between atoms: N_4  and  C_10
REMARK    4  A    between atoms: C_6  and  C_9
REMARK    5  A    between atoms: C_9  and  C_12
REMARK    6  A    between atoms: C_10  and  C_11
REMARK    7  A    between atoms: C_11  and  C_13
REMARK    8  A    between atoms: C_11  and  C_14
REMARK    9  A    between atoms: C_11  and  C_15
REMARK   10  A    between atoms: C_17  and  C_18
REMARK   11  A    between atoms: C_18  and  C_19
REMARK   12  A    between atoms: C_18  and  C_20
REMARK                            x       y       z     vdW  Elec       q    Type
REMARK                         _______ _______ _______ _____ _____    ______ ____
ROOT
ATOM      1  O   UNL     1      12.742   7.149  17.339  0.00  0.00    -0.376 OA
ATOM      6  C   UNL     1      13.501   8.954  18.187  0.00  0.00    +0.072 C 
ATOM      7  C   UNL     1      13.900   7.976  17.087  0.00  0.00    +0.184 C 
ATOM      8  C   UNL     1      12.358   7.982  18.457  0.00  0.00    +0.184 C 
ENDROOT
BRANCH   6   4
ATOM      4  N   UNL     1      14.473   8.857  19.280  0.00  0.00    -0.306 NA
ATOM     21  H   UNL     1      14.478   7.961  19.765  0.00  0.00    +0.123 HD
BRANCH   4  10
ATOM     10  C   UNL     1      14.235   9.936  20.234  0.00  0.00    +0.087 C 
BRANCH  10  11
ATOM     11  C   UNL     1      13.848   9.450  21.655  0.00  0.00    -0.025 C 
ATOM     13  C   UNL     1      14.207   7.957  21.770  0.00  0.00    +0.012 C 
ATOM     14  C   UNL     1      14.626  10.228  22.731  0.00  0.00    +0.012 C 
ATOM     15  C   UNL     1      12.337   9.612  21.907  0.00  0.00    +0.012 C 
ENDBRANCH  10  11
ENDBRANCH   4  10
ENDBRANCH   6   4
BRANCH   6   9
ATOM      9  C   UNL     1      13.180  10.370  17.817  0.00  0.00    +0.085 C 
BRANCH   9  12
ATOM      2  O   UNL     1      15.969  11.679  15.928  0.00  0.00    -0.356 OA
ATOM      5  N   UNL     1      15.364  11.282  17.115  0.00  0.00    -0.083 NA
ATOM     12  C   UNL     1      14.140  10.880  16.762  0.00  0.00    +0.086 A 
ATOM     16  C   UNL     1      13.917  10.999  15.379  0.00  0.00    +0.074 A 
ATOM     17  C   UNL     1      15.096  11.505  14.901  0.00  0.00    +0.168 A 
BRANCH  17  18
ATOM     18  C   UNL     1      15.577  11.877  13.565  0.00  0.00    +0.120 C 
ATOM     19  C   UNL     1      14.707  12.977  12.890  0.00  0.00    +0.049 C 
ATOM     20  C   UNL     1      17.058  12.353  13.563  0.00  0.00    +0.049 C 
BRANCH  18   3
ATOM      3  O   UNL     1      15.547  10.761  12.632  0.00  0.00    -0.381 OA
ATOM     22  H   UNL     1      16.095  10.044  12.996  0.00  0.00    +0.211 HD
ENDBRANCH  18   3
ENDBRANCH  17  18
ENDBRANCH   9  12
ENDBRANCH   6   9
TORSDOF 7
ENDMDL
