MODEL 1
REMARK VINA RESULT:      -8.0      0.000      0.000
REMARK  Name = 51136835
REMARK  7 active torsions:
REMARK  status: ('A' for Active; 'I' for Inactive)
REMARK    1  A    between atoms: O_5  and  C_31
REMARK    2  A    between atoms: O_5  and  C_37
REMARK    3  A    between atoms: N_7  and  C_17
REMARK    4  A    between atoms: C_13  and  C_18
REMARK    5  A    between atoms: C_17  and  C_19
REMARK    6  A    between atoms: C_24  and  C_28
REMARK    7  A    between atoms: C_30  and  C_36
REMARK                            x       y       z     vdW  Elec       q    Type
REMARK                         _______ _______ _______ _____ _____    ______ ____
ROOT
ATOM      4  O   UNL     1      16.944  11.411  22.514  0.00  0.00    -0.336 OA
ATOM     10  N   UNL     1      15.499   9.883  21.743  0.00  0.00    -0.190 NA
ATOM     11  N   UNL     1      17.720  10.387  21.954  0.00  0.00    -0.056 NA
ATOM     18  C   UNL     1      15.648  11.034  22.347  0.00  0.00    +0.245 A 
ATOM     24  C   UNL     1      16.796   9.524  21.521  0.00  0.00    +0.202 A 
ENDROOT
BRANCH  24  28
ATOM      6  O   UNL     1      24.933   5.157  20.884  0.00  0.00    -0.276 OA
ATOM      8  N   UNL     1      19.966   6.031  20.520  0.00  0.00    -0.312 N 
ATOM      9  N   UNL     1      22.620   4.951  20.929  0.00  0.00    -0.299 N 
ATOM     12  N   UNL     1      17.800   5.897  19.587  0.00  0.00    -0.240 NA
ATOM     20  C   UNL     1      20.197   4.586  20.468  0.00  0.00    +0.125 C 
ATOM     21  C   UNL     1      21.122   6.912  20.705  0.00  0.00    +0.125 C 
ATOM     22  C   UNL     1      21.419   4.202  21.303  0.00  0.00    +0.126 C 
ATOM     23  C   UNL     1      22.404   6.222  20.242  0.00  0.00    +0.126 C 
ATOM     25  C   UNL     1      18.687   6.562  20.360  0.00  0.00    +0.122 A 
ATOM     28  C   UNL     1      17.137   8.294  20.863  0.00  0.00    +0.027 A 
ATOM     29  C   UNL     1      18.408   7.752  21.014  0.00  0.00    +0.055 A 
ATOM     30  C   UNL     1      23.921   4.527  21.198  0.00  0.00    +0.213 C 
ATOM     33  C   UNL     1      16.196   7.640  20.076  0.00  0.00    +0.031 A 
ATOM     35  C   UNL     1      16.574   6.455  19.465  0.00  0.00    +0.113 A 
ATOM     36  C   UNL     1      24.057   3.208  21.918  0.00  0.00    +0.109 C 
ENDBRANCH  24  28
BRANCH  18  13
ATOM      7  N   UNL     1      13.221  11.529  22.587  0.00  0.00    -0.287 NA
ATOM     13  C   UNL     1      14.596  11.986  22.876  0.00  0.00    +0.146 C 
ATOM     14  C   UNL     1      14.644  12.134  24.407  0.00  0.00    +0.030 C 
ATOM     15  C   UNL     1      13.237  11.800  24.885  0.00  0.00    +0.017 C 
ATOM     16  C   UNL     1      12.378  12.051  23.662  0.00  0.00    +0.085 C 
BRANCH   7  17
ATOM     17  C   UNL     1      12.746  11.936  21.270  0.00  0.00    +0.120 C 
BRANCH  17  19
ATOM     19  C   UNL     1      12.572  10.760  20.348  0.00  0.00    -0.030 A 
ATOM     26  C   UNL     1      11.814   9.662  20.754  0.00  0.00    +0.051 A 
ATOM     27  C   UNL     1      13.170  10.767  19.087  0.00  0.00    +0.005 A 
ATOM     31  C   UNL     1      11.654   8.570  19.900  0.00  0.00    +0.130 A 
ATOM     32  C   UNL     1      13.010   9.676  18.233  0.00  0.00    +0.004 A 
ATOM     34  C   UNL     1      12.252   8.577  18.639  0.00  0.00    +0.046 A 
BRANCH  31   5
ATOM      5  O   UNL     1      10.915   7.498  20.297  0.00  0.00    -0.406 OA
BRANCH   5  37
ATOM      1  F   UNL     1      12.669   6.790  21.582  0.00  0.00    -0.133 F 
ATOM      2  F   UNL     1      10.913   5.509  21.363  0.00  0.00    -0.133 F 
ATOM      3  F   UNL     1      10.766   7.321  22.573  0.00  0.00    -0.133 F 
ATOM     37  C   UNL     1      11.325   6.793  21.463  0.00  0.00    +0.575 C 
ENDBRANCH   5  37
ENDBRANCH  31   5
ENDBRANCH  17  19
ENDBRANCH   7  17
ENDBRANCH  18  13
TORSDOF 6
ENDMDL
MODEL 2
REMARK VINA RESULT:      -7.8      1.930      2.415
REMARK  Name = 51136835
REMARK  7 active torsions:
REMARK  status: ('A' for Active; 'I' for Inactive)
REMARK    1  A    between atoms: O_5  and  C_31
REMARK    2  A    between atoms: O_5  and  C_37
REMARK    3  A    between atoms: N_7  and  C_17
REMARK    4  A    between atoms: C_13  and  C_18
REMARK    5  A    between atoms: C_17  and  C_19
REMARK    6  A    between atoms: C_24  and  C_28
REMARK    7  A    between atoms: C_30  and  C_36
REMARK                            x       y       z     vdW  Elec       q    Type
REMARK                         _______ _______ _______ _____ _____    ______ ____
ROOT
ATOM      4  O   UNL     1      16.193  11.103  22.454  0.00  0.00    -0.336 OA
ATOM     10  N   UNL     1      15.002   9.475  21.481  0.00  0.00    -0.190 NA
ATOM     11  N   UNL     1      17.125  10.177  21.967  0.00  0.00    -0.056 NA
ATOM     18  C   UNL     1      14.969  10.612  22.126  0.00  0.00    +0.245 A 
ATOM     24  C   UNL     1      16.345   9.247  21.406  0.00  0.00    +0.202 A 
ENDROOT
BRANCH  24  28
ATOM      6  O   UNL     1      24.993   5.948  21.250  0.00  0.00    -0.276 OA
ATOM      8  N   UNL     1      19.986   6.194  20.585  0.00  0.00    -0.312 N 
ATOM      9  N   UNL     1      22.726   5.452  21.151  0.00  0.00    -0.299 N 
ATOM     12  N   UNL     1      17.916   5.800  19.520  0.00  0.00    -0.240 NA
ATOM     20  C   UNL     1      20.401   4.790  20.540  0.00  0.00    +0.125 C 
ATOM     21  C   UNL     1      21.009   7.210  20.846  0.00  0.00    +0.125 C 
ATOM     22  C   UNL     1      21.609   4.552  21.446  0.00  0.00    +0.126 C 
ATOM     23  C   UNL     1      22.393   6.693  20.459  0.00  0.00    +0.126 C 
ATOM     25  C   UNL     1      18.663   6.561  20.350  0.00  0.00    +0.122 A 
ATOM     28  C   UNL     1      16.878   8.078  20.765  0.00  0.00    +0.027 A 
ATOM     29  C   UNL     1      18.197   7.699  20.991  0.00  0.00    +0.055 A 
ATOM     30  C   UNL     1      24.052   5.191  21.497  0.00  0.00    +0.213 C 
ATOM     33  C   UNL     1      16.077   7.321  19.917  0.00  0.00    +0.031 A 
ATOM     35  C   UNL     1      16.638   6.201  19.325  0.00  0.00    +0.113 A 
ATOM     36  C   UNL     1      24.310   3.890  22.218  0.00  0.00    +0.109 C 
ENDBRANCH  24  28
BRANCH  18  13
ATOM      7  N   UNL     1      12.523  10.659  22.586  0.00  0.00    -0.287 NA
ATOM     13  C   UNL     1      13.774  11.443  22.548  0.00  0.00    +0.146 C 
ATOM     14  C   UNL     1      13.921  12.015  23.970  0.00  0.00    +0.030 C 
ATOM     15  C   UNL     1      12.677  11.551  24.716  0.00  0.00    +0.017 C 
ATOM     16  C   UNL     1      11.679  11.277  23.609  0.00  0.00    +0.085 C 
BRANCH   7  17
ATOM     17  C   UNL     1      11.853  10.582  21.294  0.00  0.00    +0.120 C 
BRANCH  17  19
ATOM     19  C   UNL     1      12.038   9.238  20.645  0.00  0.00    -0.030 A 
ATOM     26  C   UNL     1      12.255   9.152  19.270  0.00  0.00    +0.051 A 
ATOM     27  C   UNL     1      11.992   8.076  21.417  0.00  0.00    +0.005 A 
ATOM     31  C   UNL     1      12.425   7.905  18.666  0.00  0.00    +0.130 A 
ATOM     32  C   UNL     1      12.162   6.830  20.815  0.00  0.00    +0.004 A 
ATOM     34  C   UNL     1      12.379   6.744  19.439  0.00  0.00    +0.046 A 
BRANCH  31   5
ATOM      5  O   UNL     1      12.636   7.822  17.324  0.00  0.00    -0.406 OA
BRANCH   5  37
ATOM      1  F   UNL     1      13.907   8.473  15.538  0.00  0.00    -0.133 F 
ATOM      2  F   UNL     1      14.678   6.955  16.907  0.00  0.00    -0.133 F 
ATOM      3  F   UNL     1      14.561   9.032  17.573  0.00  0.00    -0.133 F 
ATOM     37  C   UNL     1      13.944   8.088  16.831  0.00  0.00    +0.575 C 
ENDBRANCH   5  37
ENDBRANCH  31   5
ENDBRANCH  17  19
ENDBRANCH   7  17
ENDBRANCH  18  13
TORSDOF 6
ENDMDL
MODEL 3
REMARK VINA RESULT:      -7.7     27.302     31.248
REMARK  Name = 51136835
REMARK  7 active torsions:
REMARK  status: ('A' for Active; 'I' for Inactive)
REMARK    1  A    between atoms: O_5  and  C_31
REMARK    2  A    between atoms: O_5  and  C_37
REMARK    3  A    between atoms: N_7  and  C_17
REMARK    4  A    between atoms: C_13  and  C_18
REMARK    5  A    between atoms: C_17  and  C_19
REMARK    6  A    between atoms: C_24  and  C_28
REMARK    7  A    between atoms: C_30  and  C_36
REMARK                            x       y       z     vdW  Elec       q    Type
REMARK                         _______ _______ _______ _____ _____    ______ ____
ROOT
ATOM      4  O   UNL     1      -4.319 -13.224  15.413  0.00  0.00    -0.336 OA
ATOM     10  N   UNL     1      -4.535 -11.281  16.508  0.00  0.00    -0.190 NA
ATOM     11  N   UNL     1      -5.520 -13.311  16.131  0.00  0.00    -0.056 NA
ATOM     18  C   UNL     1      -3.804 -11.997  15.692  0.00  0.00    +0.245 A 
ATOM     24  C   UNL     1      -5.577 -12.128  16.750  0.00  0.00    +0.202 A 
ENDROOT
BRANCH  24  28
ATOM      6  O   UNL     1     -12.263  -5.827  15.620  0.00  0.00    -0.276 OA
ATOM      8  N   UNL     1      -9.631  -9.663  17.604  0.00  0.00    -0.312 N 
ATOM      9  N   UNL     1     -11.642  -7.844  16.592  0.00  0.00    -0.299 N 
ATOM     12  N   UNL     1      -8.772 -11.054  19.307  0.00  0.00    -0.240 NA
ATOM     20  C   UNL     1     -11.011  -9.734  18.090  0.00  0.00    +0.125 C 
ATOM     21  C   UNL     1      -9.285  -8.600  16.656  0.00  0.00    +0.125 C 
ATOM     22  C   UNL     1     -11.984  -9.195  17.041  0.00  0.00    +0.126 C 
ATOM     23  C   UNL     1     -10.256  -7.428  16.782  0.00  0.00    +0.126 C 
ATOM     25  C   UNL     1      -8.662 -10.555  18.056  0.00  0.00    +0.122 A 
ATOM     28  C   UNL     1      -6.660 -11.763  17.618  0.00  0.00    +0.027 A 
ATOM     29  C   UNL     1      -7.636 -10.874  17.180  0.00  0.00    +0.055 A 
ATOM     30  C   UNL     1     -12.549  -6.964  15.999  0.00  0.00    +0.213 C 
ATOM     33  C   UNL     1      -6.739 -12.298  18.899  0.00  0.00    +0.031 A 
ATOM     35  C   UNL     1      -7.805 -11.915  19.697  0.00  0.00    +0.113 A 
ATOM     36  C   UNL     1     -13.960  -7.474  15.831  0.00  0.00    +0.109 C 
ENDBRANCH  24  28
BRANCH  18  13
ATOM      7  N   UNL     1      -2.647 -10.689  13.918  0.00  0.00    -0.287 NA
ATOM     13  C   UNL     1      -2.487 -11.652  15.027  0.00  0.00    +0.146 C 
ATOM     14  C   UNL     1      -1.494 -10.978  15.991  0.00  0.00    +0.030 C 
ATOM     15  C   UNL     1      -1.105  -9.671  15.312  0.00  0.00    +0.017 C 
ATOM     16  C   UNL     1      -1.398  -9.931  13.847  0.00  0.00    +0.085 C 
BRANCH   7  17
ATOM     17  C   UNL     1      -2.976 -11.324  12.649  0.00  0.00    +0.120 C 
BRANCH  17  19
ATOM     19  C   UNL     1      -3.668 -10.375  11.709  0.00  0.00    -0.030 A 
ATOM     26  C   UNL     1      -4.976  -9.965  11.969  0.00  0.00    +0.051 A 
ATOM     27  C   UNL     1      -3.002  -9.904  10.576  0.00  0.00    +0.005 A 
ATOM     31  C   UNL     1      -5.618  -9.085  11.096  0.00  0.00    +0.130 A 
ATOM     32  C   UNL     1      -3.644  -9.025   9.704  0.00  0.00    +0.004 A 
ATOM     34  C   UNL     1      -4.951  -8.615   9.964  0.00  0.00    +0.046 A 
BRANCH  31   5
ATOM      5  O   UNL     1      -6.894  -8.686  11.350  0.00  0.00    -0.406 OA
BRANCH   5  37
ATOM      1  F   UNL     1      -8.871  -8.647  10.201  0.00  0.00    -0.133 F 
ATOM      2  F   UNL     1      -8.582 -10.119  11.790  0.00  0.00    -0.133 F 
ATOM      3  F   UNL     1      -7.500 -10.354   9.908  0.00  0.00    -0.133 F 
ATOM     37  C   UNL     1      -7.961  -9.447  10.795  0.00  0.00    +0.575 C 
ENDBRANCH   5  37
ENDBRANCH  31   5
ENDBRANCH  17  19
ENDBRANCH   7  17
ENDBRANCH  18  13
TORSDOF 6
ENDMDL
MODEL 4
REMARK VINA RESULT:      -7.6     13.929     16.681
REMARK  Name = 51136835
REMARK  7 active torsions:
REMARK  status: ('A' for Active; 'I' for Inactive)
REMARK    1  A    between atoms: O_5  and  C_31
REMARK    2  A    between atoms: O_5  and  C_37
REMARK    3  A    between atoms: N_7  and  C_17
REMARK    4  A    between atoms: C_13  and  C_18
REMARK    5  A    between atoms: C_17  and  C_19
REMARK    6  A    between atoms: C_24  and  C_28
REMARK    7  A    between atoms: C_30  and  C_36
REMARK                            x       y       z     vdW  Elec       q    Type
REMARK                         _______ _______ _______ _____ _____    ______ ____
ROOT
ATOM      4  O   UNL     1      13.343  11.745   7.695  0.00  0.00    -0.336 OA
ATOM     10  N   UNL     1      12.308   9.997   6.752  0.00  0.00    -0.190 NA
ATOM     11  N   UNL     1      14.324  11.056   6.970  0.00  0.00    -0.056 NA
ATOM     18  C   UNL     1      12.186  11.054   7.513  0.00  0.00    +0.245 A 
ATOM     24  C   UNL     1      13.636  10.039   6.442  0.00  0.00    +0.202 A 
ENDROOT
BRANCH  24  28
ATOM      6  O   UNL     1       9.773   3.810   0.787  0.00  0.00    -0.276 OA
ATOM      8  N   UNL     1      13.313   6.616   3.062  0.00  0.00    -0.312 N 
ATOM      9  N   UNL     1      11.623   5.144   1.230  0.00  0.00    -0.299 N 
ATOM     12  N   UNL     1      15.436   7.117   3.968  0.00  0.00    -0.240 NA
ATOM     20  C   UNL     1      13.851   6.111   1.796  0.00  0.00    +0.125 C 
ATOM     21  C   UNL     1      11.927   6.289   3.405  0.00  0.00    +0.125 C 
ATOM     22  C   UNL     1      12.740   5.964   0.755  0.00  0.00    +0.126 C 
ATOM     23  C   UNL     1      11.475   5.024   2.677  0.00  0.00    +0.126 C 
ATOM     25  C   UNL     1      14.106   7.356   3.936  0.00  0.00    +0.122 A 
ATOM     28  C   UNL     1      14.247   9.046   5.603  0.00  0.00    +0.027 A 
ATOM     29  C   UNL     1      13.468   8.301   4.725  0.00  0.00    +0.055 A 
ATOM     30  C   UNL     1      10.715   4.500   0.390  0.00  0.00    +0.213 C 
ATOM     33  C   UNL     1      15.619   8.830   5.665  0.00  0.00    +0.031 A 
ATOM     35  C   UNL     1      16.159   7.862   4.834  0.00  0.00    +0.113 A 
ATOM     36  C   UNL     1      10.933   4.682  -1.093  0.00  0.00    +0.109 C 
ENDBRANCH  24  28
BRANCH  18  13
ATOM      7  N   UNL     1       9.992  10.548   8.573  0.00  0.00    -0.287 NA
ATOM     13  C   UNL     1      10.956  11.605   8.205  0.00  0.00    +0.146 C 
ATOM     14  C   UNL     1      11.288  12.311   9.532  0.00  0.00    +0.030 C 
ATOM     15  C   UNL     1      10.418  11.624  10.577  0.00  0.00    +0.017 C 
ATOM     16  C   UNL     1       9.287  11.028   9.761  0.00  0.00    +0.085 C 
BRANCH   7  17
ATOM     17  C   UNL     1       9.075  10.207   7.492  0.00  0.00    +0.120 C 
BRANCH  17  19
ATOM     19  C   UNL     1       9.066   8.729   7.210  0.00  0.00    -0.030 A 
ATOM     26  C   UNL     1       9.691   7.847   8.092  0.00  0.00    +0.051 A 
ATOM     27  C   UNL     1       8.433   8.239   6.067  0.00  0.00    +0.005 A 
ATOM     31  C   UNL     1       9.684   6.476   7.830  0.00  0.00    +0.130 A 
ATOM     32  C   UNL     1       8.426   6.869   5.805  0.00  0.00    +0.004 A 
ATOM     34  C   UNL     1       9.051   5.987   6.687  0.00  0.00    +0.046 A 
BRANCH  31   5
ATOM      5  O   UNL     1      10.295   5.616   8.691  0.00  0.00    -0.406 OA
BRANCH   5  37
ATOM      1  F   UNL     1       8.353   5.442   9.887  0.00  0.00    -0.133 F 
ATOM      2  F   UNL     1      10.165   4.476  10.635  0.00  0.00    -0.133 F 
ATOM      3  F   UNL     1       9.155   3.643   8.886  0.00  0.00    -0.133 F 
ATOM     37  C   UNL     1       9.476   4.793   9.515  0.00  0.00    +0.575 C 
ENDBRANCH   5  37
ENDBRANCH  31   5
ENDBRANCH  17  19
ENDBRANCH   7  17
ENDBRANCH  18  13
TORSDOF 6
ENDMDL
MODEL 5
REMARK VINA RESULT:      -7.5     28.345     30.717
REMARK  Name = 51136835
REMARK  7 active torsions:
REMARK  status: ('A' for Active; 'I' for Inactive)
REMARK    1  A    between atoms: O_5  and  C_31
REMARK    2  A    between atoms: O_5  and  C_37
REMARK    3  A    between atoms: N_7  and  C_17
REMARK    4  A    between atoms: C_13  and  C_18
REMARK    5  A    between atoms: C_17  and  C_19
REMARK    6  A    between atoms: C_24  and  C_28
REMARK    7  A    between atoms: C_30  and  C_36
REMARK                            x       y       z     vdW  Elec       q    Type
REMARK                         _______ _______ _______ _____ _____    ______ ____
ROOT
ATOM      4  O   UNL     1      -4.496 -12.386  16.659  0.00  0.00    -0.336 OA
ATOM     10  N   UNL     1      -4.764 -10.335  15.799  0.00  0.00    -0.190 NA
ATOM     11  N   UNL     1      -3.913 -12.418  15.386  0.00  0.00    -0.056 NA
ATOM     18  C   UNL     1      -4.973 -11.123  16.822  0.00  0.00    +0.245 A 
ATOM     24  C   UNL     1      -4.111 -11.173  14.942  0.00  0.00    +0.202 A 
ENDROOT
BRANCH  24  28
ATOM      6  O   UNL     1      -8.956  -9.527   7.228  0.00  0.00    -0.276 OA
ATOM      8  N   UNL     1      -5.066  -9.689  10.456  0.00  0.00    -0.312 N 
ATOM      9  N   UNL     1      -7.072  -9.007   8.484  0.00  0.00    -0.299 N 
ATOM     12  N   UNL     1      -2.810  -9.880  11.129  0.00  0.00    -0.240 NA
ATOM     20  C   UNL     1      -4.788  -8.680   9.430  0.00  0.00    +0.125 C 
ATOM     21  C   UNL     1      -6.350 -10.392  10.406  0.00  0.00    +0.125 C 
ATOM     22  C   UNL     1      -6.084  -8.029   8.945  0.00  0.00    +0.126 C 
ATOM     23  C   UNL     1      -6.923 -10.368   8.990  0.00  0.00    +0.126 C 
ATOM     25  C   UNL     1      -4.122 -10.000  11.432  0.00  0.00    +0.122 A 
ATOM     28  C   UNL     1      -3.669 -10.735  13.648  0.00  0.00    +0.027 A 
ATOM     29  C   UNL     1      -4.599 -10.420  12.664  0.00  0.00    +0.055 A 
ATOM     30  C   UNL     1      -8.123  -8.706   7.617  0.00  0.00    +0.213 C 
ATOM     33  C   UNL     1      -2.310 -10.624  13.375  0.00  0.00    +0.031 A 
ATOM     35  C   UNL     1      -1.936 -10.196  12.112  0.00  0.00    +0.113 A 
ATOM     36  C   UNL     1      -8.211  -7.275   7.147  0.00  0.00    +0.109 C 
ENDBRANCH  24  28
BRANCH  18  13
ATOM      7  N   UNL     1      -7.112 -10.606  17.985  0.00  0.00    -0.287 NA
ATOM     13  C   UNL     1      -5.660 -10.826  18.139  0.00  0.00    +0.146 C 
ATOM     14  C   UNL     1      -5.545 -11.987  19.144  0.00  0.00    +0.030 C 
ATOM     15  C   UNL     1      -6.978 -12.311  19.544  0.00  0.00    +0.017 C 
ATOM     16  C   UNL     1      -7.730 -11.030  19.241  0.00  0.00    +0.085 C 
BRANCH   7  17
ATOM     17  C   UNL     1      -7.451  -9.230  17.643  0.00  0.00    +0.120 C 
BRANCH  17  19
ATOM     19  C   UNL     1      -8.441  -9.161  16.513  0.00  0.00    -0.030 A 
ATOM     26  C   UNL     1      -9.575  -8.356  16.628  0.00  0.00    +0.051 A 
ATOM     27  C   UNL     1      -8.227  -9.900  15.349  0.00  0.00    +0.005 A 
ATOM     31  C   UNL     1     -10.495  -8.293  15.579  0.00  0.00    +0.130 A 
ATOM     32  C   UNL     1      -9.146  -9.837  14.302  0.00  0.00    +0.004 A 
ATOM     34  C   UNL     1     -10.280  -9.033  14.417  0.00  0.00    +0.046 A 
BRANCH  31   5
ATOM      5  O   UNL     1     -11.602  -7.508  15.693  0.00  0.00    -0.406 OA
BRANCH   5  37
ATOM      1  F   UNL     1     -10.306  -5.746  15.025  0.00  0.00    -0.133 F 
ATOM      2  F   UNL     1     -11.312  -5.665  16.963  0.00  0.00    -0.133 F 
ATOM      3  F   UNL     1     -12.496  -5.478  15.138  0.00  0.00    -0.133 F 
ATOM     37  C   UNL     1     -11.429  -6.096  15.687  0.00  0.00    +0.575 C 
ENDBRANCH   5  37
ENDBRANCH  31   5
ENDBRANCH  17  19
ENDBRANCH   7  17
ENDBRANCH  18  13
TORSDOF 6
ENDMDL
MODEL 6
REMARK VINA RESULT:      -7.4     27.733     31.530
REMARK  Name = 51136835
REMARK  7 active torsions:
REMARK  status: ('A' for Active; 'I' for Inactive)
REMARK    1  A    between atoms: O_5  and  C_31
REMARK    2  A    between atoms: O_5  and  C_37
REMARK    3  A    between atoms: N_7  and  C_17
REMARK    4  A    between atoms: C_13  and  C_18
REMARK    5  A    between atoms: C_17  and  C_19
REMARK    6  A    between atoms: C_24  and  C_28
REMARK    7  A    between atoms: C_30  and  C_36
REMARK                            x       y       z     vdW  Elec       q    Type
REMARK                         _______ _______ _______ _____ _____    ______ ____
ROOT
ATOM      4  O   UNL     1     -11.243  -5.791  15.385  0.00  0.00    -0.336 OA
ATOM     10  N   UNL     1     -12.027  -7.685  16.288  0.00  0.00    -0.190 NA
ATOM     11  N   UNL     1     -10.123  -6.501  15.837  0.00  0.00    -0.056 NA
ATOM     18  C   UNL     1     -12.322  -6.560  15.691  0.00  0.00    +0.245 A 
ATOM     24  C   UNL     1     -10.667  -7.606  16.355  0.00  0.00    +0.202 A 
ENDROOT
BRANCH  24  28
ATOM      6  O   UNL     1      -2.476 -11.086  13.805  0.00  0.00    -0.276 OA
ATOM      8  N   UNL     1      -6.603 -10.190  16.589  0.00  0.00    -0.312 N 
ATOM      9  N   UNL     1      -3.937 -10.648  15.558  0.00  0.00    -0.299 N 
ATOM     12  N   UNL     1      -8.342 -10.675  18.111  0.00  0.00    -0.240 NA
ATOM     20  C   UNL     1      -5.546 -10.707  17.462  0.00  0.00    +0.125 C 
ATOM     21  C   UNL     1      -6.292  -9.987  15.171  0.00  0.00    +0.125 C 
ATOM     22  C   UNL     1      -4.168 -10.280  16.957  0.00  0.00    +0.126 C 
ATOM     23  C   UNL     1      -5.126 -10.875  14.743  0.00  0.00    +0.126 C 
ATOM     25  C   UNL     1      -7.880  -9.932  17.081  0.00  0.00    +0.122 A 
ATOM     28  C   UNL     1      -9.878  -8.648  16.951  0.00  0.00    +0.027 A 
ATOM     29  C   UNL     1      -8.601  -8.917  16.471  0.00  0.00    +0.055 A 
ATOM     30  C   UNL     1      -2.673 -10.777  14.983  0.00  0.00    +0.213 C 
ATOM     33  C   UNL     1     -10.389  -9.391  18.010  0.00  0.00    +0.031 A 
ATOM     35  C   UNL     1      -9.588 -10.383  18.550  0.00  0.00    +0.113 A 
ATOM     36  C   UNL     1      -1.496 -10.516  15.892  0.00  0.00    +0.109 C 
ENDBRANCH  24  28
BRANCH  18  13
ATOM      7  N   UNL     1     -13.795  -5.770  13.846  0.00  0.00    -0.287 NA
ATOM     13  C   UNL     1     -13.677  -6.005  15.299  0.00  0.00    +0.146 C 
ATOM     14  C   UNL     1     -14.832  -6.967  15.635  0.00  0.00    +0.030 C 
ATOM     15  C   UNL     1     -15.579  -7.166  14.323  0.00  0.00    +0.017 C 
ATOM     16  C   UNL     1     -15.210  -5.938  13.514  0.00  0.00    +0.085 C 
BRANCH   7  17
ATOM     17  C   UNL     1     -13.285  -4.470  13.431  0.00  0.00    +0.120 C 
BRANCH  17  19
ATOM     19  C   UNL     1     -13.012  -4.419  11.952  0.00  0.00    -0.030 A 
ATOM     26  C   UNL     1     -12.129  -5.331  11.375  0.00  0.00    +0.051 A 
ATOM     27  C   UNL     1     -13.642  -3.460  11.158  0.00  0.00    +0.005 A 
ATOM     31  C   UNL     1     -11.874  -5.284  10.003  0.00  0.00    +0.130 A 
ATOM     32  C   UNL     1     -13.388  -3.413   9.787  0.00  0.00    +0.004 A 
ATOM     34  C   UNL     1     -12.505  -4.325   9.210  0.00  0.00    +0.046 A 
BRANCH  31   5
ATOM      5  O   UNL     1     -11.011  -6.174   9.441  0.00  0.00    -0.406 OA
BRANCH   5  37
ATOM      1  F   UNL     1     -10.236  -5.680   7.346  0.00  0.00    -0.133 F 
ATOM      2  F   UNL     1      -8.852  -6.455   8.849  0.00  0.00    -0.133 F 
ATOM      3  F   UNL     1      -9.605  -4.414   9.044  0.00  0.00    -0.133 F 
ATOM     37  C   UNL     1      -9.934  -5.666   8.662  0.00  0.00    +0.575 C 
ENDBRANCH   5  37
ENDBRANCH  31   5
ENDBRANCH  17  19
ENDBRANCH   7  17
ENDBRANCH  18  13
TORSDOF 6
ENDMDL
MODEL 7
REMARK VINA RESULT:      -7.3     17.760     22.162
REMARK  Name = 51136835
REMARK  7 active torsions:
REMARK  status: ('A' for Active; 'I' for Inactive)
REMARK    1  A    between atoms: O_5  and  C_31
REMARK    2  A    between atoms: O_5  and  C_37
REMARK    3  A    between atoms: N_7  and  C_17
REMARK    4  A    between atoms: C_13  and  C_18
REMARK    5  A    between atoms: C_17  and  C_19
REMARK    6  A    between atoms: C_24  and  C_28
REMARK    7  A    between atoms: C_30  and  C_36
REMARK                            x       y       z     vdW  Elec       q    Type
REMARK                         _______ _______ _______ _____ _____    ______ ____
ROOT
ATOM      4  O   UNL     1       9.899   8.700   1.115  0.00  0.00    -0.336 OA
ATOM     10  N   UNL     1       8.489   7.932   2.677  0.00  0.00    -0.190 NA
ATOM     11  N   UNL     1       8.840   9.615   1.168  0.00  0.00    -0.056 NA
ATOM     18  C   UNL     1       9.613   7.741   2.035  0.00  0.00    +0.245 A 
ATOM     24  C   UNL     1       8.050   9.094   2.112  0.00  0.00    +0.202 A 
ENDROOT
BRANCH  24  28
ATOM      6  O   UNL     1       0.950  12.100  -3.010  0.00  0.00    -0.276 OA
ATOM      8  N   UNL     1       3.666  10.796   1.052  0.00  0.00    -0.312 N 
ATOM      9  N   UNL     1       1.638  11.235  -0.967  0.00  0.00    -0.299 N 
ATOM     12  N   UNL     1       4.410  10.901   3.290  0.00  0.00    -0.240 NA
ATOM     20  C   UNL     1       2.245  10.788   1.410  0.00  0.00    +0.125 C 
ATOM     21  C   UNL     1       4.029  11.109  -0.333  0.00  0.00    +0.125 C 
ATOM     22  C   UNL     1       1.385  10.397   0.207  0.00  0.00    +0.126 C 
ATOM     23  C   UNL     1       2.926  11.921  -1.009  0.00  0.00    +0.126 C 
ATOM     25  C   UNL     1       4.649  10.551   2.007  0.00  0.00    +0.122 A 
ATOM     28  C   UNL     1       6.815   9.708   2.512  0.00  0.00    +0.027 A 
ATOM     29  C   UNL     1       5.824   9.958   1.570  0.00  0.00    +0.055 A 
ATOM     30  C   UNL     1       0.738  11.396  -2.021  0.00  0.00    +0.213 C 
ATOM     33  C   UNL     1       6.607  10.054   3.843  0.00  0.00    +0.031 A 
ATOM     35  C   UNL     1       5.398  10.642   4.177  0.00  0.00    +0.113 A 
ATOM     36  C   UNL     1      -0.566  10.646  -1.904  0.00  0.00    +0.109 C 
ENDBRANCH  24  28
BRANCH  18  13
ATOM      7  N   UNL     1      10.511   5.915   3.469  0.00  0.00    -0.287 NA
ATOM     13  C   UNL     1      10.621   6.618   2.174  0.00  0.00    +0.146 C 
ATOM     14  C   UNL     1      10.434   5.517   1.114  0.00  0.00    +0.030 C 
ATOM     15  C   UNL     1      10.289   4.224   1.905  0.00  0.00    +0.017 C 
ATOM     16  C   UNL     1      10.952   4.541   3.231  0.00  0.00    +0.085 C 
BRANCH   7  17
ATOM     17  C   UNL     1      11.268   6.557   4.536  0.00  0.00    +0.120 C 
BRANCH  17  19
ATOM     19  C   UNL     1      10.440   6.740   5.779  0.00  0.00    -0.030 A 
ATOM     26  C   UNL     1      10.778   6.059   6.949  0.00  0.00    +0.051 A 
ATOM     27  C   UNL     1       9.334   7.590   5.763  0.00  0.00    +0.005 A 
ATOM     31  C   UNL     1      10.009   6.227   8.101  0.00  0.00    +0.130 A 
ATOM     32  C   UNL     1       8.565   7.759   6.914  0.00  0.00    +0.004 A 
ATOM     34  C   UNL     1       8.903   7.078   8.084  0.00  0.00    +0.046 A 
BRANCH  31   5
ATOM      5  O   UNL     1      10.339   5.562   9.242  0.00  0.00    -0.406 OA
BRANCH   5  37
ATOM      1  F   UNL     1       9.219   3.640   8.710  0.00  0.00    -0.133 F 
ATOM      2  F   UNL     1       8.295   5.080  10.068  0.00  0.00    -0.133 F 
ATOM      3  F   UNL     1       9.990   3.892  10.765  0.00  0.00    -0.133 F 
ATOM     37  C   UNL     1       9.471   4.528   9.694  0.00  0.00    +0.575 C 
ENDBRANCH   5  37
ENDBRANCH  31   5
ENDBRANCH  17  19
ENDBRANCH   7  17
ENDBRANCH  18  13
TORSDOF 6
ENDMDL
MODEL 8
REMARK VINA RESULT:      -7.2     28.354     32.623
REMARK  Name = 51136835
REMARK  7 active torsions:
REMARK  status: ('A' for Active; 'I' for Inactive)
REMARK    1  A    between atoms: O_5  and  C_31
REMARK    2  A    between atoms: O_5  and  C_37
REMARK    3  A    between atoms: N_7  and  C_17
REMARK    4  A    between atoms: C_13  and  C_18
REMARK    5  A    between atoms: C_17  and  C_19
REMARK    6  A    between atoms: C_24  and  C_28
REMARK    7  A    between atoms: C_30  and  C_36
REMARK                            x       y       z     vdW  Elec       q    Type
REMARK                         _______ _______ _______ _____ _____    ______ ____
ROOT
ATOM      4  O   UNL     1     -16.506   4.765  21.461  0.00  0.00    -0.336 OA
ATOM     10  N   UNL     1     -17.696   6.324  22.541  0.00  0.00    -0.190 NA
ATOM     11  N   UNL     1     -16.355   4.493  22.827  0.00  0.00    -0.056 NA
ATOM     18  C   UNL     1     -17.310   5.858  21.381  0.00  0.00    +0.245 A 
ATOM     24  C   UNL     1     -17.087   5.455  23.398  0.00  0.00    +0.202 A 
ENDROOT
BRANCH  24  28
ATOM      6  O   UNL     1     -15.505  -0.737  30.095  0.00  0.00    -0.276 OA
ATOM      8  N   UNL     1     -16.520   3.676  27.843  0.00  0.00    -0.312 N 
ATOM      9  N   UNL     1     -15.557   1.509  29.502  0.00  0.00    -0.299 N 
ATOM     12  N   UNL     1     -17.496   5.813  27.594  0.00  0.00    -0.240 NA
ATOM     20  C   UNL     1     -16.028   3.939  29.198  0.00  0.00    +0.125 C 
ATOM     21  C   UNL     1     -16.583   2.286  27.386  0.00  0.00    +0.125 C 
ATOM     22  C   UNL     1     -15.024   2.868  29.627  0.00  0.00    +0.126 C 
ATOM     23  C   UNL     1     -16.671   1.331  28.575  0.00  0.00    +0.126 C 
ATOM     25  C   UNL     1     -16.953   4.715  27.022  0.00  0.00    +0.122 A 
ATOM     28  C   UNL     1     -17.227   5.576  24.822  0.00  0.00    +0.027 A 
ATOM     29  C   UNL     1     -16.798   4.549  25.654  0.00  0.00    +0.055 A 
ATOM     30  C   UNL     1     -15.059   0.408  30.199  0.00  0.00    +0.213 C 
ATOM     33  C   UNL     1     -17.789   6.722  25.372  0.00  0.00    +0.031 A 
ATOM     35  C   UNL     1     -17.900   6.791  26.752  0.00  0.00    +0.113 A 
ATOM     36  C   UNL     1     -13.901   0.676  31.130  0.00  0.00    +0.109 C 
ENDBRANCH  24  28
BRANCH  18  13
ATOM      7  N   UNL     1     -16.428   6.482  19.139  0.00  0.00    -0.287 NA
ATOM     13  C   UNL     1     -17.630   6.359  19.988  0.00  0.00    +0.146 C 
ATOM     14  C   UNL     1     -18.561   5.409  19.214  0.00  0.00    +0.030 C 
ATOM     15  C   UNL     1     -17.825   5.099  17.917  0.00  0.00    +0.017 C 
ATOM     16  C   UNL     1     -16.872   6.267  17.762  0.00  0.00    +0.085 C 
BRANCH   7  17
ATOM     17  C   UNL     1     -15.737   7.754  19.301  0.00  0.00    +0.120 C 
BRANCH  17  19
ATOM     19  C   UNL     1     -14.273   7.566  19.591  0.00  0.00    -0.030 A 
ATOM     26  C   UNL     1     -13.320   7.945  18.646  0.00  0.00    +0.051 A 
ATOM     27  C   UNL     1     -13.867   7.011  20.806  0.00  0.00    +0.005 A 
ATOM     31  C   UNL     1     -11.962   7.768  18.914  0.00  0.00    +0.130 A 
ATOM     32  C   UNL     1     -12.510   6.834  21.074  0.00  0.00    +0.004 A 
ATOM     34  C   UNL     1     -11.557   7.213  20.129  0.00  0.00    +0.046 A 
BRANCH  31   5
ATOM      5  O   UNL     1     -11.033   8.138  17.991  0.00  0.00    -0.406 OA
BRANCH   5  37
ATOM      1  F   UNL     1      -9.772   9.773  17.007  0.00  0.00    -0.133 F 
ATOM      2  F   UNL     1      -9.464   9.304  19.118  0.00  0.00    -0.133 F 
ATOM      3  F   UNL     1     -11.283  10.350  18.512  0.00  0.00    -0.133 F 
ATOM     37  C   UNL     1     -10.397   9.402  18.144  0.00  0.00    +0.575 C 
ENDBRANCH   5  37
ENDBRANCH  31   5
ENDBRANCH  17  19
ENDBRANCH   7  17
ENDBRANCH  18  13
TORSDOF 6
ENDMDL
MODEL 9
REMARK VINA RESULT:      -7.1     18.916     22.521
REMARK  Name = 51136835
REMARK  7 active torsions:
REMARK  status: ('A' for Active; 'I' for Inactive)
REMARK    1  A    between atoms: O_5  and  C_31
REMARK    2  A    between atoms: O_5  and  C_37
REMARK    3  A    between atoms: N_7  and  C_17
REMARK    4  A    between atoms: C_13  and  C_18
REMARK    5  A    between atoms: C_17  and  C_19
REMARK    6  A    between atoms: C_24  and  C_28
REMARK    7  A    between atoms: C_30  and  C_36
REMARK                            x       y       z     vdW  Elec       q    Type
REMARK                         _______ _______ _______ _____ _____    ______ ____
ROOT
ATOM      4  O   UNL     1      11.495   7.070  -2.435  0.00  0.00    -0.336 OA
ATOM     10  N   UNL     1       9.523   6.312  -1.689  0.00  0.00    -0.190 NA
ATOM     11  N   UNL     1      10.987   8.068  -1.592  0.00  0.00    -0.056 NA
ATOM     18  C   UNL     1      10.571   6.073  -2.435  0.00  0.00    +0.245 A 
ATOM     24  C   UNL     1       9.823   7.547  -1.192  0.00  0.00    +0.202 A 
ENDROOT
BRANCH  24  28
ATOM      6  O   UNL     1       8.937   6.896   8.000  0.00  0.00    -0.276 OA
ATOM      8  N   UNL     1       8.341   8.597   3.275  0.00  0.00    -0.312 N 
ATOM      9  N   UNL     1       8.728   8.248   6.122  0.00  0.00    -0.299 N 
ATOM     12  N   UNL     1       7.213   9.578   1.447  0.00  0.00    -0.240 NA
ATOM     20  C   UNL     1       7.982   9.665   4.211  0.00  0.00    +0.125 C 
ATOM     21  C   UNL     1       8.824   7.327   3.825  0.00  0.00    +0.125 C 
ATOM     22  C   UNL     1       8.813   9.566   5.491  0.00  0.00    +0.126 C 
ATOM     23  C   UNL     1       8.332   7.139   5.258  0.00  0.00    +0.126 C 
ATOM     25  C   UNL     1       8.193   8.766   1.900  0.00  0.00    +0.122 A 
ATOM     28  C   UNL     1       8.936   8.236  -0.296  0.00  0.00    +0.027 A 
ATOM     29  C   UNL     1       9.073   8.078   1.078  0.00  0.00    +0.055 A 
ATOM     30  C   UNL     1       9.008   8.006   7.467  0.00  0.00    +0.213 C 
ATOM     33  C   UNL     1       7.940   9.064  -0.801  0.00  0.00    +0.031 A 
ATOM     35  C   UNL     1       7.112   9.707   0.104  0.00  0.00    +0.113 A 
ATOM     36  C   UNL     1       9.419   9.203   8.289  0.00  0.00    +0.109 C 
ENDBRANCH  24  28
BRANCH  18  13
ATOM      7  N   UNL     1      11.508   3.768  -2.503  0.00  0.00    -0.287 NA
ATOM     13  C   UNL     1      10.889   4.859  -3.284  0.00  0.00    +0.146 C 
ATOM     14  C   UNL     1       9.634   4.228  -3.913  0.00  0.00    +0.030 C 
ATOM     15  C   UNL     1       9.664   2.768  -3.481  0.00  0.00    +0.017 C 
ATOM     16  C   UNL     1      11.126   2.520  -3.164  0.00  0.00    +0.085 C 
BRANCH   7  17
ATOM     17  C   UNL     1      12.953   3.901  -2.376  0.00  0.00    +0.120 C 
BRANCH  17  19
ATOM     19  C   UNL     1      13.402   3.799  -0.944  0.00  0.00    -0.030 A 
ATOM     26  C   UNL     1      12.470   3.549   0.063  0.00  0.00    +0.051 A 
ATOM     27  C   UNL     1      14.751   3.954  -0.622  0.00  0.00    +0.005 A 
ATOM     31  C   UNL     1      12.886   3.456   1.392  0.00  0.00    +0.130 A 
ATOM     32  C   UNL     1      15.167   3.860   0.706  0.00  0.00    +0.004 A 
ATOM     34  C   UNL     1      14.235   3.610   1.713  0.00  0.00    +0.046 A 
BRANCH  31   5
ATOM      5  O   UNL     1      11.975   3.213   2.374  0.00  0.00    -0.406 OA
BRANCH   5  37
ATOM      1  F   UNL     1      10.635   4.024   4.040  0.00  0.00    -0.133 F 
ATOM      2  F   UNL     1      10.165   4.496   1.959  0.00  0.00    -0.133 F 
ATOM      3  F   UNL     1      11.897   5.436   2.902  0.00  0.00    -0.133 F 
ATOM     37  C   UNL     1      11.176   4.297   2.835  0.00  0.00    +0.575 C 
ENDBRANCH   5  37
ENDBRANCH  31   5
ENDBRANCH  17  19
ENDBRANCH   7  17
ENDBRANCH  18  13
TORSDOF 6
ENDMDL
MODEL 10
REMARK VINA RESULT:      -7.0      2.585      3.428
REMARK  Name = 51136835
REMARK  7 active torsions:
REMARK  status: ('A' for Active; 'I' for Inactive)
REMARK    1  A    between atoms: O_5  and  C_31
REMARK    2  A    between atoms: O_5  and  C_37
REMARK    3  A    between atoms: N_7  and  C_17
REMARK    4  A    between atoms: C_13  and  C_18
REMARK    5  A    between atoms: C_17  and  C_19
REMARK    6  A    between atoms: C_24  and  C_28
REMARK    7  A    between atoms: C_30  and  C_36
REMARK                            x       y       z     vdW  Elec       q    Type
REMARK                         _______ _______ _______ _____ _____    ______ ____
ROOT
ATOM      4  O   UNL     1      14.875  11.402  22.882  0.00  0.00    -0.336 OA
ATOM     10  N   UNL     1      15.607  10.567  20.937  0.00  0.00    -0.190 NA
ATOM     11  N   UNL     1      16.272  11.353  22.980  0.00  0.00    -0.056 NA
ATOM     18  C   UNL     1      14.568  10.921  21.648  0.00  0.00    +0.245 A 
ATOM     24  C   UNL     1      16.630  10.850  21.795  0.00  0.00    +0.202 A 
ENDROOT
BRANCH  24  28
ATOM      6  O   UNL     1      22.086   3.570  23.505  0.00  0.00    -0.276 OA
ATOM      8  N   UNL     1      20.483   7.961  21.573  0.00  0.00    -0.312 N 
ATOM      9  N   UNL     1      21.603   5.340  22.080  0.00  0.00    -0.299 N 
ATOM     12  N   UNL     1      20.669  10.162  20.739  0.00  0.00    -0.240 NA
ATOM     20  C   UNL     1      21.551   7.431  20.722  0.00  0.00    +0.125 C 
ATOM     21  C   UNL     1      20.057   7.164  22.727  0.00  0.00    +0.125 C 
ATOM     22  C   UNL     1      21.541   5.902  20.729  0.00  0.00    +0.126 C 
ATOM     23  C   UNL     1      21.170   6.214  23.166  0.00  0.00    +0.126 C 
ATOM     25  C   UNL     1      19.911   9.205  21.319  0.00  0.00    +0.122 A 
ATOM     28  C   UNL     1      18.001  10.617  21.437  0.00  0.00    +0.027 A 
ATOM     29  C   UNL     1      18.585   9.380  21.684  0.00  0.00    +0.055 A 
ATOM     30  C   UNL     1      22.033   4.045  22.369  0.00  0.00    +0.213 C 
ATOM     33  C   UNL     1      18.748  11.628  20.842  0.00  0.00    +0.031 A 
ATOM     35  C   UNL     1      20.065  11.352  20.515  0.00  0.00    +0.113 A 
ATOM     36  C   UNL     1      22.456   3.204  21.189  0.00  0.00    +0.109 C 
ENDBRANCH  24  28
BRANCH  18  13
ATOM      7  N   UNL     1      12.268  10.311  22.380  0.00  0.00    -0.287 NA
ATOM     13  C   UNL     1      13.096  10.870  21.292  0.00  0.00    +0.146 C 
ATOM     14  C   UNL     1      12.501  12.265  21.025  0.00  0.00    +0.030 C 
ATOM     15  C   UNL     1      11.308  12.375  21.964  0.00  0.00    +0.017 C 
ATOM     16  C   UNL     1      10.949  10.932  22.255  0.00  0.00    +0.085 C 
BRANCH   7  17
ATOM     17  C   UNL     1      12.194   8.856  22.355  0.00  0.00    +0.120 C 
BRANCH  17  19
ATOM     19  C   UNL     1      12.643   8.294  21.033  0.00  0.00    -0.030 A 
ATOM     26  C   UNL     1      13.751   7.449  20.975  0.00  0.00    +0.051 A 
ATOM     27  C   UNL     1      11.952   8.618  19.865  0.00  0.00    +0.005 A 
ATOM     31  C   UNL     1      14.169   6.928  19.749  0.00  0.00    +0.130 A 
ATOM     32  C   UNL     1      12.370   8.098  18.640  0.00  0.00    +0.004 A 
ATOM     34  C   UNL     1      13.478   7.253  18.582  0.00  0.00    +0.046 A 
BRANCH  31   5
ATOM      5  O   UNL     1      15.251   6.104  19.694  0.00  0.00    -0.406 OA
BRANCH   5  37
ATOM      1  F   UNL     1      17.415   6.084  18.955  0.00  0.00    -0.133 F 
ATOM      2  F   UNL     1      17.003   6.519  21.056  0.00  0.00    -0.133 F 
ATOM      3  F   UNL     1      16.505   8.011  19.540  0.00  0.00    -0.133 F 
ATOM     37  C   UNL     1      16.546   6.686  19.794  0.00  0.00    +0.575 C 
ENDBRANCH   5  37
ENDBRANCH  31   5
ENDBRANCH  17  19
ENDBRANCH   7  17
ENDBRANCH  18  13
TORSDOF 6
ENDMDL
