MODEL 1
REMARK VINA RESULT:      -6.1      0.000      0.000
REMARK  Name = 11865843
REMARK  11 active torsions:
REMARK  status: ('A' for Active; 'I' for Inactive)
REMARK    1  A    between atoms: S_1  and  C_19
REMARK    2  A    between atoms: S_1  and  C_26
REMARK    3  A    between atoms: N_7  and  C_11
REMARK    4  A    between atoms: N_8  and  C_17
REMARK    5  A    between atoms: N_9  and  C_23
REMARK    6  A    between atoms: C_12  and  C_15
REMARK    7  A    between atoms: C_16  and  C_19
REMARK    8  A    between atoms: C_17  and  C_20
REMARK    9  A    between atoms: C_17  and  C_21
REMARK   10  A    between atoms: C_20  and  C_22
REMARK   11  A    between atoms: C_23  and  C_27
REMARK                            x       y       z     vdW  Elec       q    Type
REMARK                         _______ _______ _______ _____ _____    ______ ____
ROOT
ATOM      3  O   UNL     1      -4.887  -8.810  11.041  0.00  0.00    -0.275 OA
ATOM      6  N   UNL     1      -6.665 -10.016  11.904  0.00  0.00    -0.287 N 
ATOM     11  C   UNL     1      -7.570 -10.256  14.083  0.00  0.00    +0.105 C 
ATOM     12  C   UNL     1      -6.319  -9.837  13.311  0.00  0.00    +0.182 C 
ATOM     13  C   UNL     1      -8.242 -11.266  13.148  0.00  0.00    +0.043 C 
ATOM     14  C   UNL     1      -7.922 -10.743  11.755  0.00  0.00    +0.110 C 
ATOM     16  C   UNL     1      -5.947  -9.417  10.879  0.00  0.00    +0.226 C 
ENDROOT
BRANCH  11   7
ATOM      4  O   UNL     1      -8.992  -9.660  16.521  0.00  0.00    -0.253 OA
ATOM      7  N   UNL     1      -8.428  -9.122  14.334  0.00  0.00    -0.294 N 
ATOM      9  N   UNL     1      -9.838  -7.747  15.519  0.00  0.00    -0.296 N 
ATOM     18  C   UNL     1      -9.078  -8.913  15.548  0.00  0.00    +0.300 C 
ATOM     32  H   UNL     1      -8.513  -8.409  13.616  0.00  0.00    +0.151 HD
ATOM     34  H   UNL     1      -9.834  -7.182  14.675  0.00  0.00    +0.151 HD
BRANCH   9  23
ATOM     23  C   UNL     1     -10.616  -7.292  16.647  0.00  0.00    +0.132 C 
BRANCH  23  27
ATOM     27  C   UNL     1     -11.342  -6.044  16.267  0.00  0.00    -0.016 C 
ATOM     31  C   UNL     1     -12.027  -5.896  15.127  0.00  0.00    +0.005 C 
ENDBRANCH  23  27
ENDBRANCH   9  23
ENDBRANCH  11   7
BRANCH  12  15
ATOM      2  O   UNL     1      -5.018 -11.811  12.975  0.00  0.00    -0.274 OA
ATOM      8  N   UNL     1      -4.351 -10.284  14.601  0.00  0.00    -0.302 N 
ATOM     15  C   UNL     1      -5.168 -10.757  13.588  0.00  0.00    +0.236 C 
ATOM     33  H   UNL     1      -4.543  -9.371  15.003  0.00  0.00    +0.150 HD
BRANCH   8  17
ATOM     17  C   UNL     1      -3.186 -10.996  15.074  0.00  0.00    +0.163 C 
BRANCH  17  21
ATOM      5  O   UNL     1      -1.725 -10.379  13.233  0.00  0.00    -0.274 OA
ATOM     10  N   UNL     1      -1.197  -9.650  15.347  0.00  0.00    -0.328 N 
ATOM     21  C   UNL     1      -1.971 -10.340  14.437  0.00  0.00    +0.231 C 
ATOM     35  H   UNL     1      -0.362  -9.154  15.051  0.00  0.00    +0.145 HD
ATOM     36  H   UNL     1      -1.426  -9.607  16.335  0.00  0.00    +0.145 HD
ENDBRANCH  17  21
BRANCH  17  20
ATOM     20  C   UNL     1      -3.069 -10.966  16.603  0.00  0.00    +0.067 C 
BRANCH  20  22
ATOM     22  C   UNL     1      -4.316 -11.464  17.293  0.00  0.00    -0.045 A 
ATOM     24  C   UNL     1      -4.829 -12.724  16.982  0.00  0.00    +0.004 A 
ATOM     25  C   UNL     1      -4.954 -10.665  18.241  0.00  0.00    +0.004 A 
ATOM     28  C   UNL     1      -5.981 -13.184  17.620  0.00  0.00    +0.000 A 
ATOM     29  C   UNL     1      -6.107 -11.125  18.878  0.00  0.00    +0.000 A 
ATOM     30  C   UNL     1      -6.620 -12.385  18.568  0.00  0.00    +0.000 A 
ENDBRANCH  20  22
ENDBRANCH  17  20
ENDBRANCH   8  17
ENDBRANCH  12  15
BRANCH  16  19
ATOM     19  C   UNL     1      -6.543  -9.556   9.501  0.00  0.00    +0.164 C 
BRANCH  19   1
ATOM      1  S   UNL     1      -5.185  -9.610   8.322  0.00  0.00    -0.155 S 
ATOM     26  C   UNL     1      -4.714 -11.346   8.518  0.00  0.00    +0.085 C 
ENDBRANCH  19   1
ENDBRANCH  16  19
TORSDOF 10
ENDMDL
MODEL 2
REMARK VINA RESULT:      -6.1     24.785     27.885
REMARK  Name = 11865843
REMARK  11 active torsions:
REMARK  status: ('A' for Active; 'I' for Inactive)
REMARK    1  A    between atoms: S_1  and  C_19
REMARK    2  A    between atoms: S_1  and  C_26
REMARK    3  A    between atoms: N_7  and  C_11
REMARK    4  A    between atoms: N_8  and  C_17
REMARK    5  A    between atoms: N_9  and  C_23
REMARK    6  A    between atoms: C_12  and  C_15
REMARK    7  A    between atoms: C_16  and  C_19
REMARK    8  A    between atoms: C_17  and  C_20
REMARK    9  A    between atoms: C_17  and  C_21
REMARK   10  A    between atoms: C_20  and  C_22
REMARK   11  A    between atoms: C_23  and  C_27
REMARK                            x       y       z     vdW  Elec       q    Type
REMARK                         _______ _______ _______ _____ _____    ______ ____
ROOT
ATOM      3  O   UNL     1      15.712   6.961   3.845  0.00  0.00    -0.275 OA
ATOM      6  N   UNL     1      13.713   8.129   3.862  0.00  0.00    -0.287 N 
ATOM     11  C   UNL     1      11.454   7.492   4.202  0.00  0.00    +0.105 C 
ATOM     12  C   UNL     1      12.838   6.960   3.833  0.00  0.00    +0.182 C 
ATOM     13  C   UNL     1      11.497   8.950   3.735  0.00  0.00    +0.043 C 
ATOM     14  C   UNL     1      12.944   9.365   3.967  0.00  0.00    +0.110 C 
ATOM     16  C   UNL     1      15.094   8.023   3.939  0.00  0.00    +0.226 C 
ENDROOT
BRANCH  11   7
ATOM      4  O   UNL     1       9.164   6.343   5.528  0.00  0.00    -0.253 OA
ATOM      7  N   UNL     1      11.227   7.405   5.625  0.00  0.00    -0.294 N 
ATOM      9  N   UNL     1      10.124   6.877   7.572  0.00  0.00    -0.296 N 
ATOM     18  C   UNL     1      10.086   6.830   6.181  0.00  0.00    +0.300 C 
ATOM     32  H   UNL     1      11.960   7.719   6.254  0.00  0.00    +0.151 HD
ATOM     34  H   UNL     1      10.938   7.282   8.025  0.00  0.00    +0.151 HD
BRANCH   9  23
ATOM     23  C   UNL     1       9.066   6.350   8.402  0.00  0.00    +0.132 C 
BRANCH  23  27
ATOM     27  C   UNL     1       9.514   5.059   9.002  0.00  0.00    -0.016 C 
ATOM     31  C   UNL     1       9.067   4.585  10.171  0.00  0.00    +0.005 C 
ENDBRANCH  23  27
ENDBRANCH   9  23
ENDBRANCH  11   7
BRANCH  12  15
ATOM      2  O   UNL     1      12.276   7.002   1.513  0.00  0.00    -0.274 OA
ATOM      8  N   UNL     1      13.609   5.272   2.319  0.00  0.00    -0.302 N 
ATOM     15  C   UNL     1      12.870   6.438   2.427  0.00  0.00    +0.236 C 
ATOM     33  H   UNL     1      14.101   4.922   3.136  0.00  0.00    +0.150 HD
BRANCH   8  17
ATOM     17  C   UNL     1      13.775   4.556   1.075  0.00  0.00    +0.163 C 
BRANCH  17  21
ATOM      5  O   UNL     1      15.910   3.860   0.146  0.00  0.00    -0.274 OA
ATOM     10  N   UNL     1      15.483   3.427   2.362  0.00  0.00    -0.328 N 
ATOM     21  C   UNL     1      15.152   3.909   1.112  0.00  0.00    +0.231 C 
ATOM     35  H   UNL     1      16.380   2.982   2.528  0.00  0.00    +0.145 HD
ATOM     36  H   UNL     1      14.855   3.495   3.157  0.00  0.00    +0.145 HD
ENDBRANCH  17  21
BRANCH  17  20
ATOM     20  C   UNL     1      12.691   3.491   0.869  0.00  0.00    +0.067 C 
BRANCH  20  22
ATOM     22  C   UNL     1      12.057   3.562  -0.499  0.00  0.00    -0.045 A 
ATOM     24  C   UNL     1      12.537   2.757  -1.532  0.00  0.00    +0.004 A 
ATOM     25  C   UNL     1      10.993   4.433  -0.731  0.00  0.00    +0.004 A 
ATOM     28  C   UNL     1      11.951   2.822  -2.797  0.00  0.00    +0.000 A 
ATOM     29  C   UNL     1      10.408   4.499  -1.995  0.00  0.00    +0.000 A 
ATOM     30  C   UNL     1      10.887   3.693  -3.028  0.00  0.00    +0.000 A 
ENDBRANCH  20  22
ENDBRANCH  17  20
ENDBRANCH   8  17
ENDBRANCH  12  15
BRANCH  16  19
ATOM     19  C   UNL     1      15.835   9.320   4.142  0.00  0.00    +0.164 C 
BRANCH  19   1
ATOM      1  S   UNL     1      16.342   9.395   5.866  0.00  0.00    -0.155 S 
ATOM     26  C   UNL     1      15.957  11.132   6.195  0.00  0.00    +0.085 C 
ENDBRANCH  19   1
ENDBRANCH  16  19
TORSDOF 10
ENDMDL
MODEL 3
REMARK VINA RESULT:      -6.1     18.997     21.355
REMARK  Name = 11865843
REMARK  11 active torsions:
REMARK  status: ('A' for Active; 'I' for Inactive)
REMARK    1  A    between atoms: S_1  and  C_19
REMARK    2  A    between atoms: S_1  and  C_26
REMARK    3  A    between atoms: N_7  and  C_11
REMARK    4  A    between atoms: N_8  and  C_17
REMARK    5  A    between atoms: N_9  and  C_23
REMARK    6  A    between atoms: C_12  and  C_15
REMARK    7  A    between atoms: C_16  and  C_19
REMARK    8  A    between atoms: C_17  and  C_20
REMARK    9  A    between atoms: C_17  and  C_21
REMARK   10  A    between atoms: C_20  and  C_22
REMARK   11  A    between atoms: C_23  and  C_27
REMARK                            x       y       z     vdW  Elec       q    Type
REMARK                         _______ _______ _______ _____ _____    ______ ____
ROOT
ATOM      3  O   UNL     1     -16.878   0.318  25.991  0.00  0.00    -0.275 OA
ATOM      6  N   UNL     1     -17.403   2.469  25.312  0.00  0.00    -0.287 N 
ATOM     11  C   UNL     1     -16.147   4.470  25.114  0.00  0.00    +0.105 C 
ATOM     12  C   UNL     1     -16.172   3.096  25.783  0.00  0.00    +0.182 C 
ATOM     13  C   UNL     1     -17.629   4.788  24.899  0.00  0.00    +0.043 C 
ATOM     14  C   UNL     1     -18.256   3.429  24.619  0.00  0.00    +0.110 C 
ATOM     16  C   UNL     1     -17.620   1.101  25.395  0.00  0.00    +0.226 C 
ENDROOT
BRANCH  11   7
ATOM      4  O   UNL     1     -15.273   6.716  23.529  0.00  0.00    -0.253 OA
ATOM      7  N   UNL     1     -15.433   4.423  23.860  0.00  0.00    -0.294 N 
ATOM      9  N   UNL     1     -14.376   5.233  21.986  0.00  0.00    -0.296 N 
ATOM     18  C   UNL     1     -15.049   5.565  23.159  0.00  0.00    +0.300 C 
ATOM     32  H   UNL     1     -15.140   3.520  23.502  0.00  0.00    +0.151 HD
ATOM     34  H   UNL     1     -14.220   4.253  21.773  0.00  0.00    +0.151 HD
BRANCH   9  23
ATOM     23  C   UNL     1     -13.868   6.226  21.069  0.00  0.00    +0.132 C 
BRANCH  23  27
ATOM     27  C   UNL     1     -12.392   6.351  21.254  0.00  0.00    -0.016 C 
ATOM     31  C   UNL     1     -11.630   7.234  20.599  0.00  0.00    +0.005 C 
ENDBRANCH  23  27
ENDBRANCH   9  23
ENDBRANCH  11   7
BRANCH  12  15
ATOM      2  O   UNL     1     -17.088   3.986  27.800  0.00  0.00    -0.274 OA
ATOM      8  N   UNL     1     -15.410   2.379  27.937  0.00  0.00    -0.302 N 
ATOM     15  C   UNL     1     -16.294   3.212  27.273  0.00  0.00    +0.236 C 
ATOM     33  H   UNL     1     -14.832   1.741  27.397  0.00  0.00    +0.150 HD
BRANCH   8  17
ATOM     17  C   UNL     1     -15.312   2.319  29.378  0.00  0.00    +0.163 C 
BRANCH  17  21
ATOM      5  O   UNL     1     -15.233  -0.085  29.724  0.00  0.00    -0.274 OA
ATOM     10  N   UNL     1     -13.301   1.128  29.997  0.00  0.00    -0.328 N 
ATOM     21  C   UNL     1     -14.647   0.996  29.727  0.00  0.00    +0.231 C 
ATOM     35  H   UNL     1     -12.735   0.319  30.232  0.00  0.00    +0.145 HD
ATOM     36  H   UNL     1     -12.826   2.025  29.972  0.00  0.00    +0.145 HD
ENDBRANCH  17  21
BRANCH  17  20
ATOM     20  C   UNL     1     -14.505   3.489  29.954  0.00  0.00    +0.067 C 
BRANCH  20  22
ATOM     22  C   UNL     1     -15.008   3.934  31.306  0.00  0.00    -0.045 A 
ATOM     24  C   UNL     1     -16.377   3.954  31.569  0.00  0.00    +0.004 A 
ATOM     25  C   UNL     1     -14.102   4.324  32.293  0.00  0.00    +0.004 A 
ATOM     28  C   UNL     1     -16.841   4.365  32.819  0.00  0.00    +0.000 A 
ATOM     29  C   UNL     1     -14.566   4.736  33.542  0.00  0.00    +0.000 A 
ATOM     30  C   UNL     1     -15.936   4.755  33.805  0.00  0.00    +0.000 A 
ENDBRANCH  20  22
ENDBRANCH  17  20
ENDBRANCH   8  17
ENDBRANCH  12  15
BRANCH  16  19
ATOM     19  C   UNL     1     -18.861   0.597  24.702  0.00  0.00    +0.164 C 
BRANCH  19   1
ATOM      1  S   UNL     1     -18.342  -0.248  23.201  0.00  0.00    -0.155 S 
ATOM     26  C   UNL     1     -19.029   0.899  21.983  0.00  0.00    +0.085 C 
ENDBRANCH  19   1
ENDBRANCH  16  19
TORSDOF 10
ENDMDL
MODEL 4
REMARK VINA RESULT:      -6.0      3.487      5.883
REMARK  Name = 11865843
REMARK  11 active torsions:
REMARK  status: ('A' for Active; 'I' for Inactive)
REMARK    1  A    between atoms: S_1  and  C_19
REMARK    2  A    between atoms: S_1  and  C_26
REMARK    3  A    between atoms: N_7  and  C_11
REMARK    4  A    between atoms: N_8  and  C_17
REMARK    5  A    between atoms: N_9  and  C_23
REMARK    6  A    between atoms: C_12  and  C_15
REMARK    7  A    between atoms: C_16  and  C_19
REMARK    8  A    between atoms: C_17  and  C_20
REMARK    9  A    between atoms: C_17  and  C_21
REMARK   10  A    between atoms: C_20  and  C_22
REMARK   11  A    between atoms: C_23  and  C_27
REMARK                            x       y       z     vdW  Elec       q    Type
REMARK                         _______ _______ _______ _____ _____    ______ ____
ROOT
ATOM      3  O   UNL     1      -5.762 -13.703  15.106  0.00  0.00    -0.275 OA
ATOM      6  N   UNL     1      -5.491 -12.621  17.135  0.00  0.00    -0.287 N 
ATOM     11  C   UNL     1      -6.457 -10.676  18.089  0.00  0.00    +0.105 C 
ATOM     12  C   UNL     1      -6.201 -11.399  16.767  0.00  0.00    +0.182 C 
ATOM     13  C   UNL     1      -5.310 -11.154  18.983  0.00  0.00    +0.043 C 
ATOM     14  C   UNL     1      -5.068 -12.588  18.531  0.00  0.00    +0.110 C 
ATOM     16  C   UNL     1      -5.395 -13.710  16.282  0.00  0.00    +0.226 C 
ENDROOT
BRANCH  11   7
ATOM      4  O   UNL     1      -8.983  -9.356  17.639  0.00  0.00    -0.253 OA
ATOM      7  N   UNL     1      -7.740 -11.043  18.641  0.00  0.00    -0.294 N 
ATOM      9  N   UNL     1     -10.002 -10.911  19.027  0.00  0.00    -0.296 N 
ATOM     18  C   UNL     1      -8.914 -10.345  18.368  0.00  0.00    +0.300 C 
ATOM     32  H   UNL     1      -7.803 -11.886  19.202  0.00  0.00    +0.151 HD
ATOM     34  H   UNL     1      -9.852 -11.741  19.593  0.00  0.00    +0.151 HD
BRANCH   9  23
ATOM     23  C   UNL     1     -11.342 -10.385  18.920  0.00  0.00    +0.132 C 
BRANCH  23  27
ATOM     27  C   UNL     1     -11.824  -9.998  20.278  0.00  0.00    -0.016 C 
ATOM     31  C   UNL     1     -13.109  -9.776  20.579  0.00  0.00    +0.005 C 
ENDBRANCH  23  27
ENDBRANCH   9  23
ENDBRANCH  11   7
BRANCH  12  15
ATOM      2  O   UNL     1      -5.653  -9.626  15.265  0.00  0.00    -0.274 OA
ATOM      8  N   UNL     1      -4.003 -11.162  15.845  0.00  0.00    -0.302 N 
ATOM     15  C   UNL     1      -5.276 -10.617  15.882  0.00  0.00    +0.236 C 
ATOM     33  H   UNL     1      -3.789 -11.957  16.440  0.00  0.00    +0.150 HD
BRANCH   8  17
ATOM     17  C   UNL     1      -2.931 -10.610  15.049  0.00  0.00    +0.163 C 
BRANCH  17  21
ATOM      5  O   UNL     1      -0.632 -10.049  15.600  0.00  0.00    -0.274 OA
ATOM     10  N   UNL     1      -1.892 -11.171  17.159  0.00  0.00    -0.328 N 
ATOM     21  C   UNL     1      -1.690 -10.581  15.928  0.00  0.00    +0.231 C 
ATOM     35  H   UNL     1      -1.147 -11.208  17.848  0.00  0.00    +0.145 HD
ATOM     36  H   UNL     1      -2.780 -11.585  17.426  0.00  0.00    +0.145 HD
ENDBRANCH  17  21
BRANCH  17  20
ATOM     20  C   UNL     1      -2.668 -11.431  13.781  0.00  0.00    +0.067 C 
BRANCH  20  22
ATOM     22  C   UNL     1      -2.869 -10.631  12.516  0.00  0.00    -0.045 A 
ATOM     24  C   UNL     1      -1.776 -10.036  11.887  0.00  0.00    +0.004 A 
ATOM     25  C   UNL     1      -4.148 -10.487  11.979  0.00  0.00    +0.004 A 
ATOM     28  C   UNL     1      -1.962  -9.296  10.718  0.00  0.00    +0.000 A 
ATOM     29  C   UNL     1      -4.334  -9.747  10.811  0.00  0.00    +0.000 A 
ATOM     30  C   UNL     1      -3.241  -9.152  10.180  0.00  0.00    +0.000 A 
ENDBRANCH  20  22
ENDBRANCH  17  20
ENDBRANCH   8  17
ENDBRANCH  12  15
BRANCH  16  19
ATOM     19  C   UNL     1      -4.787 -14.953  16.882  0.00  0.00    +0.164 C 
BRANCH  19   1
ATOM      1  S   UNL     1      -4.393 -16.075  15.532  0.00  0.00    -0.155 S 
ATOM     26  C   UNL     1      -2.981 -16.925  16.278  0.00  0.00    +0.085 C 
ENDBRANCH  19   1
ENDBRANCH  16  19
TORSDOF 10
ENDMDL
MODEL 5
REMARK VINA RESULT:      -6.0     26.630     29.804
REMARK  Name = 11865843
REMARK  11 active torsions:
REMARK  status: ('A' for Active; 'I' for Inactive)
REMARK    1  A    between atoms: S_1  and  C_19
REMARK    2  A    between atoms: S_1  and  C_26
REMARK    3  A    between atoms: N_7  and  C_11
REMARK    4  A    between atoms: N_8  and  C_17
REMARK    5  A    between atoms: N_9  and  C_23
REMARK    6  A    between atoms: C_12  and  C_15
REMARK    7  A    between atoms: C_16  and  C_19
REMARK    8  A    between atoms: C_17  and  C_20
REMARK    9  A    between atoms: C_17  and  C_21
REMARK   10  A    between atoms: C_20  and  C_22
REMARK   11  A    between atoms: C_23  and  C_27
REMARK                            x       y       z     vdW  Elec       q    Type
REMARK                         _______ _______ _______ _____ _____    ______ ____
ROOT
ATOM      3  O   UNL     1      13.969   8.695  17.775  0.00  0.00    -0.275 OA
ATOM      6  N   UNL     1      15.162   9.768  19.445  0.00  0.00    -0.287 N 
ATOM     11  C   UNL     1      16.248   9.017  21.415  0.00  0.00    +0.105 C 
ATOM     12  C   UNL     1      15.191   8.644  20.375  0.00  0.00    +0.182 C 
ATOM     13  C   UNL     1      16.227  10.549  21.408  0.00  0.00    +0.043 C 
ATOM     14  C   UNL     1      15.922  10.903  19.960  0.00  0.00    +0.110 C 
ATOM     16  C   UNL     1      14.607   9.671  18.177  0.00  0.00    +0.226 C 
ENDROOT
BRANCH  11   7
ATOM      4  O   UNL     1      17.097   6.260  21.403  0.00  0.00    -0.253 OA
ATOM      7  N   UNL     1      17.546   8.509  21.039  0.00  0.00    -0.294 N 
ATOM      9  N   UNL     1      19.184   6.942  20.653  0.00  0.00    -0.296 N 
ATOM     18  C   UNL     1      17.870   7.154  21.064  0.00  0.00    +0.300 C 
ATOM     32  H   UNL     1      18.236   9.160  20.678  0.00  0.00    +0.151 HD
ATOM     34  H   UNL     1      19.743   7.742  20.372  0.00  0.00    +0.151 HD
BRANCH   9  23
ATOM     23  C   UNL     1      19.780   5.629  20.585  0.00  0.00    +0.132 C 
BRANCH  23  27
ATOM     27  C   UNL     1      21.164   5.693  21.141  0.00  0.00    -0.016 C 
ATOM     31  C   UNL     1      21.477   5.373  22.402  0.00  0.00    +0.005 C 
ENDBRANCH  23  27
ENDBRANCH   9  23
ENDBRANCH  11   7
BRANCH  12  15
ATOM      2  O   UNL     1      13.535   7.700  21.813  0.00  0.00    -0.274 OA
ATOM      8  N   UNL     1      12.969   9.532  20.493  0.00  0.00    -0.302 N 
ATOM     15  C   UNL     1      13.824   8.561  20.987  0.00  0.00    +0.236 C 
ATOM     33  H   UNL     1      13.333  10.227  19.848  0.00  0.00    +0.150 HD
BRANCH   8  17
ATOM     17  C   UNL     1      11.589   9.652  20.904  0.00  0.00    +0.163 C 
BRANCH  17  21
ATOM      5  O   UNL     1      10.598   8.441  19.045  0.00  0.00    -0.274 OA
ATOM     10  N   UNL     1      10.461   7.528  21.149  0.00  0.00    -0.328 N 
ATOM     21  C   UNL     1      10.826   8.509  20.251  0.00  0.00    +0.231 C 
ATOM     35  H   UNL     1       9.957   6.702  20.842  0.00  0.00    +0.145 HD
ATOM     36  H   UNL     1      10.677   7.588  22.140  0.00  0.00    +0.145 HD
ENDBRANCH  17  21
BRANCH  17  20
ATOM     20  C   UNL     1      11.431   9.597  22.428  0.00  0.00    +0.067 C 
BRANCH  20  22
ATOM     22  C   UNL     1      11.159  10.953  23.035  0.00  0.00    -0.045 A 
ATOM     24  C   UNL     1      11.078  12.079  22.217  0.00  0.00    +0.004 A 
ATOM     25  C   UNL     1      10.990  11.078  24.414  0.00  0.00    +0.004 A 
ATOM     28  C   UNL     1      10.827  13.332  22.779  0.00  0.00    +0.000 A 
ATOM     29  C   UNL     1      10.740  12.330  24.975  0.00  0.00    +0.000 A 
ATOM     30  C   UNL     1      10.658  13.457  24.157  0.00  0.00    +0.000 A 
ENDBRANCH  20  22
ENDBRANCH  17  20
ENDBRANCH   8  17
ENDBRANCH  12  15
BRANCH  16  19
ATOM     19  C   UNL     1      14.820  10.864  17.281  0.00  0.00    +0.164 C 
BRANCH  19   1
ATOM      1  S   UNL     1      14.116  10.471  15.673  0.00  0.00    -0.155 S 
ATOM     26  C   UNL     1      14.422  12.048  14.841  0.00  0.00    +0.085 C 
ENDBRANCH  19   1
ENDBRANCH  16  19
TORSDOF 10
ENDMDL
MODEL 6
REMARK VINA RESULT:      -5.8     19.609     21.397
REMARK  Name = 11865843
REMARK  11 active torsions:
REMARK  status: ('A' for Active; 'I' for Inactive)
REMARK    1  A    between atoms: S_1  and  C_19
REMARK    2  A    between atoms: S_1  and  C_26
REMARK    3  A    between atoms: N_7  and  C_11
REMARK    4  A    between atoms: N_8  and  C_17
REMARK    5  A    between atoms: N_9  and  C_23
REMARK    6  A    between atoms: C_12  and  C_15
REMARK    7  A    between atoms: C_16  and  C_19
REMARK    8  A    between atoms: C_17  and  C_20
REMARK    9  A    between atoms: C_17  and  C_21
REMARK   10  A    between atoms: C_20  and  C_22
REMARK   11  A    between atoms: C_23  and  C_27
REMARK                            x       y       z     vdW  Elec       q    Type
REMARK                         _______ _______ _______ _____ _____    ______ ____
ROOT
ATOM      3  O   UNL     1     -15.638   8.786  23.342  0.00  0.00    -0.275 OA
ATOM      6  N   UNL     1     -16.680   6.719  23.407  0.00  0.00    -0.287 N 
ATOM     11  C   UNL     1     -15.912   4.517  23.837  0.00  0.00    +0.105 C 
ATOM     12  C   UNL     1     -15.460   5.919  23.429  0.00  0.00    +0.182 C 
ATOM     13  C   UNL     1     -17.361   4.454  23.342  0.00  0.00    +0.043 C 
ATOM     14  C   UNL     1     -17.868   5.878  23.517  0.00  0.00    +0.110 C 
ATOM     16  C   UNL     1     -16.662   8.106  23.438  0.00  0.00    +0.226 C 
ENDROOT
BRANCH  11   7
ATOM      4  O   UNL     1     -16.146   2.042  25.300  0.00  0.00    -0.253 OA
ATOM      7  N   UNL     1     -15.839   4.344  25.268  0.00  0.00    -0.294 N 
ATOM      9  N   UNL     1     -15.854   3.224  27.275  0.00  0.00    -0.296 N 
ATOM     18  C   UNL     1     -15.964   3.105  25.892  0.00  0.00    +0.300 C 
ATOM     32  H   UNL     1     -15.623   5.151  25.844  0.00  0.00    +0.151 HD
ATOM     34  H   UNL     1     -15.684   4.142  27.675  0.00  0.00    +0.151 HD
BRANCH   9  23
ATOM     23  C   UNL     1     -15.946   2.093  28.168  0.00  0.00    +0.132 C 
BRANCH  23  27
ATOM     27  C   UNL     1     -15.181   2.391  29.414  0.00  0.00    -0.016 C 
ATOM     31  C   UNL     1     -14.264   1.570  29.942  0.00  0.00    +0.005 C 
ENDBRANCH  23  27
ENDBRANCH   9  23
ENDBRANCH  11   7
BRANCH  12  15
ATOM      2  O   UNL     1     -15.257   5.111  21.191  0.00  0.00    -0.274 OA
ATOM      8  N   UNL     1     -13.990   6.952  21.845  0.00  0.00    -0.302 N 
ATOM     15  C   UNL     1     -14.913   5.936  22.033  0.00  0.00    +0.236 C 
ATOM     33  H   UNL     1     -13.820   7.610  22.600  0.00  0.00    +0.150 HD
BRANCH   8  17
ATOM     17  C   UNL     1     -13.300   7.169  20.594  0.00  0.00    +0.163 C 
BRANCH  17  21
ATOM      5  O   UNL     1     -14.511   8.037  18.675  0.00  0.00    -0.274 OA
ATOM     10  N   UNL     1     -14.349   9.347  20.554  0.00  0.00    -0.328 N 
ATOM     21  C   UNL     1     -14.096   8.208  19.818  0.00  0.00    +0.231 C 
ATOM     35  H   UNL     1     -14.882  10.115  20.159  0.00  0.00    +0.145 HD
ATOM     36  H   UNL     1     -14.018   9.465  21.507  0.00  0.00    +0.145 HD
ENDBRANCH  17  21
BRANCH  17  20
ATOM     20  C   UNL     1     -11.858   7.648  20.803  0.00  0.00    +0.067 C 
BRANCH  20  22
ATOM     22  C   UNL     1     -11.246   8.220  19.547  0.00  0.00    -0.045 A 
ATOM     24  C   UNL     1     -11.152   7.435  18.398  0.00  0.00    +0.004 A 
ATOM     25  C   UNL     1     -10.774   9.532  19.537  0.00  0.00    +0.004 A 
ATOM     28  C   UNL     1     -10.586   7.964  17.237  0.00  0.00    +0.000 A 
ATOM     29  C   UNL     1     -10.207  10.060  18.377  0.00  0.00    +0.000 A 
ATOM     30  C   UNL     1     -10.114   9.276  17.227  0.00  0.00    +0.000 A 
ENDBRANCH  20  22
ENDBRANCH  17  20
ENDBRANCH   8  17
ENDBRANCH  12  15
BRANCH  16  19
ATOM     19  C   UNL     1     -18.006   8.771  23.592  0.00  0.00    +0.164 C 
BRANCH  19   1
ATOM      1  S   UNL     1     -18.213   9.909  22.215  0.00  0.00    -0.155 S 
ATOM     26  C   UNL     1     -18.037   8.734  20.851  0.00  0.00    +0.085 C 
ENDBRANCH  19   1
ENDBRANCH  16  19
TORSDOF 10
ENDMDL
MODEL 7
REMARK VINA RESULT:      -5.7     24.095     27.078
REMARK  Name = 11865843
REMARK  11 active torsions:
REMARK  status: ('A' for Active; 'I' for Inactive)
REMARK    1  A    between atoms: S_1  and  C_19
REMARK    2  A    between atoms: S_1  and  C_26
REMARK    3  A    between atoms: N_7  and  C_11
REMARK    4  A    between atoms: N_8  and  C_17
REMARK    5  A    between atoms: N_9  and  C_23
REMARK    6  A    between atoms: C_12  and  C_15
REMARK    7  A    between atoms: C_16  and  C_19
REMARK    8  A    between atoms: C_17  and  C_20
REMARK    9  A    between atoms: C_17  and  C_21
REMARK   10  A    between atoms: C_20  and  C_22
REMARK   11  A    between atoms: C_23  and  C_27
REMARK                            x       y       z     vdW  Elec       q    Type
REMARK                         _______ _______ _______ _____ _____    ______ ____
ROOT
ATOM      3  O   UNL     1      11.490   3.781   2.854  0.00  0.00    -0.275 OA
ATOM      6  N   UNL     1      11.337   6.087   2.995  0.00  0.00    -0.287 N 
ATOM     11  C   UNL     1      12.004   7.671   4.630  0.00  0.00    +0.105 C 
ATOM     12  C   UNL     1      11.692   6.191   4.407  0.00  0.00    +0.182 C 
ATOM     13  C   UNL     1      11.156   8.376   3.568  0.00  0.00    +0.043 C 
ATOM     14  C   UNL     1      11.159   7.406   2.395  0.00  0.00    +0.110 C 
ATOM     16  C   UNL     1      11.337   4.879   2.314  0.00  0.00    +0.226 C 
ENDROOT
BRANCH  11   7
ATOM      4  O   UNL     1      13.954   8.245   6.677  0.00  0.00    -0.253 OA
ATOM      7  N   UNL     1      13.410   7.938   4.440  0.00  0.00    -0.294 N 
ATOM      9  N   UNL     1      15.578   8.427   5.030  0.00  0.00    -0.296 N 
ATOM     18  C   UNL     1      14.283   8.207   5.493  0.00  0.00    +0.300 C 
ATOM     32  H   UNL     1      13.797   7.864   3.505  0.00  0.00    +0.151 HD
ATOM     34  H   UNL     1      15.759   8.355   4.034  0.00  0.00    +0.151 HD
BRANCH   9  23
ATOM     23  C   UNL     1      16.682   8.728   5.910  0.00  0.00    +0.132 C 
BRANCH  23  27
ATOM     27  C   UNL     1      17.963   8.534   5.169  0.00  0.00    -0.016 C 
ATOM     31  C   UNL     1      18.049   8.451   3.836  0.00  0.00    +0.005 C 
ENDBRANCH  23  27
ENDBRANCH   9  23
ENDBRANCH  11   7
BRANCH  12  15
ATOM      2  O   UNL     1       9.561   5.144   4.659  0.00  0.00    -0.274 OA
ATOM      8  N   UNL     1      10.542   6.162   6.508  0.00  0.00    -0.302 N 
ATOM     15  C   UNL     1      10.483   5.761   5.184  0.00  0.00    +0.236 C 
ATOM     33  H   UNL     1      11.380   6.625   6.846  0.00  0.00    +0.150 HD
BRANCH   8  17
ATOM     17  C   UNL     1       9.491   5.892   7.462  0.00  0.00    +0.163 C 
BRANCH  17  21
ATOM      5  O   UNL     1      10.374   5.322   9.653  0.00  0.00    -0.274 OA
ATOM     10  N   UNL     1      10.174   3.657   8.082  0.00  0.00    -0.328 N 
ATOM     21  C   UNL     1      10.071   4.963   8.517  0.00  0.00    +0.231 C 
ATOM     35  H   UNL     1      10.534   2.931   8.693  0.00  0.00    +0.145 HD
ATOM     36  H   UNL     1       9.897   3.371   7.148  0.00  0.00    +0.145 HD
ENDBRANCH  17  21
BRANCH  17  20
ATOM     20  C   UNL     1       8.957   7.173   8.114  0.00  0.00    +0.067 C 
BRANCH  20  22
ATOM     22  C   UNL     1       8.838   8.319   7.138  0.00  0.00    -0.045 A 
ATOM     24  C   UNL     1       7.971   8.220   6.050  0.00  0.00    +0.004 A 
ATOM     25  C   UNL     1       9.594   9.476   7.326  0.00  0.00    +0.004 A 
ATOM     28  C   UNL     1       7.862   9.279   5.147  0.00  0.00    +0.000 A 
ATOM     29  C   UNL     1       9.484  10.534   6.423  0.00  0.00    +0.000 A 
ATOM     30  C   UNL     1       8.618  10.435   5.335  0.00  0.00    +0.000 A 
ENDBRANCH  20  22
ENDBRANCH  17  20
ENDBRANCH   8  17
ENDBRANCH  12  15
BRANCH  16  19
ATOM     19  C   UNL     1      11.124   4.972   0.825  0.00  0.00    +0.164 C 
BRANCH  19   1
ATOM      1  S   UNL     1      12.550   4.225   0.022  0.00  0.00    -0.155 S 
ATOM     26  C   UNL     1      13.556   5.712  -0.200  0.00  0.00    +0.085 C 
ENDBRANCH  19   1
ENDBRANCH  16  19
TORSDOF 10
ENDMDL
MODEL 8
REMARK VINA RESULT:      -5.7     24.230     27.622
REMARK  Name = 11865843
REMARK  11 active torsions:
REMARK  status: ('A' for Active; 'I' for Inactive)
REMARK    1  A    between atoms: S_1  and  C_19
REMARK    2  A    between atoms: S_1  and  C_26
REMARK    3  A    between atoms: N_7  and  C_11
REMARK    4  A    between atoms: N_8  and  C_17
REMARK    5  A    between atoms: N_9  and  C_23
REMARK    6  A    between atoms: C_12  and  C_15
REMARK    7  A    between atoms: C_16  and  C_19
REMARK    8  A    between atoms: C_17  and  C_20
REMARK    9  A    between atoms: C_17  and  C_21
REMARK   10  A    between atoms: C_20  and  C_22
REMARK   11  A    between atoms: C_23  and  C_27
REMARK                            x       y       z     vdW  Elec       q    Type
REMARK                         _______ _______ _______ _____ _____    ______ ____
ROOT
ATOM      3  O   UNL     1      13.359   2.457   1.291  0.00  0.00    -0.275 OA
ATOM      6  N   UNL     1      12.900   4.612   2.002  0.00  0.00    -0.287 N 
ATOM     11  C   UNL     1      11.062   5.604   3.125  0.00  0.00    +0.105 C 
ATOM     12  C   UNL     1      11.487   4.393   2.296  0.00  0.00    +0.182 C 
ATOM     13  C   UNL     1      12.016   6.707   2.658  0.00  0.00    +0.043 C 
ATOM     14  C   UNL     1      13.312   5.966   2.361  0.00  0.00    +0.110 C 
ATOM     16  C   UNL     1      13.741   3.591   1.587  0.00  0.00    +0.226 C 
ENDROOT
BRANCH  11   7
ATOM      4  O   UNL     1       9.987   7.163   5.302  0.00  0.00    -0.253 OA
ATOM      7  N   UNL     1      11.212   5.344   4.537  0.00  0.00    -0.294 N 
ATOM      9  N   UNL     1      10.953   5.675   6.797  0.00  0.00    -0.296 N 
ATOM     18  C   UNL     1      10.656   6.155   5.524  0.00  0.00    +0.300 C 
ATOM     32  H   UNL     1      11.691   4.497   4.827  0.00  0.00    +0.151 HD
ATOM     34  H   UNL     1      11.497   4.822   6.883  0.00  0.00    +0.151 HD
BRANCH   9  23
ATOM     23  C   UNL     1      10.501   6.326   8.004  0.00  0.00    +0.132 C 
BRANCH  23  27
ATOM     27  C   UNL     1       9.886   5.308   8.906  0.00  0.00    -0.016 C 
ATOM     31  C   UNL     1       9.659   4.038   8.553  0.00  0.00    +0.005 C 
ENDBRANCH  23  27
ENDBRANCH   9  23
ENDBRANCH  11   7
BRANCH  12  15
ATOM      2  O   UNL     1       9.553   4.395   0.895  0.00  0.00    -0.274 OA
ATOM      8  N   UNL     1      11.658   4.247  -0.089  0.00  0.00    -0.302 N 
ATOM     15  C   UNL     1      10.778   4.354   0.975  0.00  0.00    +0.236 C 
ATOM     33  H   UNL     1      12.657   4.273   0.093  0.00  0.00    +0.150 HD
BRANCH   8  17
ATOM     17  C   UNL     1      11.226   4.167  -1.466  0.00  0.00    +0.163 C 
BRANCH  17  21
ATOM      5  O   UNL     1      12.648   5.945  -2.316  0.00  0.00    -0.274 OA
ATOM     10  N   UNL     1      10.369   6.193  -2.470  0.00  0.00    -0.328 N 
ATOM     21  C   UNL     1      11.515   5.518  -2.104  0.00  0.00    +0.231 C 
ATOM     35  H   UNL     1      10.420   7.102  -2.919  0.00  0.00    +0.145 HD
ATOM     36  H   UNL     1       9.440   5.816  -2.310  0.00  0.00    +0.145 HD
ENDBRANCH  17  21
BRANCH  17  20
ATOM     20  C   UNL     1      11.941   3.049  -2.234  0.00  0.00    +0.067 C 
BRANCH  20  22
ATOM     22  C   UNL     1      11.494   2.953  -3.673  0.00  0.00    -0.045 A 
ATOM     24  C   UNL     1      10.146   2.759  -3.973  0.00  0.00    +0.004 A 
ATOM     25  C   UNL     1      12.429   3.058  -4.702  0.00  0.00    +0.004 A 
ATOM     28  C   UNL     1       9.733   2.669  -5.303  0.00  0.00    +0.000 A 
ATOM     29  C   UNL     1      12.016   2.968  -6.031  0.00  0.00    +0.000 A 
ATOM     30  C   UNL     1      10.668   2.774  -6.332  0.00  0.00    +0.000 A 
ENDBRANCH  20  22
ENDBRANCH  17  20
ENDBRANCH   8  17
ENDBRANCH  12  15
BRANCH  16  19
ATOM     19  C   UNL     1      15.204   3.947   1.502  0.00  0.00    +0.164 C 
BRANCH  19   1
ATOM      1  S   UNL     1      15.598   4.228  -0.231  0.00  0.00    -0.155 S 
ATOM     26  C   UNL     1      16.198   5.930  -0.109  0.00  0.00    +0.085 C 
ENDBRANCH  19   1
ENDBRANCH  16  19
TORSDOF 10
ENDMDL
MODEL 9
REMARK VINA RESULT:      -5.7     24.542     27.392
REMARK  Name = 11865843
REMARK  11 active torsions:
REMARK  status: ('A' for Active; 'I' for Inactive)
REMARK    1  A    between atoms: S_1  and  C_19
REMARK    2  A    between atoms: S_1  and  C_26
REMARK    3  A    between atoms: N_7  and  C_11
REMARK    4  A    between atoms: N_8  and  C_17
REMARK    5  A    between atoms: N_9  and  C_23
REMARK    6  A    between atoms: C_12  and  C_15
REMARK    7  A    between atoms: C_16  and  C_19
REMARK    8  A    between atoms: C_17  and  C_20
REMARK    9  A    between atoms: C_17  and  C_21
REMARK   10  A    between atoms: C_20  and  C_22
REMARK   11  A    between atoms: C_23  and  C_27
REMARK                            x       y       z     vdW  Elec       q    Type
REMARK                         _______ _______ _______ _____ _____    ______ ____
ROOT
ATOM      3  O   UNL     1      11.349   9.352   4.620  0.00  0.00    -0.275 OA
ATOM      6  N   UNL     1      10.769   7.234   5.355  0.00  0.00    -0.287 N 
ATOM     11  C   UNL     1      10.019   5.273   4.253  0.00  0.00    +0.105 C 
ATOM     12  C   UNL     1      10.157   6.788   4.107  0.00  0.00    +0.182 C 
ATOM     13  C   UNL     1       9.904   5.070   5.767  0.00  0.00    +0.043 C 
ATOM     14  C   UNL     1      10.787   6.166   6.349  0.00  0.00    +0.110 C 
ATOM     16  C   UNL     1      11.385   8.471   5.482  0.00  0.00    +0.226 C 
ENDROOT
BRANCH  11   7
ATOM      4  O   UNL     1      10.464   4.490   1.512  0.00  0.00    -0.253 OA
ATOM      7  N   UNL     1      11.177   4.594   3.720  0.00  0.00    -0.294 N 
ATOM      9  N   UNL     1      12.518   3.609   2.134  0.00  0.00    -0.296 N 
ATOM     18  C   UNL     1      11.307   4.253   2.376  0.00  0.00    +0.300 C 
ATOM     32  H   UNL     1      11.961   4.413   4.339  0.00  0.00    +0.151 HD
ATOM     34  H   UNL     1      13.162   3.473   2.908  0.00  0.00    +0.151 HD
BRANCH   9  23
ATOM     23  C   UNL     1      12.910   3.145   0.824  0.00  0.00    +0.132 C 
BRANCH  23  27
ATOM     27  C   UNL     1      14.267   3.680   0.504  0.00  0.00    -0.016 C 
ATOM     31  C   UNL     1      15.305   3.633   1.346  0.00  0.00    +0.005 C 
ENDBRANCH  23  27
ENDBRANCH   9  23
ENDBRANCH  11   7
BRANCH  12  15
ATOM      2  O   UNL     1       7.881   7.122   4.748  0.00  0.00    -0.274 OA
ATOM      8  N   UNL     1       8.780   8.441   3.054  0.00  0.00    -0.302 N 
ATOM     15  C   UNL     1       8.817   7.457   4.027  0.00  0.00    +0.236 C 
ATOM     33  H   UNL     1       9.633   8.669   2.550  0.00  0.00    +0.150 HD
BRANCH   8  17
ATOM     17  C   UNL     1       7.598   9.218   2.760  0.00  0.00    +0.163 C 
BRANCH  17  21
ATOM      5  O   UNL     1       8.166  11.145   4.127  0.00  0.00    -0.274 OA
ATOM     10  N   UNL     1       6.273   9.950   4.645  0.00  0.00    -0.328 N 
ATOM     21  C   UNL     1       7.412  10.200   3.907  0.00  0.00    +0.231 C 
ATOM     35  H   UNL     1       6.024  10.540   5.433  0.00  0.00    +0.145 HD
ATOM     36  H   UNL     1       5.646   9.179   4.437  0.00  0.00    +0.145 HD
ENDBRANCH  17  21
BRANCH  17  20
ATOM     20  C   UNL     1       7.713   9.969   1.428  0.00  0.00    +0.067 C 
BRANCH  20  22
ATOM     22  C   UNL     1       6.626   9.591   0.450  0.00  0.00    -0.045 A 
ATOM     24  C   UNL     1       5.298   9.531   0.873  0.00  0.00    +0.004 A 
ATOM     25  C   UNL     1       6.950   9.302  -0.875  0.00  0.00    +0.004 A 
ATOM     28  C   UNL     1       4.294   9.182  -0.030  0.00  0.00    +0.000 A 
ATOM     29  C   UNL     1       5.946   8.952  -1.778  0.00  0.00    +0.000 A 
ATOM     30  C   UNL     1       4.618   8.893  -1.356  0.00  0.00    +0.000 A 
ENDBRANCH  20  22
ENDBRANCH  17  20
ENDBRANCH   8  17
ENDBRANCH  12  15
BRANCH  16  19
ATOM     19  C   UNL     1      12.122   8.701   6.776  0.00  0.00    +0.164 C 
BRANCH  19   1
ATOM      1  S   UNL     1      13.867   8.892   6.384  0.00  0.00    -0.155 S 
ATOM     26  C   UNL     1      14.395   7.177   6.612  0.00  0.00    +0.085 C 
ENDBRANCH  19   1
ENDBRANCH  16  19
TORSDOF 10
ENDMDL
MODEL 10
REMARK VINA RESULT:      -5.6     24.884     27.682
REMARK  Name = 11865843
REMARK  11 active torsions:
REMARK  status: ('A' for Active; 'I' for Inactive)
REMARK    1  A    between atoms: S_1  and  C_19
REMARK    2  A    between atoms: S_1  and  C_26
REMARK    3  A    between atoms: N_7  and  C_11
REMARK    4  A    between atoms: N_8  and  C_17
REMARK    5  A    between atoms: N_9  and  C_23
REMARK    6  A    between atoms: C_12  and  C_15
REMARK    7  A    between atoms: C_16  and  C_19
REMARK    8  A    between atoms: C_17  and  C_20
REMARK    9  A    between atoms: C_17  and  C_21
REMARK   10  A    between atoms: C_20  and  C_22
REMARK   11  A    between atoms: C_23  and  C_27
REMARK                            x       y       z     vdW  Elec       q    Type
REMARK                         _______ _______ _______ _____ _____    ______ ____
ROOT
ATOM      3  O   UNL     1      15.004   7.095   5.954  0.00  0.00    -0.275 OA
ATOM      6  N   UNL     1      13.527   8.873   5.814  0.00  0.00    -0.287 N 
ATOM     11  C   UNL     1      11.846   9.716   7.259  0.00  0.00    +0.105 C 
ATOM     12  C   UNL     1      12.688   8.480   6.942  0.00  0.00    +0.182 C 
ATOM     13  C   UNL     1      11.756  10.439   5.911  0.00  0.00    +0.043 C 
ATOM     14  C   UNL     1      13.097  10.149   5.252  0.00  0.00    +0.110 C 
ATOM     16  C   UNL     1      14.671   8.173   5.458  0.00  0.00    +0.226 C 
ENDROOT
BRANCH  11   7
ATOM      4  O   UNL     1      10.586  11.059   9.479  0.00  0.00    -0.253 OA
ATOM      7  N   UNL     1      12.490  10.540   8.254  0.00  0.00    -0.294 N 
ATOM      9  N   UNL     1      12.660  11.886  10.110  0.00  0.00    -0.296 N 
ATOM     18  C   UNL     1      11.799  11.153   9.297  0.00  0.00    +0.300 C 
ATOM     32  H   UNL     1      13.501  10.627   8.232  0.00  0.00    +0.151 HD
ATOM     34  H   UNL     1      13.652  11.891   9.892  0.00  0.00    +0.151 HD
BRANCH   9  23
ATOM     23  C   UNL     1      12.207  12.623  11.266  0.00  0.00    +0.132 C 
BRANCH  23  27
ATOM     27  C   UNL     1      13.394  13.114  12.027  0.00  0.00    -0.016 C 
ATOM     31  C   UNL     1      14.614  13.255  11.496  0.00  0.00    +0.005 C 
ENDBRANCH  23  27
ENDBRANCH   9  23
ENDBRANCH  11   7
BRANCH  12  15
ATOM      2  O   UNL     1      12.081   6.741   5.422  0.00  0.00    -0.274 OA
ATOM      8  N   UNL     1      10.771   7.093   7.314  0.00  0.00    -0.302 N 
ATOM     15  C   UNL     1      11.836   7.342   6.464  0.00  0.00    +0.236 C 
ATOM     33  H   UNL     1      10.696   7.621   8.178  0.00  0.00    +0.150 HD
BRANCH   8  17
ATOM     17  C   UNL     1       9.789   6.063   7.068  0.00  0.00    +0.163 C 
BRANCH  17  21
ATOM      5  O   UNL     1       9.085   5.456   9.313  0.00  0.00    -0.274 OA
ATOM     10  N   UNL     1      10.468   4.021   8.170  0.00  0.00    -0.328 N 
ATOM     21  C   UNL     1       9.740   5.184   8.309  0.00  0.00    +0.231 C 
ATOM     35  H   UNL     1      10.509   3.339   8.921  0.00  0.00    +0.145 HD
ATOM     36  H   UNL     1      10.985   3.799   7.324  0.00  0.00    +0.145 HD
ENDBRANCH  17  21
BRANCH  17  20
ATOM     20  C   UNL     1       8.401   6.643   6.769  0.00  0.00    +0.067 C 
BRANCH  20  22
ATOM     22  C   UNL     1       8.372   7.462   5.501  0.00  0.00    -0.045 A 
ATOM     24  C   UNL     1       7.995   8.804   5.547  0.00  0.00    +0.004 A 
ATOM     25  C   UNL     1       8.720   6.875   4.285  0.00  0.00    +0.004 A 
ATOM     28  C   UNL     1       7.968   9.560   4.374  0.00  0.00    +0.000 A 
ATOM     29  C   UNL     1       8.692   7.631   3.113  0.00  0.00    +0.000 A 
ATOM     30  C   UNL     1       8.316   8.974   3.158  0.00  0.00    +0.000 A 
ENDBRANCH  20  22
ENDBRANCH  17  20
ENDBRANCH   8  17
ENDBRANCH  12  15
BRANCH  16  19
ATOM     19  C   UNL     1      15.518   8.813   4.388  0.00  0.00    +0.164 C 
BRANCH  19   1
ATOM      1  S   UNL     1      16.976   9.503   5.184  0.00  0.00    -0.155 S 
ATOM     26  C   UNL     1      18.219   8.368   4.522  0.00  0.00    +0.085 C 
ENDBRANCH  19   1
ENDBRANCH  16  19
TORSDOF 10
ENDMDL
