MODEL 1
REMARK VINA RESULT:      -6.7      0.000      0.000
REMARK  Name = 45783709
REMARK  7 active torsions:
REMARK  status: ('A' for Active; 'I' for Inactive)
REMARK    1  A    between atoms: O_2  and  C_20
REMARK    2  A    between atoms: O_2  and  C_21
REMARK    3  A    between atoms: N_3  and  C_11
REMARK    4  A    between atoms: C_7  and  C_12
REMARK    5  A    between atoms: C_11  and  C_13
REMARK    6  A    between atoms: C_11  and  C_14
REMARK    7  A    between atoms: C_15  and  C_16
REMARK                            x       y       z     vdW  Elec       q    Type
REMARK                         _______ _______ _______ _____ _____    ______ ____
ROOT
ATOM      1  O   UNL     1      14.406   8.708  19.553  0.00  0.00    -0.336 OA
ATOM      4  N   UNL     1      15.204   6.629  19.800  0.00  0.00    -0.190 NA
ATOM      5  N   UNL     1      15.722   8.848  20.014  0.00  0.00    -0.056 NA
ATOM     12  C   UNL     1      14.182   7.371  19.455  0.00  0.00    +0.245 A 
ATOM     15  C   UNL     1      16.124   7.579  20.136  0.00  0.00    +0.204 A 
ENDROOT
BRANCH  15  16
ATOM      6  N   UNL     1      19.306   7.677  22.058  0.00  0.00    -0.221 NA
ATOM     16  C   UNL     1      17.439   7.227  20.590  0.00  0.00    +0.041 A 
ATOM     17  C   UNL     1      18.120   6.147  20.042  0.00  0.00    +0.018 A 
ATOM     18  C   UNL     1      18.070   7.955  21.586  0.00  0.00    +0.126 A 
ATOM     19  C   UNL     1      19.394   5.829  20.501  0.00  0.00    +0.068 A 
ATOM     20  C   UNL     1      19.938   6.619  21.502  0.00  0.00    +0.214 A 
BRANCH  20   2
ATOM      2  O   UNL     1      21.191   6.326  21.971  0.00  0.00    -0.480 OA
ATOM     21  C   UNL     1      21.622   4.976  21.847  0.00  0.00    +0.279 C 
ENDBRANCH  20   2
ENDBRANCH  15  16
BRANCH  12   7
ATOM      3  N   UNL     1      11.674   7.198  19.880  0.00  0.00    -0.289 NA
ATOM      7  C   UNL     1      12.803   6.948  18.967  0.00  0.00    +0.146 C 
ATOM      8  C   UNL     1      12.330   7.666  17.695  0.00  0.00    +0.030 C 
ATOM      9  C   UNL     1      11.228   8.569  19.666  0.00  0.00    +0.085 C 
ATOM     10  C   UNL     1      11.374   8.762  18.164  0.00  0.00    +0.017 C 
BRANCH   3  11
ATOM     11  C   UNL     1      11.878   6.861  21.277  0.00  0.00    +0.051 C 
ATOM     13  C   UNL     1      11.095   5.601  21.636  0.00  0.00    +0.024 C 
ATOM     14  C   UNL     1      11.455   8.037  22.150  0.00  0.00    +0.024 C 
ENDBRANCH   3  11
ENDBRANCH  12   7
TORSDOF 4
ENDMDL
MODEL 2
REMARK VINA RESULT:      -6.2      4.289      6.450
REMARK  Name = 45783709
REMARK  7 active torsions:
REMARK  status: ('A' for Active; 'I' for Inactive)
REMARK    1  A    between atoms: O_2  and  C_20
REMARK    2  A    between atoms: O_2  and  C_21
REMARK    3  A    between atoms: N_3  and  C_11
REMARK    4  A    between atoms: C_7  and  C_12
REMARK    5  A    between atoms: C_11  and  C_13
REMARK    6  A    between atoms: C_11  and  C_14
REMARK    7  A    between atoms: C_15  and  C_16
REMARK                            x       y       z     vdW  Elec       q    Type
REMARK                         _______ _______ _______ _____ _____    ______ ____
ROOT
ATOM      1  O   UNL     1      11.912   6.947  18.695  0.00  0.00    -0.336 OA
ATOM      4  N   UNL     1      13.267   8.692  19.065  0.00  0.00    -0.190 NA
ATOM      5  N   UNL     1      12.090   7.571  17.454  0.00  0.00    -0.056 NA
ATOM     12  C   UNL     1      12.638   7.670  19.588  0.00  0.00    +0.245 A 
ATOM     15  C   UNL     1      12.900   8.592  17.755  0.00  0.00    +0.204 A 
ENDROOT
BRANCH  15  16
ATOM      6  N   UNL     1      13.036  10.596  14.626  0.00  0.00    -0.221 NA
ATOM     16  C   UNL     1      13.360   9.527  16.769  0.00  0.00    +0.041 A 
ATOM     17  C   UNL     1      14.528  10.255  16.965  0.00  0.00    +0.018 A 
ATOM     18  C   UNL     1      12.657   9.731  15.593  0.00  0.00    +0.126 A 
ATOM     19  C   UNL     1      14.951  11.155  15.992  0.00  0.00    +0.068 A 
ATOM     20  C   UNL     1      14.177  11.287  14.850  0.00  0.00    +0.214 A 
BRANCH  20   2
ATOM      2  O   UNL     1      14.571  12.167  13.877  0.00  0.00    -0.480 OA
ATOM     21  C   UNL     1      15.626  11.743  13.021  0.00  0.00    +0.279 C 
ENDBRANCH  20   2
ENDBRANCH  15  16
BRANCH  12   7
ATOM      3  N   UNL     1      12.479   8.225  22.071  0.00  0.00    -0.289 NA
ATOM      7  C   UNL     1      12.611   7.189  21.033  0.00  0.00    +0.146 C 
ATOM      8  C   UNL     1      11.434   6.265  21.374  0.00  0.00    +0.030 C 
ATOM      9  C   UNL     1      11.059   8.507  22.236  0.00  0.00    +0.085 C 
ATOM     10  C   UNL     1      10.403   7.144  22.080  0.00  0.00    +0.017 C 
BRANCH   3  11
ATOM     11  C   UNL     1      13.297   9.414  21.915  0.00  0.00    +0.051 C 
ATOM     13  C   UNL     1      14.715   9.149  22.414  0.00  0.00    +0.024 C 
ATOM     14  C   UNL     1      12.658  10.573  22.670  0.00  0.00    +0.024 C 
ENDBRANCH   3  11
ENDBRANCH  12   7
TORSDOF 4
ENDMDL
MODEL 3
REMARK VINA RESULT:      -5.9     26.473     28.261
REMARK  Name = 45783709
REMARK  7 active torsions:
REMARK  status: ('A' for Active; 'I' for Inactive)
REMARK    1  A    between atoms: O_2  and  C_20
REMARK    2  A    between atoms: O_2  and  C_21
REMARK    3  A    between atoms: N_3  and  C_11
REMARK    4  A    between atoms: C_7  and  C_12
REMARK    5  A    between atoms: C_11  and  C_13
REMARK    6  A    between atoms: C_11  and  C_14
REMARK    7  A    between atoms: C_15  and  C_16
REMARK                            x       y       z     vdW  Elec       q    Type
REMARK                         _______ _______ _______ _____ _____    ______ ____
ROOT
ATOM      1  O   UNL     1      -1.331 -11.086  15.238  0.00  0.00    -0.336 OA
ATOM      4  N   UNL     1      -3.435 -11.821  15.008  0.00  0.00    -0.190 NA
ATOM      5  N   UNL     1      -1.989 -10.765  16.433  0.00  0.00    -0.056 NA
ATOM     12  C   UNL     1      -2.254 -11.704  14.455  0.00  0.00    +0.245 A 
ATOM     15  C   UNL     1      -3.224 -11.230  16.220  0.00  0.00    +0.204 A 
ENDROOT
BRANCH  15  16
ATOM      6  N   UNL     1      -6.443 -10.258  17.807  0.00  0.00    -0.221 NA
ATOM     16  C   UNL     1      -4.269 -11.120  17.197  0.00  0.00    +0.041 A 
ATOM     17  C   UNL     1      -4.153 -11.730  18.440  0.00  0.00    +0.018 A 
ATOM     18  C   UNL     1      -5.423 -10.401  16.931  0.00  0.00    +0.126 A 
ATOM     19  C   UNL     1      -5.181 -11.605  19.369  0.00  0.00    +0.068 A 
ATOM     20  C   UNL     1      -6.295 -10.865  19.006  0.00  0.00    +0.214 A 
BRANCH  20   2
ATOM      2  O   UNL     1      -7.322 -10.728  19.903  0.00  0.00    -0.480 OA
ATOM     21  C   UNL     1      -8.630 -11.030  19.429  0.00  0.00    +0.279 C 
ENDBRANCH  20   2
ENDBRANCH  15  16
BRANCH  12   7
ATOM      3  N   UNL     1      -1.970 -13.583  12.756  0.00  0.00    -0.289 NA
ATOM      7  C   UNL     1      -1.782 -12.159  13.080  0.00  0.00    +0.146 C 
ATOM      8  C   UNL     1      -2.500 -11.482  11.905  0.00  0.00    +0.030 C 
ATOM      9  C   UNL     1      -3.324 -13.745  12.242  0.00  0.00    +0.085 C 
ATOM     10  C   UNL     1      -3.548 -12.484  11.421  0.00  0.00    +0.017 C 
BRANCH   3  11
ATOM     11  C   UNL     1      -1.620 -14.540  13.790  0.00  0.00    +0.051 C 
ATOM     13  C   UNL     1      -0.486 -15.444  13.311  0.00  0.00    +0.024 C 
ATOM     14  C   UNL     1      -2.851 -15.357  14.165  0.00  0.00    +0.024 C 
ENDBRANCH   3  11
ENDBRANCH  12   7
TORSDOF 4
ENDMDL
MODEL 4
REMARK VINA RESULT:      -5.9      1.749      2.215
REMARK  Name = 45783709
REMARK  7 active torsions:
REMARK  status: ('A' for Active; 'I' for Inactive)
REMARK    1  A    between atoms: O_2  and  C_20
REMARK    2  A    between atoms: O_2  and  C_21
REMARK    3  A    between atoms: N_3  and  C_11
REMARK    4  A    between atoms: C_7  and  C_12
REMARK    5  A    between atoms: C_11  and  C_13
REMARK    6  A    between atoms: C_11  and  C_14
REMARK    7  A    between atoms: C_15  and  C_16
REMARK                            x       y       z     vdW  Elec       q    Type
REMARK                         _______ _______ _______ _____ _____    ______ ____
ROOT
ATOM      1  O   UNL     1      13.815   6.897  19.436  0.00  0.00    -0.336 OA
ATOM      4  N   UNL     1      15.377   8.501  19.500  0.00  0.00    -0.190 NA
ATOM      5  N   UNL     1      14.978   6.289  19.925  0.00  0.00    -0.056 NA
ATOM     12  C   UNL     1      14.137   8.199  19.211  0.00  0.00    +0.245 A 
ATOM     15  C   UNL     1      15.854   7.299  19.933  0.00  0.00    +0.204 A 
ENDROOT
BRANCH  15  16
ATOM      6  N   UNL     1      19.301   5.932  20.218  0.00  0.00    -0.221 NA
ATOM     16  C   UNL     1      17.211   7.139  20.369  0.00  0.00    +0.041 A 
ATOM     17  C   UNL     1      17.760   7.984  21.326  0.00  0.00    +0.018 A 
ATOM     18  C   UNL     1      18.015   6.137  19.851  0.00  0.00    +0.126 A 
ATOM     19  C   UNL     1      19.078   7.805  21.731  0.00  0.00    +0.068 A 
ATOM     20  C   UNL     1      19.800   6.773  21.152  0.00  0.00    +0.214 A 
BRANCH  20   2
ATOM      2  O   UNL     1      21.101   6.577  21.532  0.00  0.00    -0.480 OA
ATOM     21  C   UNL     1      21.839   5.599  20.808  0.00  0.00    +0.279 C 
ENDBRANCH  20   2
ENDBRANCH  15  16
BRANCH  12   7
ATOM      3  N   UNL     1      12.313   9.924  19.647  0.00  0.00    -0.289 NA
ATOM      7  C   UNL     1      13.027   9.088  18.668  0.00  0.00    +0.146 C 
ATOM      8  C   UNL     1      13.494  10.141  17.653  0.00  0.00    +0.030 C 
ATOM      9  C   UNL     1      13.080  11.150  19.827  0.00  0.00    +0.085 C 
ATOM     10  C   UNL     1      13.601  11.453  18.430  0.00  0.00    +0.017 C 
BRANCH   3  11
ATOM     11  C   UNL     1      11.931   9.287  20.894  0.00  0.00    +0.051 C 
ATOM     13  C   UNL     1      10.796   8.294  20.654  0.00  0.00    +0.024 C 
ATOM     14  C   UNL     1      11.523  10.352  21.906  0.00  0.00    +0.024 C 
ENDBRANCH   3  11
ENDBRANCH  12   7
TORSDOF 4
ENDMDL
MODEL 5
REMARK VINA RESULT:      -5.8      4.008      7.642
REMARK  Name = 45783709
REMARK  7 active torsions:
REMARK  status: ('A' for Active; 'I' for Inactive)
REMARK    1  A    between atoms: O_2  and  C_20
REMARK    2  A    between atoms: O_2  and  C_21
REMARK    3  A    between atoms: N_3  and  C_11
REMARK    4  A    between atoms: C_7  and  C_12
REMARK    5  A    between atoms: C_11  and  C_13
REMARK    6  A    between atoms: C_11  and  C_14
REMARK    7  A    between atoms: C_15  and  C_16
REMARK                            x       y       z     vdW  Elec       q    Type
REMARK                         _______ _______ _______ _____ _____    ______ ____
ROOT
ATOM      1  O   UNL     1      11.157   7.731  21.082  0.00  0.00    -0.336 OA
ATOM      4  N   UNL     1      12.322   9.639  20.953  0.00  0.00    -0.190 NA
ATOM      5  N   UNL     1      10.581   8.602  22.016  0.00  0.00    -0.056 NA
ATOM     12  C   UNL     1      12.175   8.420  20.501  0.00  0.00    +0.245 A 
ATOM     15  C   UNL     1      11.324   9.706  21.880  0.00  0.00    +0.204 A 
ENDROOT
BRANCH  15  16
ATOM      6  N   UNL     1      10.643  11.894  24.809  0.00  0.00    -0.221 NA
ATOM     16  C   UNL     1      11.093  10.890  22.656  0.00  0.00    +0.041 A 
ATOM     17  C   UNL     1      11.088  12.146  22.061  0.00  0.00    +0.018 A 
ATOM     18  C   UNL     1      10.867  10.818  24.021  0.00  0.00    +0.126 A 
ATOM     19  C   UNL     1      10.860  13.277  22.837  0.00  0.00    +0.068 A 
ATOM     20  C   UNL     1      10.645  13.099  24.195  0.00  0.00    +0.214 A 
BRANCH  20   2
ATOM      2  O   UNL     1      10.420  14.198  24.982  0.00  0.00    -0.480 OA
ATOM     21  C   UNL     1      11.397  14.485  25.975  0.00  0.00    +0.279 C 
ENDBRANCH  20   2
ENDBRANCH  15  16
BRANCH  12   7
ATOM      3  N   UNL     1      13.596   8.509  18.387  0.00  0.00    -0.289 NA
ATOM      7  C   UNL     1      12.971   7.682  19.433  0.00  0.00    +0.146 C 
ATOM      8  C   UNL     1      14.181   6.902  19.967  0.00  0.00    +0.030 C 
ATOM      9  C   UNL     1      14.882   8.969  18.896  0.00  0.00    +0.085 C 
ATOM     10  C   UNL     1      15.401   7.777  19.686  0.00  0.00    +0.017 C 
BRANCH   3  11
ATOM     11  C   UNL     1      12.781   9.566  17.817  0.00  0.00    +0.051 C 
ATOM     13  C   UNL     1      12.282   9.160  16.432  0.00  0.00    +0.024 C 
ATOM     14  C   UNL     1      13.592  10.854  17.751  0.00  0.00    +0.024 C 
ENDBRANCH   3  11
ENDBRANCH  12   7
TORSDOF 4
ENDMDL
MODEL 6
REMARK VINA RESULT:      -5.5     15.599     18.420
REMARK  Name = 45783709
REMARK  7 active torsions:
REMARK  status: ('A' for Active; 'I' for Inactive)
REMARK    1  A    between atoms: O_2  and  C_20
REMARK    2  A    between atoms: O_2  and  C_21
REMARK    3  A    between atoms: N_3  and  C_11
REMARK    4  A    between atoms: C_7  and  C_12
REMARK    5  A    between atoms: C_11  and  C_13
REMARK    6  A    between atoms: C_11  and  C_14
REMARK    7  A    between atoms: C_15  and  C_16
REMARK                            x       y       z     vdW  Elec       q    Type
REMARK                         _______ _______ _______ _____ _____    ______ ____
ROOT
ATOM      1  O   UNL     1      10.172   4.686   5.400  0.00  0.00    -0.336 OA
ATOM      4  N   UNL     1      11.361   5.913   3.952  0.00  0.00    -0.190 NA
ATOM      5  N   UNL     1      10.249   3.932   4.222  0.00  0.00    -0.056 NA
ATOM     12  C   UNL     1      10.852   5.837   5.155  0.00  0.00    +0.245 A 
ATOM     15  C   UNL     1      10.965   4.722   3.416  0.00  0.00    +0.204 A 
ENDROOT
BRANCH  15  16
ATOM      6  N   UNL     1      10.649   4.188  -0.250  0.00  0.00    -0.221 NA
ATOM     16  C   UNL     1      11.301   4.351   2.072  0.00  0.00    +0.041 A 
ATOM     17  C   UNL     1      12.545   3.812   1.769  0.00  0.00    +0.018 A 
ATOM     18  C   UNL     1      10.395   4.517   1.037  0.00  0.00    +0.126 A 
ATOM     19  C   UNL     1      12.844   3.460   0.456  0.00  0.00    +0.068 A 
ATOM     20  C   UNL     1      11.869   3.666  -0.508  0.00  0.00    +0.214 A 
BRANCH  20   2
ATOM      2  O   UNL     1      12.139   3.329  -1.808  0.00  0.00    -0.480 OA
ATOM     21  C   UNL     1      11.982   1.958  -2.159  0.00  0.00    +0.279 C 
ENDBRANCH  20   2
ENDBRANCH  15  16
BRANCH  12   7
ATOM      3  N   UNL     1       9.840   7.845   6.356  0.00  0.00    -0.289 NA
ATOM      7  C   UNL     1      10.917   6.843   6.297  0.00  0.00    +0.146 C 
ATOM      8  C   UNL     1      10.831   6.221   7.698  0.00  0.00    +0.030 C 
ATOM      9  C   UNL     1       8.718   7.248   7.070  0.00  0.00    +0.085 C 
ATOM     10  C   UNL     1       9.387   6.419   8.155  0.00  0.00    +0.017 C 
BRANCH   3  11
ATOM     11  C   UNL     1       9.466   8.476   5.103  0.00  0.00    +0.051 C 
ATOM     13  C   UNL     1       9.493   9.995   5.248  0.00  0.00    +0.024 C 
ATOM     14  C   UNL     1       8.083   7.991   4.683  0.00  0.00    +0.024 C 
ENDBRANCH   3  11
ENDBRANCH  12   7
TORSDOF 4
ENDMDL
MODEL 7
REMARK VINA RESULT:      -5.5     26.525     28.244
REMARK  Name = 45783709
REMARK  7 active torsions:
REMARK  status: ('A' for Active; 'I' for Inactive)
REMARK    1  A    between atoms: O_2  and  C_20
REMARK    2  A    between atoms: O_2  and  C_21
REMARK    3  A    between atoms: N_3  and  C_11
REMARK    4  A    between atoms: C_7  and  C_12
REMARK    5  A    between atoms: C_11  and  C_13
REMARK    6  A    between atoms: C_11  and  C_14
REMARK    7  A    between atoms: C_15  and  C_16
REMARK                            x       y       z     vdW  Elec       q    Type
REMARK                         _______ _______ _______ _____ _____    ______ ____
ROOT
ATOM      1  O   UNL     1      -2.992 -11.292  16.487  0.00  0.00    -0.336 OA
ATOM      4  N   UNL     1      -4.576 -11.713  14.960  0.00  0.00    -0.190 NA
ATOM      5  N   UNL     1      -2.585 -10.643  15.314  0.00  0.00    -0.056 NA
ATOM     12  C   UNL     1      -4.173 -11.898  16.191  0.00  0.00    +0.245 A 
ATOM     15  C   UNL     1      -3.570 -10.939  14.460  0.00  0.00    +0.204 A 
ENDROOT
BRANCH  15  16
ATOM      6  N   UNL     1      -4.839  -9.685  11.197  0.00  0.00    -0.221 NA
ATOM     16  C   UNL     1      -3.579 -10.476  13.102  0.00  0.00    +0.041 A 
ATOM     17  C   UNL     1      -2.398 -10.367  12.376  0.00  0.00    +0.018 A 
ATOM     18  C   UNL     1      -4.762 -10.127  12.473  0.00  0.00    +0.126 A 
ATOM     19  C   UNL     1      -2.436  -9.916  11.061  0.00  0.00    +0.068 A 
ATOM     20  C   UNL     1      -3.671  -9.591  10.522  0.00  0.00    +0.214 A 
BRANCH  20   2
ATOM      2  O   UNL     1      -3.736  -9.144   9.229  0.00  0.00    -0.480 OA
ATOM     21  C   UNL     1      -4.848  -9.579   8.456  0.00  0.00    +0.279 C 
ENDBRANCH  20   2
ENDBRANCH  15  16
BRANCH  12   7
ATOM      3  N   UNL     1      -6.052 -12.098  17.901  0.00  0.00    -0.289 NA
ATOM      7  C   UNL     1      -4.833 -12.682  17.317  0.00  0.00    +0.146 C 
ATOM      8  C   UNL     1      -5.328 -14.078  16.915  0.00  0.00    +0.030 C 
ATOM      9  C   UNL     1      -7.181 -12.511  17.077  0.00  0.00    +0.085 C 
ATOM     10  C   UNL     1      -6.832 -13.939  16.685  0.00  0.00    +0.017 C 
BRANCH   3  11
ATOM     11  C   UNL     1      -6.024 -10.674  18.181  0.00  0.00    +0.051 C 
ATOM     13  C   UNL     1      -6.214 -10.425  19.675  0.00  0.00    +0.024 C 
ATOM     14  C   UNL     1      -7.107  -9.974  17.367  0.00  0.00    +0.024 C 
ENDBRANCH   3  11
ENDBRANCH  12   7
TORSDOF 4
ENDMDL
MODEL 8
REMARK VINA RESULT:      -5.4     26.688     28.155
REMARK  Name = 45783709
REMARK  7 active torsions:
REMARK  status: ('A' for Active; 'I' for Inactive)
REMARK    1  A    between atoms: O_2  and  C_20
REMARK    2  A    between atoms: O_2  and  C_21
REMARK    3  A    between atoms: N_3  and  C_11
REMARK    4  A    between atoms: C_7  and  C_12
REMARK    5  A    between atoms: C_11  and  C_13
REMARK    6  A    between atoms: C_11  and  C_14
REMARK    7  A    between atoms: C_15  and  C_16
REMARK                            x       y       z     vdW  Elec       q    Type
REMARK                         _______ _______ _______ _____ _____    ______ ____
ROOT
ATOM      1  O   UNL     1      -1.874 -10.898  13.072  0.00  0.00    -0.336 OA
ATOM      4  N   UNL     1      -4.078 -10.516  13.198  0.00  0.00    -0.190 NA
ATOM      5  N   UNL     1      -2.194 -10.911  14.436  0.00  0.00    -0.056 NA
ATOM     12  C   UNL     1      -3.040 -10.658  12.414  0.00  0.00    +0.245 A 
ATOM     15  C   UNL     1      -3.510 -10.678  14.428  0.00  0.00    +0.204 A 
ENDROOT
BRANCH  15  16
ATOM      6  N   UNL     1      -6.296  -9.856  16.751  0.00  0.00    -0.221 NA
ATOM     16  C   UNL     1      -4.287 -10.601  15.633  0.00  0.00    +0.041 A 
ATOM     17  C   UNL     1      -3.826 -11.162  16.818  0.00  0.00    +0.018 A 
ATOM     18  C   UNL     1      -5.517  -9.964  15.651  0.00  0.00    +0.126 A 
ATOM     19  C   UNL     1      -4.599 -11.072  17.971  0.00  0.00    +0.068 A 
ATOM     20  C   UNL     1      -5.816 -10.414  17.885  0.00  0.00    +0.214 A 
BRANCH  20   2
ATOM      2  O   UNL     1      -6.596 -10.312  19.007  0.00  0.00    -0.480 OA
ATOM     21  C   UNL     1      -7.221 -11.507  19.462  0.00  0.00    +0.279 C 
ENDBRANCH  20   2
ENDBRANCH  15  16
BRANCH  12   7
ATOM      3  N   UNL     1      -4.086 -11.185  10.150  0.00  0.00    -0.289 NA
ATOM      7  C   UNL     1      -2.961 -10.596  10.895  0.00  0.00    +0.146 C 
ATOM      8  C   UNL     1      -2.926  -9.173  10.318  0.00  0.00    +0.030 C 
ATOM      9  C   UNL     1      -5.127 -10.170  10.045  0.00  0.00    +0.085 C 
ATOM     10  C   UNL     1      -4.348  -8.879   9.844  0.00  0.00    +0.017 C 
BRANCH   3  11
ATOM     11  C   UNL     1      -4.571 -12.473  10.612  0.00  0.00    +0.051 C 
ATOM     13  C   UNL     1      -4.195 -13.566   9.615  0.00  0.00    +0.024 C 
ATOM     14  C   UNL     1      -6.081 -12.407  10.809  0.00  0.00    +0.024 C 
ENDBRANCH   3  11
ENDBRANCH  12   7
TORSDOF 4
ENDMDL
MODEL 9
REMARK VINA RESULT:      -5.4      2.713      8.891
REMARK  Name = 45783709
REMARK  7 active torsions:
REMARK  status: ('A' for Active; 'I' for Inactive)
REMARK    1  A    between atoms: O_2  and  C_20
REMARK    2  A    between atoms: O_2  and  C_21
REMARK    3  A    between atoms: N_3  and  C_11
REMARK    4  A    between atoms: C_7  and  C_12
REMARK    5  A    between atoms: C_11  and  C_13
REMARK    6  A    between atoms: C_11  and  C_14
REMARK    7  A    between atoms: C_15  and  C_16
REMARK                            x       y       z     vdW  Elec       q    Type
REMARK                         _______ _______ _______ _____ _____    ______ ____
ROOT
ATOM      1  O   UNL     1      21.175   6.094  23.487  0.00  0.00    -0.336 OA
ATOM      4  N   UNL     1      21.085   5.957  21.253  0.00  0.00    -0.190 NA
ATOM      5  N   UNL     1      19.843   6.351  23.135  0.00  0.00    -0.056 NA
ATOM     12  C   UNL     1      21.837   5.872  22.321  0.00  0.00    +0.245 A 
ATOM     15  C   UNL     1      19.871   6.252  21.802  0.00  0.00    +0.204 A 
ENDROOT
BRANCH  15  16
ATOM      6  N   UNL     1      16.654   7.657  20.573  0.00  0.00    -0.221 NA
ATOM     16  C   UNL     1      18.703   6.444  20.990  0.00  0.00    +0.041 A 
ATOM     17  C   UNL     1      18.469   5.649  19.875  0.00  0.00    +0.018 A 
ATOM     18  C   UNL     1      17.774   7.425  21.295  0.00  0.00    +0.126 A 
ATOM     19  C   UNL     1      17.329   5.856  19.107  0.00  0.00    +0.068 A 
ATOM     20  C   UNL     1      16.460   6.864  19.495  0.00  0.00    +0.214 A 
BRANCH  20   2
ATOM      2  O   UNL     1      15.329   7.089  18.754  0.00  0.00    -0.480 OA
ATOM     21  C   UNL     1      14.756   8.388  18.840  0.00  0.00    +0.279 C 
ENDBRANCH  20   2
ENDBRANCH  15  16
BRANCH  12   7
ATOM      3  N   UNL     1      23.804   4.361  21.734  0.00  0.00    -0.289 NA
ATOM      7  C   UNL     1      23.324   5.565  22.433  0.00  0.00    +0.146 C 
ATOM      8  C   UNL     1      24.243   6.645  21.845  0.00  0.00    +0.030 C 
ATOM      9  C   UNL     1      24.080   4.732  20.351  0.00  0.00    +0.085 C 
ATOM     10  C   UNL     1      24.662   6.133  20.467  0.00  0.00    +0.017 C 
BRANCH   3  11
ATOM     11  C   UNL     1      22.995   3.163  21.867  0.00  0.00    +0.051 C 
ATOM     13  C   UNL     1      23.036   2.655  23.305  0.00  0.00    +0.024 C 
ATOM     14  C   UNL     1      23.496   2.101  20.895  0.00  0.00    +0.024 C 
ENDBRANCH   3  11
ENDBRANCH  12   7
TORSDOF 4
ENDMDL
MODEL 10
REMARK VINA RESULT:      -5.3     15.287     18.149
REMARK  Name = 45783709
REMARK  7 active torsions:
REMARK  status: ('A' for Active; 'I' for Inactive)
REMARK    1  A    between atoms: O_2  and  C_20
REMARK    2  A    between atoms: O_2  and  C_21
REMARK    3  A    between atoms: N_3  and  C_11
REMARK    4  A    between atoms: C_7  and  C_12
REMARK    5  A    between atoms: C_11  and  C_13
REMARK    6  A    between atoms: C_11  and  C_14
REMARK    7  A    between atoms: C_15  and  C_16
REMARK                            x       y       z     vdW  Elec       q    Type
REMARK                         _______ _______ _______ _____ _____    ______ ____
ROOT
ATOM      1  O   UNL     1       9.618   6.845   4.595  0.00  0.00    -0.336 OA
ATOM      4  N   UNL     1      10.994   5.083   4.454  0.00  0.00    -0.190 NA
ATOM      5  N   UNL     1       9.740   6.554   3.230  0.00  0.00    -0.056 NA
ATOM     12  C   UNL     1      10.388   5.932   5.245  0.00  0.00    +0.245 A 
ATOM     15  C   UNL     1      10.567   5.504   3.229  0.00  0.00    +0.204 A 
ENDROOT
BRANCH  15  16
ATOM      6  N   UNL     1      10.520   4.269  -0.279  0.00  0.00    -0.221 NA
ATOM     16  C   UNL     1      10.986   4.854   2.020  0.00  0.00    +0.041 A 
ATOM     17  C   UNL     1      12.207   4.194   1.949  0.00  0.00    +0.018 A 
ATOM     18  C   UNL     1      10.185   4.862   0.889  0.00  0.00    +0.126 A 
ATOM     19  C   UNL     1      12.587   3.571   0.764  0.00  0.00    +0.068 A 
ATOM     20  C   UNL     1      11.715   3.637  -0.311  0.00  0.00    +0.214 A 
BRANCH  20   2
ATOM      2  O   UNL     1      12.066   3.032  -1.489  0.00  0.00    -0.480 OA
ATOM     21  C   UNL     1      11.090   3.034  -2.525  0.00  0.00    +0.279 C 
ENDBRANCH  20   2
ENDBRANCH  15  16
BRANCH  12   7
ATOM      3  N   UNL     1      11.165   7.175   7.330  0.00  0.00    -0.289 NA
ATOM      7  C   UNL     1      10.426   6.034   6.763  0.00  0.00    +0.146 C 
ATOM      8  C   UNL     1       9.051   6.204   7.424  0.00  0.00    +0.030 C 
ATOM      9  C   UNL     1      10.258   8.315   7.369  0.00  0.00    +0.085 C 
ATOM     10  C   UNL     1       8.920   7.693   7.740  0.00  0.00    +0.017 C 
BRANCH   3  11
ATOM     11  C   UNL     1      12.456   7.475   6.738  0.00  0.00    +0.051 C 
ATOM     13  C   UNL     1      13.535   6.578   7.339  0.00  0.00    +0.024 C 
ATOM     14  C   UNL     1      12.784   8.948   6.954  0.00  0.00    +0.024 C 
ENDBRANCH   3  11
ENDBRANCH  12   7
TORSDOF 4
ENDMDL
