MODEL 1
REMARK VINA RESULT:      -7.4      0.000      0.000
REMARK  Name = 75367689
REMARK  5 active torsions:
REMARK  status: ('A' for Active; 'I' for Inactive)
REMARK    1  A    between atoms: S_1  and  C_20
REMARK    2  A    between atoms: S_1  and  C_24
REMARK    3  A    between atoms: O_3  and  C_10
REMARK    4  A    between atoms: O_3  and  C_16
REMARK    5  A    between atoms: C_15  and  C_17
REMARK                            x       y       z     vdW  Elec       q    Type
REMARK                         _______ _______ _______ _____ _____    ______ ____
ROOT
ATOM      2  O   UNL     1      13.229   7.553  21.963  0.00  0.00    -0.375 OA
ATOM      4  O   UNL     1      11.573   7.703  17.430  0.00  0.00    -0.268 OA
ATOM      7  N   UNL     1      13.443   7.556  18.836  0.00  0.00    -0.290 N 
ATOM     10  C   UNL     1      15.241   7.873  20.621  0.00  0.00    +0.216 C 
ATOM     11  C   UNL     1      14.806   7.996  19.157  0.00  0.00    +0.155 C 
ATOM     12  C   UNL     1      14.241   8.486  21.599  0.00  0.00    +0.206 C 
ATOM     13  C   UNL     1      12.783   6.618  19.745  0.00  0.00    +0.136 C 
ATOM     14  C   UNL     1      12.232   7.337  20.970  0.00  0.00    +0.179 C 
ATOM     15  C   UNL     1      12.726   8.019  17.720  0.00  0.00    +0.267 C 
ENDROOT
BRANCH  15  17
ATOM      8  N   UNL     1      13.309  10.270  17.127  0.00  0.00    -0.247 NA
ATOM      9  N   UNL     1      14.668   9.382  14.840  0.00  0.00    -0.259 NA
ATOM     17  C   UNL     1      13.391   8.963  16.807  0.00  0.00    +0.144 A 
ATOM     23  C   UNL     1      14.058   8.527  15.684  0.00  0.00    +0.143 A 
ATOM     25  C   UNL     1      13.919  11.125  16.282  0.00  0.00    +0.131 A 
ATOM     26  C   UNL     1      14.587  10.689  15.159  0.00  0.00    +0.130 A 
ENDBRANCH  15  17
BRANCH  10   3
ATOM      3  O   UNL     1      16.488   8.560  20.738  0.00  0.00    -0.485 OA
BRANCH   3  16
ATOM     16  C   UNL     1      17.595   7.784  20.948  0.00  0.00    +0.121 A 
ATOM     18  C   UNL     1      17.753   6.590  20.244  0.00  0.00    +0.047 A 
ATOM     19  C   UNL     1      18.566   8.189  21.864  0.00  0.00    +0.047 A 
ATOM     20  C   UNL     1      19.853   6.203  21.374  0.00  0.00    +0.088 A 
ATOM     21  C   UNL     1      18.881   5.800  20.458  0.00  0.00    +0.030 A 
ATOM     22  C   UNL     1      19.695   7.397  22.077  0.00  0.00    +0.030 A 
BRANCH  20   1
ATOM      1  S   UNL     1      21.264   5.210  21.645  0.00  0.00    -0.006 S 
ATOM      5  O   UNL     1      21.494   5.099  23.079  0.00  0.00    -0.170 OA
ATOM      6  O   UNL     1      21.127   4.006  20.839  0.00  0.00    -0.170 OA
ATOM     24  C   UNL     1      22.609   6.164  20.977  0.00  0.00    +0.200 C 
ENDBRANCH  20   1
ENDBRANCH   3  16
ENDBRANCH  10   3
TORSDOF 4
ENDMDL
MODEL 2
REMARK VINA RESULT:      -6.8      2.627      4.281
REMARK  Name = 75367689
REMARK  5 active torsions:
REMARK  status: ('A' for Active; 'I' for Inactive)
REMARK    1  A    between atoms: S_1  and  C_20
REMARK    2  A    between atoms: S_1  and  C_24
REMARK    3  A    between atoms: O_3  and  C_10
REMARK    4  A    between atoms: O_3  and  C_16
REMARK    5  A    between atoms: C_15  and  C_17
REMARK                            x       y       z     vdW  Elec       q    Type
REMARK                         _______ _______ _______ _____ _____    ______ ____
ROOT
ATOM      2  O   UNL     1      12.938   7.906  16.713  0.00  0.00    -0.375 OA
ATOM      4  O   UNL     1      13.168  12.308  18.682  0.00  0.00    -0.268 OA
ATOM      7  N   UNL     1      14.044  10.135  18.619  0.00  0.00    -0.290 N 
ATOM     10  C   UNL     1      14.432   7.611  18.619  0.00  0.00    +0.216 C 
ATOM     11  C   UNL     1      14.519   8.954  19.350  0.00  0.00    +0.155 C 
ATOM     12  C   UNL     1      13.055   7.343  18.016  0.00  0.00    +0.206 C 
ATOM     13  C   UNL     1      13.989  10.072  17.158  0.00  0.00    +0.136 C 
ATOM     14  C   UNL     1      12.752   9.317  16.687  0.00  0.00    +0.179 C 
ATOM     15  C   UNL     1      13.603  11.309  19.252  0.00  0.00    +0.267 C 
ENDROOT
BRANCH  15  17
ATOM      8  N   UNL     1      12.530  11.041  21.381  0.00  0.00    -0.247 NA
ATOM      9  N   UNL     1      14.866  11.814  22.727  0.00  0.00    -0.259 NA
ATOM     17  C   UNL     1      13.658  11.372  20.721  0.00  0.00    +0.144 A 
ATOM     23  C   UNL     1      14.805  11.751  21.382  0.00  0.00    +0.143 A 
ATOM     25  C   UNL     1      12.591  11.104  22.727  0.00  0.00    +0.131 A 
ATOM     26  C   UNL     1      13.739  11.483  23.388  0.00  0.00    +0.130 A 
ENDBRANCH  15  17
BRANCH  10   3
ATOM      3  O   UNL     1      14.723   6.599  19.583  0.00  0.00    -0.485 OA
BRANCH   3  16
ATOM     16  C   UNL     1      16.032   6.469  19.956  0.00  0.00    +0.121 A 
ATOM     18  C   UNL     1      16.449   6.921  21.209  0.00  0.00    +0.047 A 
ATOM     19  C   UNL     1      16.951   5.883  19.085  0.00  0.00    +0.047 A 
ATOM     20  C   UNL     1      18.703   6.203  20.718  0.00  0.00    +0.088 A 
ATOM     21  C   UNL     1      17.783   6.788  21.589  0.00  0.00    +0.030 A 
ATOM     22  C   UNL     1      18.287   5.751  19.466  0.00  0.00    +0.030 A 
BRANCH  20   1
ATOM      1  S   UNL     1      20.376   6.041  21.193  0.00  0.00    -0.006 S 
ATOM      5  O   UNL     1      21.151   7.096  20.555  0.00  0.00    -0.170 OA
ATOM      6  O   UNL     1      20.418   5.887  22.639  0.00  0.00    -0.170 OA
ATOM     24  C   UNL     1      20.895   4.504  20.464  0.00  0.00    +0.200 C 
ENDBRANCH  20   1
ENDBRANCH   3  16
ENDBRANCH  10   3
TORSDOF 4
ENDMDL
MODEL 3
REMARK VINA RESULT:      -6.2      1.897      2.423
REMARK  Name = 75367689
REMARK  5 active torsions:
REMARK  status: ('A' for Active; 'I' for Inactive)
REMARK    1  A    between atoms: S_1  and  C_20
REMARK    2  A    between atoms: S_1  and  C_24
REMARK    3  A    between atoms: O_3  and  C_10
REMARK    4  A    between atoms: O_3  and  C_16
REMARK    5  A    between atoms: C_15  and  C_17
REMARK                            x       y       z     vdW  Elec       q    Type
REMARK                         _______ _______ _______ _____ _____    ______ ____
ROOT
ATOM      2  O   UNL     1      12.570  10.986  23.044  0.00  0.00    -0.375 OA
ATOM      4  O   UNL     1      10.666   8.433  19.415  0.00  0.00    -0.268 OA
ATOM      7  N   UNL     1      12.587   8.963  20.649  0.00  0.00    -0.290 N 
ATOM     10  C   UNL     1      14.519  10.097  21.874  0.00  0.00    +0.216 C 
ATOM     11  C   UNL     1      14.012   9.316  20.659  0.00  0.00    +0.155 C 
ATOM     12  C   UNL     1      13.667  11.322  22.200  0.00  0.00    +0.206 C 
ATOM     13  C   UNL     1      11.872   8.922  21.926  0.00  0.00    +0.136 C 
ATOM     14  C   UNL     1      11.494  10.324  22.388  0.00  0.00    +0.179 C 
ATOM     15  C   UNL     1      11.865   8.700  19.473  0.00  0.00    +0.267 C 
ENDROOT
BRANCH  15  17
ATOM      8  N   UNL     1      12.561   9.914  17.523  0.00  0.00    -0.247 NA
ATOM      9  N   UNL     1      13.903   7.663  16.524  0.00  0.00    -0.259 NA
ATOM     17  C   UNL     1      12.584   8.742  18.189  0.00  0.00    +0.144 A 
ATOM     23  C   UNL     1      13.243   7.637  17.698  0.00  0.00    +0.143 A 
ATOM     25  C   UNL     1      13.221   9.940  16.348  0.00  0.00    +0.131 A 
ATOM     26  C   UNL     1      13.880   8.834  15.857  0.00  0.00    +0.130 A 
ENDBRANCH  15  17
BRANCH  10   3
ATOM      3  O   UNL     1      15.847  10.523  21.565  0.00  0.00    -0.485 OA
BRANCH   3  16
ATOM     16  C   UNL     1      16.803   9.546  21.507  0.00  0.00    +0.121 A 
ATOM     18  C   UNL     1      18.141   9.866  21.738  0.00  0.00    +0.047 A 
ATOM     19  C   UNL     1      16.439   8.231  21.219  0.00  0.00    +0.047 A 
ATOM     20  C   UNL     1      18.753   7.555  21.390  0.00  0.00    +0.088 A 
ATOM     21  C   UNL     1      19.115   8.871  21.680  0.00  0.00    +0.030 A 
ATOM     22  C   UNL     1      17.416   7.235  21.160  0.00  0.00    +0.030 A 
BRANCH  20   1
ATOM      1  S   UNL     1      19.975   6.309  21.313  0.00  0.00    -0.006 S 
ATOM      5  O   UNL     1      20.340   5.923  22.669  0.00  0.00    -0.170 OA
ATOM      6  O   UNL     1      19.524   5.297  20.369  0.00  0.00    -0.170 OA
ATOM     24  C   UNL     1      21.390   7.123  20.607  0.00  0.00    +0.200 C 
ENDBRANCH  20   1
ENDBRANCH   3  16
ENDBRANCH  10   3
TORSDOF 4
ENDMDL
MODEL 4
REMARK VINA RESULT:      -6.1      3.066      4.568
REMARK  Name = 75367689
REMARK  5 active torsions:
REMARK  status: ('A' for Active; 'I' for Inactive)
REMARK    1  A    between atoms: S_1  and  C_20
REMARK    2  A    between atoms: S_1  and  C_24
REMARK    3  A    between atoms: O_3  and  C_10
REMARK    4  A    between atoms: O_3  and  C_16
REMARK    5  A    between atoms: C_15  and  C_17
REMARK                            x       y       z     vdW  Elec       q    Type
REMARK                         _______ _______ _______ _____ _____    ______ ____
ROOT
ATOM      2  O   UNL     1      11.697   6.188  20.637  0.00  0.00    -0.375 OA
ATOM      4  O   UNL     1      11.082  10.145  23.335  0.00  0.00    -0.268 OA
ATOM      7  N   UNL     1      11.824   9.249  21.300  0.00  0.00    -0.290 N 
ATOM     10  C   UNL     1      12.939   7.910  19.434  0.00  0.00    +0.216 C 
ATOM     11  C   UNL     1      12.853   9.200  20.254  0.00  0.00    +0.155 C 
ATOM     12  C   UNL     1      13.000   6.651  20.298  0.00  0.00    +0.206 C 
ATOM     13  C   UNL     1      10.679   8.345  21.192  0.00  0.00    +0.136 C 
ATOM     14  C   UNL     1      11.043   6.940  21.654  0.00  0.00    +0.179 C 
ATOM     15  C   UNL     1      11.903  10.094  22.420  0.00  0.00    +0.267 C 
ENDROOT
BRANCH  15  17
ATOM      8  N   UNL     1      14.185  10.483  23.050  0.00  0.00    -0.247 NA
ATOM      9  N   UNL     1      14.025  13.156  22.216  0.00  0.00    -0.259 NA
ATOM     17  C   UNL     1      13.055  11.002  22.529  0.00  0.00    +0.144 A 
ATOM     23  C   UNL     1      12.977  12.315  22.120  0.00  0.00    +0.143 A 
ATOM     25  C   UNL     1      15.234  11.325  23.147  0.00  0.00    +0.131 A 
ATOM     26  C   UNL     1      15.155  12.638  22.737  0.00  0.00    +0.130 A 
ENDBRANCH  15  17
BRANCH  10   3
ATOM      3  O   UNL     1      14.132   7.997  18.654  0.00  0.00    -0.485 OA
BRANCH   3  16
ATOM     16  C   UNL     1      15.311   7.803  19.319  0.00  0.00    +0.121 A 
ATOM     18  C   UNL     1      15.822   8.809  20.140  0.00  0.00    +0.047 A 
ATOM     19  C   UNL     1      16.002   6.600  19.178  0.00  0.00    +0.047 A 
ATOM     20  C   UNL     1      17.716   7.409  20.677  0.00  0.00    +0.088 A 
ATOM     21  C   UNL     1      17.024   8.612  20.818  0.00  0.00    +0.030 A 
ATOM     22  C   UNL     1      17.206   6.403  19.857  0.00  0.00    +0.030 A 
BRANCH  20   1
ATOM      1  S   UNL     1      19.224   7.164  21.523  0.00  0.00    -0.006 S 
ATOM      5  O   UNL     1      19.019   6.178  22.575  0.00  0.00    -0.170 OA
ATOM      6  O   UNL     1      20.267   6.954  20.530  0.00  0.00    -0.170 OA
ATOM     24  C   UNL     1      19.538   8.720  22.325  0.00  0.00    +0.200 C 
ENDBRANCH  20   1
ENDBRANCH   3  16
ENDBRANCH  10   3
TORSDOF 4
ENDMDL
MODEL 5
REMARK VINA RESULT:      -6.1     31.812     33.661
REMARK  Name = 75367689
REMARK  5 active torsions:
REMARK  status: ('A' for Active; 'I' for Inactive)
REMARK    1  A    between atoms: S_1  and  C_20
REMARK    2  A    between atoms: S_1  and  C_24
REMARK    3  A    between atoms: O_3  and  C_10
REMARK    4  A    between atoms: O_3  and  C_16
REMARK    5  A    between atoms: C_15  and  C_17
REMARK                            x       y       z     vdW  Elec       q    Type
REMARK                         _______ _______ _______ _____ _____    ______ ____
ROOT
ATOM      2  O   UNL     1     -16.673   6.847  32.842  0.00  0.00    -0.375 OA
ATOM      4  O   UNL     1     -13.898  10.578  34.139  0.00  0.00    -0.268 OA
ATOM      7  N   UNL     1     -13.983   8.362  33.381  0.00  0.00    -0.290 N 
ATOM     10  C   UNL     1     -14.440   5.877  33.014  0.00  0.00    +0.216 C 
ATOM     11  C   UNL     1     -13.492   6.983  33.486  0.00  0.00    +0.155 C 
ATOM     12  C   UNL     1     -15.840   5.989  33.616  0.00  0.00    +0.206 C 
ATOM     13  C   UNL     1     -15.062   8.645  32.435  0.00  0.00    +0.136 C 
ATOM     14  C   UNL     1     -16.414   8.237  33.007  0.00  0.00    +0.179 C 
ATOM     15  C   UNL     1     -13.494   9.416  34.171  0.00  0.00    +0.267 C 
ENDROOT
BRANCH  15  17
ATOM      8  N   UNL     1     -11.173   9.537  34.767  0.00  0.00    -0.247 NA
ATOM      9  N   UNL     1     -11.662   8.212  37.190  0.00  0.00    -0.259 NA
ATOM     17  C   UNL     1     -12.409   9.131  35.122  0.00  0.00    +0.144 A 
ATOM     23  C   UNL     1     -12.649   8.480  36.312  0.00  0.00    +0.143 A 
ATOM     25  C   UNL     1     -10.187   9.269  35.645  0.00  0.00    +0.131 A 
ATOM     26  C   UNL     1     -10.427   8.618  36.836  0.00  0.00    +0.130 A 
ENDBRANCH  15  17
BRANCH  10   3
ATOM      3  O   UNL     1     -13.859   4.636  33.417  0.00  0.00    -0.485 OA
BRANCH   3  16
ATOM     16  C   UNL     1     -14.136   3.549  32.634  0.00  0.00    +0.121 A 
ATOM     18  C   UNL     1     -14.524   2.346  33.224  0.00  0.00    +0.047 A 
ATOM     19  C   UNL     1     -14.032   3.645  31.247  0.00  0.00    +0.047 A 
ATOM     20  C   UNL     1     -14.702   1.333  31.038  0.00  0.00    +0.088 A 
ATOM     21  C   UNL     1     -14.807   1.239  32.426  0.00  0.00    +0.030 A 
ATOM     22  C   UNL     1     -14.314   2.535  30.449  0.00  0.00    +0.030 A 
BRANCH  20   1
ATOM      1  S   UNL     1     -15.052  -0.057  30.039  0.00  0.00    -0.006 S 
ATOM      5  O   UNL     1     -15.714  -1.067  30.853  0.00  0.00    -0.170 OA
ATOM      6  O   UNL     1     -15.687   0.418  28.818  0.00  0.00    -0.170 OA
ATOM     24  C   UNL     1     -13.453  -0.704  29.608  0.00  0.00    +0.200 C 
ENDBRANCH  20   1
ENDBRANCH   3  16
ENDBRANCH  10   3
TORSDOF 4
ENDMDL
MODEL 6
REMARK VINA RESULT:      -6.1     16.318     20.143
REMARK  Name = 75367689
REMARK  5 active torsions:
REMARK  status: ('A' for Active; 'I' for Inactive)
REMARK    1  A    between atoms: S_1  and  C_20
REMARK    2  A    between atoms: S_1  and  C_24
REMARK    3  A    between atoms: O_3  and  C_10
REMARK    4  A    between atoms: O_3  and  C_16
REMARK    5  A    between atoms: C_15  and  C_17
REMARK                            x       y       z     vdW  Elec       q    Type
REMARK                         _______ _______ _______ _____ _____    ______ ____
ROOT
ATOM      2  O   UNL     1      14.285   3.766   1.712  0.00  0.00    -0.375 OA
ATOM      4  O   UNL     1      13.762   3.977  -3.083  0.00  0.00    -0.268 OA
ATOM      7  N   UNL     1      12.826   4.428  -0.982  0.00  0.00    -0.290 N 
ATOM     10  C   UNL     1      11.936   4.353   1.410  0.00  0.00    +0.216 C 
ATOM     11  C   UNL     1      11.657   4.383  -0.096  0.00  0.00    +0.155 C 
ATOM     12  C   UNL     1      12.949   3.283   1.812  0.00  0.00    +0.206 C 
ATOM     13  C   UNL     1      14.092   4.922  -0.438  0.00  0.00    +0.136 C 
ATOM     14  C   UNL     1      14.792   3.846   0.384  0.00  0.00    +0.179 C 
ATOM     15  C   UNL     1      12.801   3.987  -2.315  0.00  0.00    +0.267 C 
ENDROOT
BRANCH  15  17
ATOM      8  N   UNL     1      10.821   4.353  -3.621  0.00  0.00    -0.247 NA
ATOM      9  N   UNL     1       9.921   1.748  -3.100  0.00  0.00    -0.259 NA
ATOM     17  C   UNL     1      11.528   3.491  -2.862  0.00  0.00    +0.144 A 
ATOM     23  C   UNL     1      11.086   2.212  -2.606  0.00  0.00    +0.143 A 
ATOM     25  C   UNL     1       9.656   3.888  -4.114  0.00  0.00    +0.131 A 
ATOM     26  C   UNL     1       9.214   2.609  -3.859  0.00  0.00    +0.130 A 
ENDBRANCH  15  17
BRANCH  10   3
ATOM      3  O   UNL     1      10.691   4.080   2.054  0.00  0.00    -0.485 OA
BRANCH   3  16
ATOM     16  C   UNL     1      10.340   4.911   3.082  0.00  0.00    +0.121 A 
ATOM     18  C   UNL     1      10.396   4.454   4.398  0.00  0.00    +0.047 A 
ATOM     19  C   UNL     1       9.927   6.216   2.813  0.00  0.00    +0.047 A 
ATOM     20  C   UNL     1       9.625   6.607   5.178  0.00  0.00    +0.088 A 
ATOM     21  C   UNL     1      10.038   5.302   5.446  0.00  0.00    +0.030 A 
ATOM     22  C   UNL     1       9.569   7.064   3.862  0.00  0.00    +0.030 A 
BRANCH  20   1
ATOM      1  S   UNL     1       9.173   7.667   6.491  0.00  0.00    -0.006 S 
ATOM      5  O   UNL     1       8.157   8.597   6.017  0.00  0.00    -0.170 OA
ATOM      6  O   UNL     1       8.910   6.844   7.662  0.00  0.00    -0.170 OA
ATOM     24  C   UNL     1      10.639   8.622   6.811  0.00  0.00    +0.200 C 
ENDBRANCH  20   1
ENDBRANCH   3  16
ENDBRANCH  10   3
TORSDOF 4
ENDMDL
MODEL 7
REMARK VINA RESULT:      -6.1      5.292      7.543
REMARK  Name = 75367689
REMARK  5 active torsions:
REMARK  status: ('A' for Active; 'I' for Inactive)
REMARK    1  A    between atoms: S_1  and  C_20
REMARK    2  A    between atoms: S_1  and  C_24
REMARK    3  A    between atoms: O_3  and  C_10
REMARK    4  A    between atoms: O_3  and  C_16
REMARK    5  A    between atoms: C_15  and  C_17
REMARK                            x       y       z     vdW  Elec       q    Type
REMARK                         _______ _______ _______ _____ _____    ______ ____
ROOT
ATOM      2  O   UNL     1      11.610   6.359  20.792  0.00  0.00    -0.375 OA
ATOM      4  O   UNL     1      10.902  10.252  23.558  0.00  0.00    -0.268 OA
ATOM      7  N   UNL     1      11.691   9.407  21.520  0.00  0.00    -0.290 N 
ATOM     10  C   UNL     1      12.855   8.118  19.647  0.00  0.00    +0.216 C 
ATOM     11  C   UNL     1      12.740   9.391  20.492  0.00  0.00    +0.155 C 
ATOM     12  C   UNL     1      12.914   6.843  20.486  0.00  0.00    +0.206 C 
ATOM     13  C   UNL     1      10.558   8.493  21.371  0.00  0.00    +0.136 C 
ATOM     14  C   UNL     1      10.930   7.083  21.812  0.00  0.00    +0.179 C 
ATOM     15  C   UNL     1      11.740  10.229  22.658  0.00  0.00    +0.267 C 
ENDROOT
BRANCH  15  17
ATOM      8  N   UNL     1      14.009  10.627  23.330  0.00  0.00    -0.247 NA
ATOM      9  N   UNL     1      13.829  13.320  22.565  0.00  0.00    -0.259 NA
ATOM     17  C   UNL     1      12.880  11.147  22.807  0.00  0.00    +0.144 A 
ATOM     23  C   UNL     1      12.792  12.469  22.432  0.00  0.00    +0.143 A 
ATOM     25  C   UNL     1      15.046  11.479  23.464  0.00  0.00    +0.131 A 
ATOM     26  C   UNL     1      14.957  12.801  23.088  0.00  0.00    +0.130 A 
ENDBRANCH  15  17
BRANCH  10   3
ATOM      3  O   UNL     1      14.061   8.234  18.892  0.00  0.00    -0.485 OA
BRANCH   3  16
ATOM     16  C   UNL     1      14.019   9.054  17.797  0.00  0.00    +0.121 A 
ATOM     18  C   UNL     1      13.192   8.736  16.720  0.00  0.00    +0.047 A 
ATOM     19  C   UNL     1      14.802  10.207  17.759  0.00  0.00    +0.047 A 
ATOM     20  C   UNL     1      13.933  10.725  15.565  0.00  0.00    +0.088 A 
ATOM     21  C   UNL     1      13.150   9.571  15.604  0.00  0.00    +0.030 A 
ATOM     22  C   UNL     1      14.759  11.043  16.642  0.00  0.00    +0.030 A 
BRANCH  20   1
ATOM      1  S   UNL     1      13.882  11.769  14.166  0.00  0.00    -0.006 S 
ATOM      5  O   UNL     1      15.008  11.449  13.298  0.00  0.00    -0.170 OA
ATOM      6  O   UNL     1      12.528  11.739  13.634  0.00  0.00    -0.170 OA
ATOM     24  C   UNL     1      14.178  13.396  14.818  0.00  0.00    +0.200 C 
ENDBRANCH  20   1
ENDBRANCH   3  16
ENDBRANCH  10   3
TORSDOF 4
ENDMDL
MODEL 8
REMARK VINA RESULT:      -6.0      4.702      9.336
REMARK  Name = 75367689
REMARK  5 active torsions:
REMARK  status: ('A' for Active; 'I' for Inactive)
REMARK    1  A    between atoms: S_1  and  C_20
REMARK    2  A    between atoms: S_1  and  C_24
REMARK    3  A    between atoms: O_3  and  C_10
REMARK    4  A    between atoms: O_3  and  C_16
REMARK    5  A    between atoms: C_15  and  C_17
REMARK                            x       y       z     vdW  Elec       q    Type
REMARK                         _______ _______ _______ _____ _____    ______ ____
ROOT
ATOM      2  O   UNL     1      21.288   9.006  22.070  0.00  0.00    -0.375 OA
ATOM      4  O   UNL     1      25.323   6.734  20.706  0.00  0.00    -0.268 OA
ATOM      7  N   UNL     1      22.990   6.874  20.528  0.00  0.00    -0.290 N 
ATOM     10  C   UNL     1      20.471   7.013  20.925  0.00  0.00    +0.216 C 
ATOM     11  C   UNL     1      21.692   6.188  20.506  0.00  0.00    +0.155 C 
ATOM     12  C   UNL     1      20.665   7.739  22.255  0.00  0.00    +0.206 C 
ATOM     13  C   UNL     1      23.005   8.336  20.459  0.00  0.00    +0.136 C 
ATOM     14  C   UNL     1      22.687   8.951  21.816  0.00  0.00    +0.179 C 
ATOM     15  C   UNL     1      24.216   6.199  20.650  0.00  0.00    +0.267 C 
ENDROOT
BRANCH  15  17
ATOM      8  N   UNL     1      23.700   4.185  21.847  0.00  0.00    -0.247 NA
ATOM      9  N   UNL     1      24.667   2.610  19.738  0.00  0.00    -0.259 NA
ATOM     17  C   UNL     1      24.200   4.730  20.720  0.00  0.00    +0.144 A 
ATOM     23  C   UNL     1      24.675   3.956  19.684  0.00  0.00    +0.143 A 
ATOM     25  C   UNL     1      23.693   2.838  21.900  0.00  0.00    +0.131 A 
ATOM     26  C   UNL     1      24.167   2.064  20.864  0.00  0.00    +0.130 A 
ENDBRANCH  15  17
BRANCH  10   3
ATOM      3  O   UNL     1      19.381   6.099  21.048  0.00  0.00    -0.485 OA
BRANCH   3  16
ATOM     16  C   UNL     1      18.187   6.497  20.512  0.00  0.00    +0.121 A 
ATOM     18  C   UNL     1      17.681   5.854  19.382  0.00  0.00    +0.047 A 
ATOM     19  C   UNL     1      17.475   7.544  21.097  0.00  0.00    +0.047 A 
ATOM     20  C   UNL     1      15.752   7.308  19.419  0.00  0.00    +0.088 A 
ATOM     21  C   UNL     1      16.464   6.260  18.836  0.00  0.00    +0.030 A 
ATOM     22  C   UNL     1      16.257   7.950  20.549  0.00  0.00    +0.030 A 
BRANCH  20   1
ATOM      1  S   UNL     1      14.230   7.819  18.732  0.00  0.00    -0.006 S 
ATOM      5  O   UNL     1      14.002   9.215  19.078  0.00  0.00    -0.170 OA
ATOM      6  O   UNL     1      14.207   7.406  17.337  0.00  0.00    -0.170 OA
ATOM     24  C   UNL     1      13.009   6.864  19.605  0.00  0.00    +0.200 C 
ENDBRANCH  20   1
ENDBRANCH   3  16
ENDBRANCH  10   3
TORSDOF 4
ENDMDL
MODEL 9
REMARK VINA RESULT:      -5.9     27.436     30.855
REMARK  Name = 75367689
REMARK  5 active torsions:
REMARK  status: ('A' for Active; 'I' for Inactive)
REMARK    1  A    between atoms: S_1  and  C_20
REMARK    2  A    between atoms: S_1  and  C_24
REMARK    3  A    between atoms: O_3  and  C_10
REMARK    4  A    between atoms: O_3  and  C_16
REMARK    5  A    between atoms: C_15  and  C_17
REMARK                            x       y       z     vdW  Elec       q    Type
REMARK                         _______ _______ _______ _____ _____    ______ ____
ROOT
ATOM      2  O   UNL     1      -8.669 -11.029  18.823  0.00  0.00    -0.375 OA
ATOM      4  O   UNL     1      -3.912 -11.824  19.039  0.00  0.00    -0.268 OA
ATOM      7  N   UNL     1      -5.658 -10.601  18.064  0.00  0.00    -0.290 N 
ATOM     10  C   UNL     1      -7.789  -9.806  16.904  0.00  0.00    +0.216 C 
ATOM     11  C   UNL     1      -6.279 -10.052  16.853  0.00  0.00    +0.155 C 
ATOM     12  C   UNL     1      -8.578 -11.015  17.402  0.00  0.00    +0.206 C 
ATOM     13  C   UNL     1      -6.353 -10.427  19.341  0.00  0.00    +0.136 C 
ATOM     14  C   UNL     1      -7.482 -11.439  19.493  0.00  0.00    +0.179 C 
ATOM     15  C   UNL     1      -4.450 -11.319  18.054  0.00  0.00    +0.267 C 
ENDROOT
BRANCH  15  17
ATOM      8  N   UNL     1      -4.177 -12.506  15.987  0.00  0.00    -0.247 NA
ATOM      9  N   UNL     1      -2.073 -10.817  15.223  0.00  0.00    -0.259 NA
ATOM     17  C   UNL     1      -3.753 -11.494  16.771  0.00  0.00    +0.144 A 
ATOM     23  C   UNL     1      -2.719 -10.665  16.396  0.00  0.00    +0.143 A 
ATOM     25  C   UNL     1      -3.530 -12.657  14.814  0.00  0.00    +0.131 A 
ATOM     26  C   UNL     1      -2.496 -11.828  14.439  0.00  0.00    +0.130 A 
ENDBRANCH  15  17
BRANCH  10   3
ATOM      3  O   UNL     1      -8.202  -9.498  15.572  0.00  0.00    -0.485 OA
BRANCH   3  16
ATOM     16  C   UNL     1      -9.383  -8.821  15.439  0.00  0.00    +0.121 A 
ATOM     18  C   UNL     1     -10.242  -9.119  14.381  0.00  0.00    +0.047 A 
ATOM     19  C   UNL     1      -9.728  -7.835  16.362  0.00  0.00    +0.047 A 
ATOM     20  C   UNL     1     -11.793  -7.442  15.169  0.00  0.00    +0.088 A 
ATOM     21  C   UNL     1     -11.446  -8.429  14.247  0.00  0.00    +0.030 A 
ATOM     22  C   UNL     1     -10.934  -7.144  16.227  0.00  0.00    +0.030 A 
BRANCH  20   1
ATOM      1  S   UNL     1     -13.299  -6.575  14.998  0.00  0.00    -0.006 S 
ATOM      5  O   UNL     1     -14.045  -6.675  16.245  0.00  0.00    -0.170 OA
ATOM      6  O   UNL     1     -13.002  -5.266  14.436  0.00  0.00    -0.170 OA
ATOM     24  C   UNL     1     -14.204  -7.501  13.778  0.00  0.00    +0.200 C 
ENDBRANCH  20   1
ENDBRANCH   3  16
ENDBRANCH  10   3
TORSDOF 4
ENDMDL
MODEL 10
REMARK VINA RESULT:      -5.8      4.362      7.927
REMARK  Name = 75367689
REMARK  5 active torsions:
REMARK  status: ('A' for Active; 'I' for Inactive)
REMARK    1  A    between atoms: S_1  and  C_20
REMARK    2  A    between atoms: S_1  and  C_24
REMARK    3  A    between atoms: O_3  and  C_10
REMARK    4  A    between atoms: O_3  and  C_16
REMARK    5  A    between atoms: C_15  and  C_17
REMARK                            x       y       z     vdW  Elec       q    Type
REMARK                         _______ _______ _______ _____ _____    ______ ____
ROOT
ATOM      2  O   UNL     1      20.016   6.593  23.721  0.00  0.00    -0.375 OA
ATOM      4  O   UNL     1      22.713  10.462  22.684  0.00  0.00    -0.268 OA
ATOM      7  N   UNL     1      20.765   9.243  22.222  0.00  0.00    -0.290 N 
ATOM     10  C   UNL     1      19.019   7.463  21.670  0.00  0.00    +0.216 C 
ATOM     11  C   UNL     1      19.854   8.668  21.226  0.00  0.00    +0.155 C 
ATOM     12  C   UNL     1      19.853   6.363  22.325  0.00  0.00    +0.206 C 
ATOM     13  C   UNL     1      20.492   8.994  23.639  0.00  0.00    +0.136 C 
ATOM     14  C   UNL     1      20.962   7.604  24.051  0.00  0.00    +0.179 C 
ATOM     15  C   UNL     1      21.906   9.989  21.884  0.00  0.00    +0.267 C 
ENDROOT
BRANCH  15  17
ATOM      8  N   UNL     1      21.661  11.368  19.936  0.00  0.00    -0.247 NA
ATOM      9  N   UNL     1      23.181   9.579  18.402  0.00  0.00    -0.259 NA
ATOM     17  C   UNL     1      22.180  10.239  20.461  0.00  0.00    +0.144 A 
ATOM     23  C   UNL     1      22.926   9.361  19.707  0.00  0.00    +0.143 A 
ATOM     25  C   UNL     1      21.916  11.585  18.630  0.00  0.00    +0.131 A 
ATOM     26  C   UNL     1      22.663  10.706  17.877  0.00  0.00    +0.130 A 
ENDBRANCH  15  17
BRANCH  10   3
ATOM      3  O   UNL     1      18.396   6.939  20.497  0.00  0.00    -0.485 OA
BRANCH   3  16
ATOM     16  C   UNL     1      17.029   6.987  20.458  0.00  0.00    +0.121 A 
ATOM     18  C   UNL     1      16.319   7.495  21.546  0.00  0.00    +0.047 A 
ATOM     19  C   UNL     1      16.347   6.530  19.331  0.00  0.00    +0.047 A 
ATOM     20  C   UNL     1      14.243   7.087  20.379  0.00  0.00    +0.088 A 
ATOM     21  C   UNL     1      14.926   7.545  21.506  0.00  0.00    +0.030 A 
ATOM     22  C   UNL     1      14.953   6.580  19.292  0.00  0.00    +0.030 A 
BRANCH  20   1
ATOM      1  S   UNL     1      12.498   7.146  20.332  0.00  0.00    -0.006 S 
ATOM      5  O   UNL     1      12.042   6.578  19.070  0.00  0.00    -0.170 OA
ATOM      6  O   UNL     1      11.997   6.610  21.589  0.00  0.00    -0.170 OA
ATOM     24  C   UNL     1      12.116   8.882  20.287  0.00  0.00    +0.200 C 
ENDBRANCH  20   1
ENDBRANCH   3  16
ENDBRANCH  10   3
TORSDOF 4
ENDMDL
