MODEL 1
REMARK VINA RESULT:      -7.1      0.000      0.000
REMARK  Name = 45361457
REMARK  11 active torsions:
REMARK  status: ('A' for Active; 'I' for Inactive)
REMARK    1  A    between atoms: O_1  and  C_9
REMARK    2  A    between atoms: N_4  and  C_13
REMARK    3  A    between atoms: N_5  and  C_28
REMARK    4  A    between atoms: C_6  and  C_16
REMARK    5  A    between atoms: C_8  and  C_18
REMARK    6  A    between atoms: C_12  and  C_17
REMARK    7  A    between atoms: C_17  and  C_19
REMARK    8  A    between atoms: C_17  and  C_20
REMARK    9  A    between atoms: C_21  and  C_22
REMARK   10  A    between atoms: C_28  and  C_29
REMARK   11  A    between atoms: C_28  and  C_30
REMARK                            x       y       z     vdW  Elec       q    Type
REMARK                         _______ _______ _______ _____ _____    ______ ____
ROOT
ATOM      6  C   UNL     1      12.557   8.161  21.066  0.00  0.00    -0.027 C 
ATOM      7  C   UNL     1      13.682   8.891  21.873  0.00  0.00    +0.028 C 
ATOM      8  C   UNL     1      13.243  10.352  22.248  0.00  0.00    +0.012 C 
ATOM      9  C   UNL     1      15.058   8.768  21.158  0.00  0.00    +0.122 C 
ATOM     10  C   UNL     1      12.973   6.693  20.812  0.00  0.00    +0.007 C 
ATOM     11  C   UNL     1      11.261   8.144  21.910  0.00  0.00    +0.009 C 
ATOM     12  C   UNL     1      15.421   7.305  20.814  0.00  0.00    +0.029 C 
ATOM     13  C   UNL     1      11.900  10.327  23.032  0.00  0.00    +0.076 C 
ATOM     14  C   UNL     1      14.301   6.571  20.078  0.00  0.00    +0.007 C 
ATOM     15  C   UNL     1      10.801   9.534  22.327  0.00  0.00    +0.023 C 
ATOM     16  C   UNL     1      12.269   8.840  19.702  0.00  0.00    +0.011 C 
ATOM     18  C   UNL     1      14.294  11.119  23.069  0.00  0.00    +0.010 C 
ENDROOT
BRANCH  13   4
ATOM      3  O   UNL     1      10.874  11.370  25.538  0.00  0.00    -0.276 OA
ATOM      4  N   UNL     1      11.407  11.663  23.292  0.00  0.00    -0.312 N 
ATOM     21  C   UNL     1      10.935  12.066  24.528  0.00  0.00    +0.216 C 
ATOM     31  H   UNL     1      11.364  12.309  22.509  0.00  0.00    +0.149 HD
BRANCH  21  22
ATOM     22  C   UNL     1      10.509  13.505  24.530  0.00  0.00    +0.075 C 
ATOM     23  C   UNL     1      10.637  14.114  25.929  0.00  0.00    +0.013 C 
ATOM     24  C   UNL     1      11.289  14.287  23.471  0.00  0.00    +0.013 C 
ATOM     25  C   UNL     1      12.077  14.441  26.320  0.00  0.00    +0.001 C 
ATOM     26  C   UNL     1      12.725  14.594  23.891  0.00  0.00    +0.001 C 
ATOM     27  C   UNL     1      12.780  15.274  25.255  0.00  0.00    +0.000 C 
ENDBRANCH  21  22
ENDBRANCH  13   4
BRANCH   9   1
ATOM      1  O   UNL     1      16.088   9.253  22.021  0.00  0.00    -0.391 OA
ATOM     32  H   UNL     1      16.323   8.541  22.641  0.00  0.00    +0.210 HD
ENDBRANCH   9   1
BRANCH  12  17
ATOM     17  C   UNL     1      16.716   7.218  19.996  0.00  0.00    +0.077 C 
ATOM     19  C   UNL     1      16.536   6.248  18.832  0.00  0.00    +0.017 C 
BRANCH  17  20
ATOM      2  O   UNL     1      17.780   6.755  22.122  0.00  0.00    -0.276 OA
ATOM      5  N   UNL     1      19.016   6.478  20.179  0.00  0.00    -0.313 N 
ATOM     20  C   UNL     1      17.872   6.797  20.897  0.00  0.00    +0.216 C 
ATOM     33  H   UNL     1      19.020   6.610  19.171  0.00  0.00    +0.149 HD
BRANCH   5  28
ATOM     28  C   UNL     1      20.243   6.053  20.812  0.00  0.00    +0.067 C 
ATOM     29  C   UNL     1      21.373   7.020  20.480  0.00  0.00    +0.027 C 
ATOM     30  C   UNL     1      20.594   4.630  20.396  0.00  0.00    +0.027 C 
ENDBRANCH   5  28
ENDBRANCH  17  20
ENDBRANCH  12  17
TORSDOF 6
ENDMDL
MODEL 2
REMARK VINA RESULT:      -6.8      1.386      2.107
REMARK  Name = 45361457
REMARK  11 active torsions:
REMARK  status: ('A' for Active; 'I' for Inactive)
REMARK    1  A    between atoms: O_1  and  C_9
REMARK    2  A    between atoms: N_4  and  C_13
REMARK    3  A    between atoms: N_5  and  C_28
REMARK    4  A    between atoms: C_6  and  C_16
REMARK    5  A    between atoms: C_8  and  C_18
REMARK    6  A    between atoms: C_12  and  C_17
REMARK    7  A    between atoms: C_17  and  C_19
REMARK    8  A    between atoms: C_17  and  C_20
REMARK    9  A    between atoms: C_21  and  C_22
REMARK   10  A    between atoms: C_28  and  C_29
REMARK   11  A    between atoms: C_28  and  C_30
REMARK                            x       y       z     vdW  Elec       q    Type
REMARK                         _______ _______ _______ _____ _____    ______ ____
ROOT
ATOM      6  C   UNL     1      14.082   8.196  20.917  0.00  0.00    -0.027 C 
ATOM      7  C   UNL     1      15.258   8.907  21.664  0.00  0.00    +0.028 C 
ATOM      8  C   UNL     1      14.955  10.437  21.856  0.00  0.00    +0.012 C 
ATOM      9  C   UNL     1      16.628   8.574  21.006  0.00  0.00    +0.122 C 
ATOM     10  C   UNL     1      14.359   6.676  20.845  0.00  0.00    +0.007 C 
ATOM     11  C   UNL     1      12.776   8.399  21.721  0.00  0.00    +0.009 C 
ATOM     12  C   UNL     1      16.855   7.053  20.843  0.00  0.00    +0.029 C 
ATOM     13  C   UNL     1      13.603  10.629  22.600  0.00  0.00    +0.076 C 
ATOM     14  C   UNL     1      15.681   6.345  20.167  0.00  0.00    +0.007 C 
ATOM     15  C   UNL     1      12.445   9.865  21.961  0.00  0.00    +0.023 C 
ATOM     16  C   UNL     1      13.882   8.733  19.476  0.00  0.00    +0.011 C 
ATOM     18  C   UNL     1      16.061  11.194  22.611  0.00  0.00    +0.010 C 
ENDROOT
BRANCH  13   4
ATOM      3  O   UNL     1      12.273  11.963  24.808  0.00  0.00    -0.276 OA
ATOM      4  N   UNL     1      13.236  12.027  22.691  0.00  0.00    -0.312 N 
ATOM     21  C   UNL     1      12.601  12.570  23.792  0.00  0.00    +0.216 C 
ATOM     31  H   UNL     1      13.414  12.614  21.880  0.00  0.00    +0.149 HD
BRANCH  21  22
ATOM     22  C   UNL     1      12.358  14.044  23.637  0.00  0.00    +0.075 C 
ATOM     23  C   UNL     1      11.994  14.391  22.191  0.00  0.00    +0.013 C 
ATOM     24  C   UNL     1      11.305  14.514  24.642  0.00  0.00    +0.013 C 
ATOM     25  C   UNL     1      10.559  14.020  21.821  0.00  0.00    +0.001 C 
ATOM     26  C   UNL     1       9.883  14.123  24.244  0.00  0.00    +0.001 C 
ATOM     27  C   UNL     1       9.552  14.569  22.825  0.00  0.00    +0.000 C 
ENDBRANCH  21  22
ENDBRANCH  13   4
BRANCH   9   1
ATOM      1  O   UNL     1      17.685   9.059  21.836  0.00  0.00    -0.391 OA
ATOM     32  H   UNL     1      17.695   8.530  22.652  0.00  0.00    +0.210 HD
ENDBRANCH   9   1
BRANCH  12  17
ATOM     17  C   UNL     1      18.148   6.750  20.077  0.00  0.00    +0.077 C 
ATOM     19  C   UNL     1      17.885   5.706  18.996  0.00  0.00    +0.017 C 
BRANCH  17  20
ATOM      2  O   UNL     1      19.210   6.557  22.245  0.00  0.00    -0.276 OA
ATOM      5  N   UNL     1      20.217   5.538  20.422  0.00  0.00    -0.313 N 
ATOM     20  C   UNL     1      19.230   6.285  21.046  0.00  0.00    +0.216 C 
ATOM     33  H   UNL     1      20.187   5.423  19.412  0.00  0.00    +0.149 HD
BRANCH   5  28
ATOM     28  C   UNL     1      21.350   4.989  21.132  0.00  0.00    +0.067 C 
ATOM     29  C   UNL     1      22.648   5.577  20.595  0.00  0.00    +0.027 C 
ATOM     30  C   UNL     1      21.352   3.468  21.040  0.00  0.00    +0.027 C 
ENDBRANCH   5  28
ENDBRANCH  17  20
ENDBRANCH  12  17
TORSDOF 6
ENDMDL
MODEL 3
REMARK VINA RESULT:      -6.8     27.935     30.414
REMARK  Name = 45361457
REMARK  11 active torsions:
REMARK  status: ('A' for Active; 'I' for Inactive)
REMARK    1  A    between atoms: O_1  and  C_9
REMARK    2  A    between atoms: N_4  and  C_13
REMARK    3  A    between atoms: N_5  and  C_28
REMARK    4  A    between atoms: C_6  and  C_16
REMARK    5  A    between atoms: C_8  and  C_18
REMARK    6  A    between atoms: C_12  and  C_17
REMARK    7  A    between atoms: C_17  and  C_19
REMARK    8  A    between atoms: C_17  and  C_20
REMARK    9  A    between atoms: C_21  and  C_22
REMARK   10  A    between atoms: C_28  and  C_29
REMARK   11  A    between atoms: C_28  and  C_30
REMARK                            x       y       z     vdW  Elec       q    Type
REMARK                         _______ _______ _______ _____ _____    ______ ____
ROOT
ATOM      6  C   UNL     1      -3.641 -10.595  10.548  0.00  0.00    -0.027 C 
ATOM      7  C   UNL     1      -4.922 -10.202  11.355  0.00  0.00    +0.028 C 
ATOM      8  C   UNL     1      -5.705  -9.047  10.633  0.00  0.00    +0.012 C 
ATOM      9  C   UNL     1      -4.589  -9.948  12.854  0.00  0.00    +0.122 C 
ATOM     10  C   UNL     1      -2.956 -11.807  11.224  0.00  0.00    +0.007 C 
ATOM     11  C   UNL     1      -4.055 -11.025   9.121  0.00  0.00    +0.009 C 
ATOM     12  C   UNL     1      -3.813 -11.121  13.497  0.00  0.00    +0.029 C 
ATOM     13  C   UNL     1      -6.052  -9.462   9.175  0.00  0.00    +0.076 C 
ATOM     14  C   UNL     1      -2.593 -11.548  12.680  0.00  0.00    +0.007 C 
ATOM     15  C   UNL     1      -4.843  -9.953   8.380  0.00  0.00    +0.023 C 
ATOM     16  C   UNL     1      -2.618  -9.434  10.455  0.00  0.00    +0.011 C 
ATOM     18  C   UNL     1      -6.995  -8.630  11.360  0.00  0.00    +0.010 C 
ENDROOT
BRANCH  13   4
ATOM      3  O   UNL     1      -8.201  -9.647   7.233  0.00  0.00    -0.276 OA
ATOM      4  N   UNL     1      -6.672  -8.377   8.443  0.00  0.00    -0.312 N 
ATOM     21  C   UNL     1      -7.695  -8.569   7.533  0.00  0.00    +0.216 C 
ATOM     31  H   UNL     1      -6.294  -7.443   8.575  0.00  0.00    +0.149 HD
BRANCH  21  22
ATOM     22  C   UNL     1      -8.172  -7.277   6.936  0.00  0.00    +0.075 C 
ATOM     23  C   UNL     1      -9.398  -7.501   6.048  0.00  0.00    +0.013 C 
ATOM     24  C   UNL     1      -8.420  -6.246   8.039  0.00  0.00    +0.013 C 
ATOM     25  C   UNL     1     -10.688  -7.721   6.837  0.00  0.00    +0.001 C 
ATOM     26  C   UNL     1      -9.714  -6.498   8.811  0.00  0.00    +0.001 C 
ATOM     27  C   UNL     1     -10.911  -6.629   7.877  0.00  0.00    +0.000 C 
ENDBRANCH  21  22
ENDBRANCH  13   4
BRANCH   9   1
ATOM      1  O   UNL     1      -5.802  -9.806  13.594  0.00  0.00    -0.391 OA
ATOM     32  H   UNL     1      -6.109 -10.694  13.844  0.00  0.00    +0.210 HD
ENDBRANCH   9   1
BRANCH  12  17
ATOM     17  C   UNL     1      -3.381 -10.797  14.932  0.00  0.00    +0.077 C 
ATOM     19  C   UNL     1      -1.926 -11.204  15.146  0.00  0.00    +0.017 C 
BRANCH  17  20
ATOM      2  O   UNL     1      -5.229 -12.227  15.570  0.00  0.00    -0.276 OA
ATOM      5  N   UNL     1      -3.982 -11.213  17.243  0.00  0.00    -0.313 N 
ATOM     20  C   UNL     1      -4.305 -11.497  15.924  0.00  0.00    +0.216 C 
ATOM     33  H   UNL     1      -3.244 -10.542  17.437  0.00  0.00    +0.149 HD
BRANCH   5  28
ATOM     28  C   UNL     1      -4.716 -11.758  18.361  0.00  0.00    +0.067 C 
ATOM     29  C   UNL     1      -5.675 -10.716  18.925  0.00  0.00    +0.027 C 
ATOM     30  C   UNL     1      -3.758 -12.264  19.434  0.00  0.00    +0.027 C 
ENDBRANCH   5  28
ENDBRANCH  17  20
ENDBRANCH  12  17
TORSDOF 6
ENDMDL
MODEL 4
REMARK VINA RESULT:      -6.7     27.862     30.325
REMARK  Name = 45361457
REMARK  11 active torsions:
REMARK  status: ('A' for Active; 'I' for Inactive)
REMARK    1  A    between atoms: O_1  and  C_9
REMARK    2  A    between atoms: N_4  and  C_13
REMARK    3  A    between atoms: N_5  and  C_28
REMARK    4  A    between atoms: C_6  and  C_16
REMARK    5  A    between atoms: C_8  and  C_18
REMARK    6  A    between atoms: C_12  and  C_17
REMARK    7  A    between atoms: C_17  and  C_19
REMARK    8  A    between atoms: C_17  and  C_20
REMARK    9  A    between atoms: C_21  and  C_22
REMARK   10  A    between atoms: C_28  and  C_29
REMARK   11  A    between atoms: C_28  and  C_30
REMARK                            x       y       z     vdW  Elec       q    Type
REMARK                         _______ _______ _______ _____ _____    ______ ____
ROOT
ATOM      6  C   UNL     1      -3.235 -10.463  11.598  0.00  0.00    -0.027 C 
ATOM      7  C   UNL     1      -4.667 -10.203  12.174  0.00  0.00    +0.028 C 
ATOM      8  C   UNL     1      -4.909 -11.052  13.473  0.00  0.00    +0.012 C 
ATOM      9  C   UNL     1      -5.753 -10.345  11.069  0.00  0.00    +0.122 C 
ATOM     10  C   UNL     1      -2.988  -9.531  10.389  0.00  0.00    +0.007 C 
ATOM     11  C   UNL     1      -2.186 -10.119  12.680  0.00  0.00    +0.009 C 
ATOM     12  C   UNL     1      -5.446  -9.489   9.819  0.00  0.00    +0.029 C 
ATOM     13  C   UNL     1      -3.805 -10.752  14.526  0.00  0.00    +0.076 C 
ATOM     14  C   UNL     1      -4.027  -9.696   9.289  0.00  0.00    +0.007 C 
ATOM     15  C   UNL     1      -2.387 -10.894  13.975  0.00  0.00    +0.023 C 
ATOM     16  C   UNL     1      -3.036 -11.932  11.143  0.00  0.00    +0.011 C 
ATOM     18  C   UNL     1      -6.291 -10.822  14.110  0.00  0.00    +0.010 C 
ENDROOT
BRANCH  13   4
ATOM      3  O   UNL     1      -4.540  -9.957  17.219  0.00  0.00    -0.276 OA
ATOM      4  N   UNL     1      -3.931 -11.603  15.691  0.00  0.00    -0.312 N 
ATOM     21  C   UNL     1      -4.289 -11.126  16.939  0.00  0.00    +0.216 C 
ATOM     31  H   UNL     1      -3.694 -12.585  15.584  0.00  0.00    +0.149 HD
BRANCH  21  22
ATOM     22  C   UNL     1      -4.370 -12.222  17.962  0.00  0.00    +0.075 C 
ATOM     23  C   UNL     1      -4.785 -11.668  19.328  0.00  0.00    +0.013 C 
ATOM     24  C   UNL     1      -5.295 -13.336  17.469  0.00  0.00    +0.013 C 
ATOM     25  C   UNL     1      -6.274 -11.340  19.423  0.00  0.00    +0.001 C 
ATOM     26  C   UNL     1      -6.776 -12.973  17.574  0.00  0.00    +0.001 C 
ATOM     27  C   UNL     1      -7.144 -12.509  18.978  0.00  0.00    +0.000 C 
ENDBRANCH  21  22
ENDBRANCH  13   4
BRANCH   9   1
ATOM      1  O   UNL     1      -7.010  -9.894  11.576  0.00  0.00    -0.391 OA
ATOM     32  H   UNL     1      -7.458 -10.651  11.991  0.00  0.00    +0.210 HD
ENDBRANCH   9   1
BRANCH  12  17
ATOM     17  C   UNL     1      -6.457  -9.742   8.694  0.00  0.00    +0.077 C 
ATOM     19  C   UNL     1      -5.727  -9.945   7.369  0.00  0.00    +0.017 C 
BRANCH  17  20
ATOM      2  O   UNL     1      -8.197  -8.284   9.538  0.00  0.00    -0.276 OA
ATOM      5  N   UNL     1      -7.395  -7.927   7.391  0.00  0.00    -0.313 N 
ATOM     20  C   UNL     1      -7.445  -8.584   8.612  0.00  0.00    +0.216 C 
ATOM     33  H   UNL     1      -6.790  -8.290   6.659  0.00  0.00    +0.149 HD
BRANCH   5  28
ATOM     28  C   UNL     1      -8.239  -6.798   7.075  0.00  0.00    +0.067 C 
ATOM     29  C   UNL     1      -8.231  -5.793   8.220  0.00  0.00    +0.027 C 
ATOM     30  C   UNL     1      -9.656  -7.262   6.759  0.00  0.00    +0.027 C 
ENDBRANCH   5  28
ENDBRANCH  17  20
ENDBRANCH  12  17
TORSDOF 6
ENDMDL
MODEL 5
REMARK VINA RESULT:      -6.5     26.764     30.437
REMARK  Name = 45361457
REMARK  11 active torsions:
REMARK  status: ('A' for Active; 'I' for Inactive)
REMARK    1  A    between atoms: O_1  and  C_9
REMARK    2  A    between atoms: N_4  and  C_13
REMARK    3  A    between atoms: N_5  and  C_28
REMARK    4  A    between atoms: C_6  and  C_16
REMARK    5  A    between atoms: C_8  and  C_18
REMARK    6  A    between atoms: C_12  and  C_17
REMARK    7  A    between atoms: C_17  and  C_19
REMARK    8  A    between atoms: C_17  and  C_20
REMARK    9  A    between atoms: C_21  and  C_22
REMARK   10  A    between atoms: C_28  and  C_29
REMARK   11  A    between atoms: C_28  and  C_30
REMARK                            x       y       z     vdW  Elec       q    Type
REMARK                         _______ _______ _______ _____ _____    ______ ____
ROOT
ATOM      6  C   UNL     1     -17.001   5.742  22.076  0.00  0.00    -0.027 C 
ATOM      7  C   UNL     1     -15.797   5.117  22.856  0.00  0.00    +0.028 C 
ATOM      8  C   UNL     1     -14.457   5.302  22.057  0.00  0.00    +0.012 C 
ATOM      9  C   UNL     1     -16.111   3.661  23.305  0.00  0.00    +0.122 C 
ATOM     10  C   UNL     1     -18.282   5.643  22.938  0.00  0.00    +0.007 C 
ATOM     11  C   UNL     1     -16.717   7.241  21.826  0.00  0.00    +0.009 C 
ATOM     12  C   UNL     1     -17.446   3.552  24.078  0.00  0.00    +0.029 C 
ATOM     13  C   UNL     1     -14.219   6.807  21.747  0.00  0.00    +0.076 C 
ATOM     14  C   UNL     1     -18.614   4.215  23.347  0.00  0.00    +0.007 C 
ATOM     15  C   UNL     1     -15.414   7.485  21.077  0.00  0.00    +0.023 C 
ATOM     16  C   UNL     1     -17.260   5.038  20.719  0.00  0.00    +0.011 C 
ATOM     18  C   UNL     1     -13.225   4.734  22.781  0.00  0.00    +0.010 C 
ENDROOT
BRANCH  13   4
ATOM      3  O   UNL     1     -12.531   9.164  21.601  0.00  0.00    -0.276 OA
ATOM      4  N   UNL     1     -13.053   7.004  20.911  0.00  0.00    -0.312 N 
ATOM     21  C   UNL     1     -12.311   8.171  20.914  0.00  0.00    +0.216 C 
ATOM     31  H   UNL     1     -12.809   6.262  20.261  0.00  0.00    +0.149 HD
BRANCH  21  22
ATOM     22  C   UNL     1     -11.142   8.101  19.975  0.00  0.00    +0.075 C 
ATOM     23  C   UNL     1     -11.502   7.325  18.705  0.00  0.00    +0.013 C 
ATOM     24  C   UNL     1     -10.617   9.508  19.680  0.00  0.00    +0.013 C 
ATOM     25  C   UNL     1     -12.361   8.126  17.727  0.00  0.00    +0.001 C 
ATOM     26  C   UNL     1     -11.500  10.282  18.703  0.00  0.00    +0.001 C 
ATOM     27  C   UNL     1     -11.755   9.491  17.425  0.00  0.00    +0.000 C 
ENDBRANCH  21  22
ENDBRANCH  13   4
BRANCH   9   1
ATOM      1  O   UNL     1     -15.088   3.204  24.191  0.00  0.00    -0.391 OA
ATOM     32  H   UNL     1     -14.975   2.247  24.054  0.00  0.00    +0.210 HD
ENDBRANCH   9   1
BRANCH  12  17
ATOM     17  C   UNL     1     -17.801   2.095  24.398  0.00  0.00    +0.077 C 
ATOM     19  C   UNL     1     -19.282   1.981  24.749  0.00  0.00    +0.017 C 
BRANCH  17  20
ATOM      2  O   UNL     1     -16.283   0.533  25.457  0.00  0.00    -0.276 OA
ATOM      5  N   UNL     1     -16.928   2.424  26.635  0.00  0.00    -0.313 N 
ATOM     20  C   UNL     1     -16.920   1.582  25.532  0.00  0.00    +0.216 C 
ATOM     33  H   UNL     1     -17.541   3.235  26.632  0.00  0.00    +0.149 HD
BRANCH   5  28
ATOM     28  C   UNL     1     -16.172   2.149  27.834  0.00  0.00    +0.067 C 
ATOM     29  C   UNL     1     -16.954   1.217  28.752  0.00  0.00    +0.027 C 
ATOM     30  C   UNL     1     -15.807   3.446  28.546  0.00  0.00    +0.027 C 
ENDBRANCH   5  28
ENDBRANCH  17  20
ENDBRANCH  12  17
TORSDOF 6
ENDMDL
MODEL 6
REMARK VINA RESULT:      -6.4     19.129     22.012
REMARK  Name = 45361457
REMARK  11 active torsions:
REMARK  status: ('A' for Active; 'I' for Inactive)
REMARK    1  A    between atoms: O_1  and  C_9
REMARK    2  A    between atoms: N_4  and  C_13
REMARK    3  A    between atoms: N_5  and  C_28
REMARK    4  A    between atoms: C_6  and  C_16
REMARK    5  A    between atoms: C_8  and  C_18
REMARK    6  A    between atoms: C_12  and  C_17
REMARK    7  A    between atoms: C_17  and  C_19
REMARK    8  A    between atoms: C_17  and  C_20
REMARK    9  A    between atoms: C_21  and  C_22
REMARK   10  A    between atoms: C_28  and  C_29
REMARK   11  A    between atoms: C_28  and  C_30
REMARK                            x       y       z     vdW  Elec       q    Type
REMARK                         _______ _______ _______ _____ _____    ______ ____
ROOT
ATOM      6  C   UNL     1      13.716   5.080   0.844  0.00  0.00    -0.027 C 
ATOM      7  C   UNL     1      12.165   5.229   0.985  0.00  0.00    +0.028 C 
ATOM      8  C   UNL     1      11.748   5.326   2.496  0.00  0.00    +0.012 C 
ATOM      9  C   UNL     1      11.416   4.149   0.152  0.00  0.00    +0.122 C 
ATOM     10  C   UNL     1      14.103   5.101  -0.654  0.00  0.00    +0.007 C 
ATOM     11  C   UNL     1      14.403   6.286   1.525  0.00  0.00    +0.009 C 
ATOM     12  C   UNL     1      11.882   4.106  -1.322  0.00  0.00    +0.029 C 
ATOM     13  C   UNL     1      12.501   6.496   3.189  0.00  0.00    +0.076 C 
ATOM     14  C   UNL     1      13.402   4.020  -1.464  0.00  0.00    +0.007 C 
ATOM     15  C   UNL     1      14.015   6.446   2.989  0.00  0.00    +0.023 C 
ATOM     16  C   UNL     1      14.246   3.767   1.476  0.00  0.00    +0.011 C 
ATOM     18  C   UNL     1      10.234   5.504   2.707  0.00  0.00    +0.010 C 
ENDROOT
BRANCH  13   4
ATOM      3  O   UNL     1      11.494   8.747   4.721  0.00  0.00    -0.276 OA
ATOM      4  N   UNL     1      12.229   6.542   4.611  0.00  0.00    -0.312 N 
ATOM     21  C   UNL     1      11.747   7.669   5.251  0.00  0.00    +0.216 C 
ATOM     31  H   UNL     1      12.454   5.716   5.160  0.00  0.00    +0.149 HD
BRANCH  21  22
ATOM     22  C   UNL     1      11.529   7.437   6.718  0.00  0.00    +0.075 C 
ATOM     23  C   UNL     1      10.787   8.614   7.356  0.00  0.00    +0.013 C 
ATOM     24  C   UNL     1      10.820   6.099   6.941  0.00  0.00    +0.013 C 
ATOM     25  C   UNL     1       9.293   8.633   7.041  0.00  0.00    +0.001 C 
ATOM     26  C   UNL     1       9.329   6.152   6.612  0.00  0.00    +0.001 C 
ATOM     27  C   UNL     1       8.631   7.294   7.341  0.00  0.00    +0.000 C 
ENDBRANCH  21  22
ENDBRANCH  13   4
BRANCH   9   1
ATOM      1  O   UNL     1      10.019   4.447   0.131  0.00  0.00    -0.391 OA
ATOM     32  H   UNL     1       9.532   3.606   0.103  0.00  0.00    +0.210 HD
ENDBRANCH   9   1
BRANCH  12  17
ATOM     17  C   UNL     1      11.228   2.952  -2.091  0.00  0.00    +0.077 C 
ATOM     19  C   UNL     1      12.274   2.221  -2.928  0.00  0.00    +0.017 C 
BRANCH  17  20
ATOM      2  O   UNL     1       9.276   2.748  -3.509  0.00  0.00    -0.276 OA
ATOM      5  N   UNL     1      10.100   4.867  -3.056  0.00  0.00    -0.313 N 
ATOM     20  C   UNL     1      10.094   3.483  -2.961  0.00  0.00    +0.216 C 
ATOM     33  H   UNL     1      10.858   5.389  -2.624  0.00  0.00    +0.149 HD
BRANCH   5  28
ATOM     28  C   UNL     1       9.124   5.602  -3.827  0.00  0.00    +0.067 C 
ATOM     29  C   UNL     1       9.807   6.685  -4.653  0.00  0.00    +0.027 C 
ATOM     30  C   UNL     1       8.058   6.195  -2.913  0.00  0.00    +0.027 C 
ENDBRANCH   5  28
ENDBRANCH  17  20
ENDBRANCH  12  17
TORSDOF 6
ENDMDL
MODEL 7
REMARK VINA RESULT:      -6.4      4.202      7.448
REMARK  Name = 45361457
REMARK  11 active torsions:
REMARK  status: ('A' for Active; 'I' for Inactive)
REMARK    1  A    between atoms: O_1  and  C_9
REMARK    2  A    between atoms: N_4  and  C_13
REMARK    3  A    between atoms: N_5  and  C_28
REMARK    4  A    between atoms: C_6  and  C_16
REMARK    5  A    between atoms: C_8  and  C_18
REMARK    6  A    between atoms: C_12  and  C_17
REMARK    7  A    between atoms: C_17  and  C_19
REMARK    8  A    between atoms: C_17  and  C_20
REMARK    9  A    between atoms: C_21  and  C_22
REMARK   10  A    between atoms: C_28  and  C_29
REMARK   11  A    between atoms: C_28  and  C_30
REMARK                            x       y       z     vdW  Elec       q    Type
REMARK                         _______ _______ _______ _____ _____    ______ ____
ROOT
ATOM      6  C   UNL     1      20.500   7.787  21.975  0.00  0.00    -0.027 C 
ATOM      7  C   UNL     1      19.873   6.881  20.863  0.00  0.00    +0.028 C 
ATOM      8  C   UNL     1      18.305   6.888  20.954  0.00  0.00    +0.012 C 
ATOM      9  C   UNL     1      20.535   5.473  20.844  0.00  0.00    +0.122 C 
ATOM     10  C   UNL     1      22.034   7.847  21.788  0.00  0.00    +0.007 C 
ATOM     11  C   UNL     1      19.950   9.224  21.824  0.00  0.00    +0.009 C 
ATOM     12  C   UNL     1      22.078   5.542  20.761  0.00  0.00    +0.029 C 
ATOM     13  C   UNL     1      17.768   8.346  20.876  0.00  0.00    +0.076 C 
ATOM     14  C   UNL     1      22.690   6.473  21.808  0.00  0.00    +0.007 C 
ATOM     15  C   UNL     1      18.430   9.291  21.877  0.00  0.00    +0.023 C 
ATOM     16  C   UNL     1      20.193   7.271  23.405  0.00  0.00    +0.011 C 
ATOM     18  C   UNL     1      17.621   6.038  19.869  0.00  0.00    +0.010 C 
ENDROOT
BRANCH  13   4
ATOM      3  O   UNL     1      15.898  10.238  19.715  0.00  0.00    -0.276 OA
ATOM      4  N   UNL     1      16.334   8.400  21.073  0.00  0.00    -0.312 N 
ATOM     21  C   UNL     1      15.525   9.346  20.472  0.00  0.00    +0.216 C 
ATOM     31  H   UNL     1      15.924   7.737  21.725  0.00  0.00    +0.149 HD
BRANCH  21  22
ATOM     22  C   UNL     1      14.078   9.160  20.824  0.00  0.00    +0.075 C 
ATOM     23  C   UNL     1      13.171   9.865  19.813  0.00  0.00    +0.013 C 
ATOM     24  C   UNL     1      13.758   7.671  20.971  0.00  0.00    +0.013 C 
ATOM     25  C   UNL     1      13.041   9.115  18.488  0.00  0.00    +0.001 C 
ATOM     26  C   UNL     1      13.640   6.951  19.628  0.00  0.00    +0.001 C 
ATOM     27  C   UNL     1      12.660   7.654  18.696  0.00  0.00    +0.000 C 
ENDBRANCH  21  22
ENDBRANCH  13   4
BRANCH   9   1
ATOM      1  O   UNL     1      20.095   4.756  19.690  0.00  0.00    -0.391 OA
ATOM     32  H   UNL     1      19.165   4.508  19.825  0.00  0.00    +0.210 HD
ENDBRANCH   9   1
BRANCH  12  17
ATOM     17  C   UNL     1      22.716   4.153  20.874  0.00  0.00    +0.077 C 
ATOM     19  C   UNL     1      22.180   3.428  22.105  0.00  0.00    +0.017 C 
BRANCH  17  20
ATOM      2  O   UNL     1      24.888   4.065  21.942  0.00  0.00    -0.276 OA
ATOM      5  N   UNL     1      24.776   4.665  19.705  0.00  0.00    -0.313 N 
ATOM     20  C   UNL     1      24.235   4.281  20.923  0.00  0.00    +0.216 C 
ATOM     33  H   UNL     1      24.151   4.889  18.935  0.00  0.00    +0.149 HD
BRANCH   5  28
ATOM     28  C   UNL     1      26.194   4.855  19.504  0.00  0.00    +0.067 C 
ATOM     29  C   UNL     1      26.459   6.193  18.826  0.00  0.00    +0.027 C 
ATOM     30  C   UNL     1      26.778   3.702  18.696  0.00  0.00    +0.027 C 
ENDBRANCH   5  28
ENDBRANCH  17  20
ENDBRANCH  12  17
TORSDOF 6
ENDMDL
MODEL 8
REMARK VINA RESULT:      -6.4     15.971     20.065
REMARK  Name = 45361457
REMARK  11 active torsions:
REMARK  status: ('A' for Active; 'I' for Inactive)
REMARK    1  A    between atoms: O_1  and  C_9
REMARK    2  A    between atoms: N_4  and  C_13
REMARK    3  A    between atoms: N_5  and  C_28
REMARK    4  A    between atoms: C_6  and  C_16
REMARK    5  A    between atoms: C_8  and  C_18
REMARK    6  A    between atoms: C_12  and  C_17
REMARK    7  A    between atoms: C_17  and  C_19
REMARK    8  A    between atoms: C_17  and  C_20
REMARK    9  A    between atoms: C_21  and  C_22
REMARK   10  A    between atoms: C_28  and  C_29
REMARK   11  A    between atoms: C_28  and  C_30
REMARK                            x       y       z     vdW  Elec       q    Type
REMARK                         _______ _______ _______ _____ _____    ______ ____
ROOT
ATOM      6  C   UNL     1       9.813   6.425   6.143  0.00  0.00    -0.027 C 
ATOM      7  C   UNL     1      10.419   7.338   5.026  0.00  0.00    +0.028 C 
ATOM      8  C   UNL     1      11.497   6.559   4.191  0.00  0.00    +0.012 C 
ATOM      9  C   UNL     1      10.882   8.706   5.606  0.00  0.00    +0.122 C 
ATOM     10  C   UNL     1       8.678   7.183   6.872  0.00  0.00    +0.007 C 
ATOM     11  C   UNL     1       9.194   5.169   5.487  0.00  0.00    +0.009 C 
ATOM     12  C   UNL     1       9.774   9.412   6.421  0.00  0.00    +0.029 C 
ATOM     13  C   UNL     1      10.883   5.260   3.597  0.00  0.00    +0.076 C 
ATOM     14  C   UNL     1       9.138   8.504   7.474  0.00  0.00    +0.007 C 
ATOM     15  C   UNL     1      10.188   4.386   4.640  0.00  0.00    +0.023 C 
ATOM     16  C   UNL     1      10.869   5.986   7.190  0.00  0.00    +0.011 C 
ATOM     18  C   UNL     1      12.115   7.391   3.054  0.00  0.00    +0.010 C 
ENDROOT
BRANCH  13   4
ATOM      3  O   UNL     1      10.734   4.161   0.915  0.00  0.00    -0.276 OA
ATOM      4  N   UNL     1      11.880   4.458   2.918  0.00  0.00    -0.312 N 
ATOM     21  C   UNL     1      11.714   3.978   1.632  0.00  0.00    +0.216 C 
ATOM     31  H   UNL     1      12.712   4.200   3.441  0.00  0.00    +0.149 HD
BRANCH  21  22
ATOM     22  C   UNL     1      12.907   3.199   1.160  0.00  0.00    +0.075 C 
ATOM     23  C   UNL     1      12.976   3.172  -0.369  0.00  0.00    +0.013 C 
ATOM     24  C   UNL     1      14.183   3.748   1.801  0.00  0.00    +0.013 C 
ATOM     25  C   UNL     1      13.473   4.482  -0.977  0.00  0.00    +0.001 C 
ATOM     26  C   UNL     1      14.650   5.060   1.174  0.00  0.00    +0.001 C 
ATOM     27  C   UNL     1      14.779   4.945  -0.341  0.00  0.00    +0.000 C 
ENDBRANCH  21  22
ENDBRANCH  13   4
BRANCH   9   1
ATOM      1  O   UNL     1      11.226   9.586   4.535  0.00  0.00    -0.391 OA
ATOM     32  H   UNL     1      10.791   9.262   3.727  0.00  0.00    +0.210 HD
ENDBRANCH   9   1
BRANCH  12  17
ATOM     17  C   UNL     1      10.289  10.692   7.091  0.00  0.00    +0.077 C 
ATOM     19  C   UNL     1      10.854  10.370   8.471  0.00  0.00    +0.017 C 
BRANCH  17  20
ATOM      2  O   UNL     1       8.422  11.972   6.231  0.00  0.00    -0.276 OA
ATOM      5  N   UNL     1       9.096  12.329   8.421  0.00  0.00    -0.313 N 
ATOM     20  C   UNL     1       9.167  11.722   7.176  0.00  0.00    +0.216 C 
ATOM     33  H   UNL     1       9.800  12.108   9.120  0.00  0.00    +0.149 HD
BRANCH   5  28
ATOM     28  C   UNL     1       8.116  13.340   8.743  0.00  0.00    +0.067 C 
ATOM     29  C   UNL     1       8.753  14.724   8.714  0.00  0.00    +0.027 C 
ATOM     30  C   UNL     1       7.477  13.054  10.097  0.00  0.00    +0.027 C 
ENDBRANCH   5  28
ENDBRANCH  17  20
ENDBRANCH  12  17
TORSDOF 6
ENDMDL
MODEL 9
REMARK VINA RESULT:      -6.3     28.175     30.783
REMARK  Name = 45361457
REMARK  11 active torsions:
REMARK  status: ('A' for Active; 'I' for Inactive)
REMARK    1  A    between atoms: O_1  and  C_9
REMARK    2  A    between atoms: N_4  and  C_13
REMARK    3  A    between atoms: N_5  and  C_28
REMARK    4  A    between atoms: C_6  and  C_16
REMARK    5  A    between atoms: C_8  and  C_18
REMARK    6  A    between atoms: C_12  and  C_17
REMARK    7  A    between atoms: C_17  and  C_19
REMARK    8  A    between atoms: C_17  and  C_20
REMARK    9  A    between atoms: C_21  and  C_22
REMARK   10  A    between atoms: C_28  and  C_29
REMARK   11  A    between atoms: C_28  and  C_30
REMARK                            x       y       z     vdW  Elec       q    Type
REMARK                         _______ _______ _______ _____ _____    ______ ____
ROOT
ATOM      6  C   UNL     1      -4.105 -11.850  15.845  0.00  0.00    -0.027 C 
ATOM      7  C   UNL     1      -5.434 -11.221  15.311  0.00  0.00    +0.028 C 
ATOM      8  C   UNL     1      -5.191 -10.470  13.953  0.00  0.00    +0.012 C 
ATOM      9  C   UNL     1      -6.148 -10.390  16.416  0.00  0.00    +0.122 C 
ATOM     10  C   UNL     1      -4.399 -12.675  17.120  0.00  0.00    +0.007 C 
ATOM     11  C   UNL     1      -3.540 -12.818  14.778  0.00  0.00    +0.009 C 
ATOM     12  C   UNL     1      -6.347 -11.188  17.725  0.00  0.00    +0.029 C 
ATOM     13  C   UNL     1      -4.555 -11.434  12.911  0.00  0.00    +0.076 C 
ATOM     14  C   UNL     1      -5.062 -11.855  18.218  0.00  0.00    +0.007 C 
ATOM     15  C   UNL     1      -3.309 -12.151  13.429  0.00  0.00    +0.023 C 
ATOM     16  C   UNL     1      -3.034 -10.780  16.180  0.00  0.00    +0.011 C 
ATOM     18  C   UNL     1      -6.466  -9.850  13.355  0.00  0.00    +0.010 C 
ENDROOT
BRANCH  13   4
ATOM      3  O   UNL     1      -5.100 -12.294  10.193  0.00  0.00    -0.276 OA
ATOM      4  N   UNL     1      -4.211 -10.745  11.684  0.00  0.00    -0.312 N 
ATOM     21  C   UNL     1      -4.516 -11.240  10.430  0.00  0.00    +0.216 C 
ATOM     31  H   UNL     1      -3.676  -9.885  11.762  0.00  0.00    +0.149 HD
BRANCH  21  22
ATOM     22  C   UNL     1      -4.069 -10.318   9.333  0.00  0.00    +0.075 C 
ATOM     23  C   UNL     1      -5.019 -10.388   8.135  0.00  0.00    +0.013 C 
ATOM     24  C   UNL     1      -3.903  -8.897   9.874  0.00  0.00    +0.013 C 
ATOM     25  C   UNL     1      -6.333  -9.641   8.357  0.00  0.00    +0.001 C 
ATOM     26  C   UNL     1      -5.235  -8.180  10.089  0.00  0.00    +0.001 C 
ATOM     27  C   UNL     1      -6.101  -8.213   8.835  0.00  0.00    +0.000 C 
ENDBRANCH  21  22
ENDBRANCH  13   4
BRANCH   9   1
ATOM      1  O   UNL     1      -7.450 -10.015  15.964  0.00  0.00    -0.391 OA
ATOM     32  H   UNL     1      -8.105 -10.448  16.538  0.00  0.00    +0.210 HD
ENDBRANCH   9   1
BRANCH  12  17
ATOM     17  C   UNL     1      -6.932 -10.314  18.841  0.00  0.00    +0.077 C 
ATOM     19  C   UNL     1      -6.035 -10.368  20.074  0.00  0.00    +0.017 C 
BRANCH  17  20
ATOM      2  O   UNL     1      -8.598 -11.641  19.994  0.00  0.00    -0.276 OA
ATOM      5  N   UNL     1      -9.309 -10.089  18.425  0.00  0.00    -0.313 N 
ATOM     20  C   UNL     1      -8.352 -10.767  19.166  0.00  0.00    +0.216 C 
ATOM     33  H   UNL     1      -9.007  -9.431  17.711  0.00  0.00    +0.149 HD
BRANCH   5  28
ATOM     28  C   UNL     1     -10.724 -10.345  18.555  0.00  0.00    +0.067 C 
ATOM     29  C   UNL     1     -11.110 -11.596  17.777  0.00  0.00    +0.027 C 
ATOM     30  C   UNL     1     -11.531  -9.137  18.094  0.00  0.00    +0.027 C 
ENDBRANCH   5  28
ENDBRANCH  17  20
ENDBRANCH  12  17
TORSDOF 6
ENDMDL
MODEL 10
REMARK VINA RESULT:      -6.2     25.672     29.463
REMARK  Name = 45361457
REMARK  11 active torsions:
REMARK  status: ('A' for Active; 'I' for Inactive)
REMARK    1  A    between atoms: O_1  and  C_9
REMARK    2  A    between atoms: N_4  and  C_13
REMARK    3  A    between atoms: N_5  and  C_28
REMARK    4  A    between atoms: C_6  and  C_16
REMARK    5  A    between atoms: C_8  and  C_18
REMARK    6  A    between atoms: C_12  and  C_17
REMARK    7  A    between atoms: C_17  and  C_19
REMARK    8  A    between atoms: C_17  and  C_20
REMARK    9  A    between atoms: C_21  and  C_22
REMARK   10  A    between atoms: C_28  and  C_29
REMARK   11  A    between atoms: C_28  and  C_30
REMARK                            x       y       z     vdW  Elec       q    Type
REMARK                         _______ _______ _______ _____ _____    ______ ____
ROOT
ATOM      6  C   UNL     1     -15.498   7.508  22.131  0.00  0.00    -0.027 C 
ATOM      7  C   UNL     1     -14.237   6.616  22.384  0.00  0.00    +0.028 C 
ATOM      8  C   UNL     1     -13.204   6.762  21.210  0.00  0.00    +0.012 C 
ATOM      9  C   UNL     1     -14.642   5.157  22.740  0.00  0.00    +0.122 C 
ATOM     10  C   UNL     1     -16.441   7.429  23.354  0.00  0.00    +0.007 C 
ATOM     11  C   UNL     1     -15.051   8.981  21.976  0.00  0.00    +0.009 C 
ATOM     12  C   UNL     1     -15.665   5.089  23.898  0.00  0.00    +0.029 C 
ATOM     13  C   UNL     1     -12.818   8.256  21.015  0.00  0.00    +0.076 C 
ATOM     14  C   UNL     1     -16.870   6.005  23.682  0.00  0.00    +0.007 C 
ATOM     15  C   UNL     1     -14.026   9.180  20.867  0.00  0.00    +0.023 C 
ATOM     16  C   UNL     1     -16.286   7.078  20.867  0.00  0.00    +0.011 C 
ATOM     18  C   UNL     1     -11.925   5.932  21.409  0.00  0.00    +0.010 C 
ENDROOT
BRANCH  13   4
ATOM      3  O   UNL     1     -11.106  10.529  20.443  0.00  0.00    -0.276 OA
ATOM      4  N   UNL     1     -11.957   8.442  19.866  0.00  0.00    -0.312 N 
ATOM     21  C   UNL     1     -11.175   9.567  19.683  0.00  0.00    +0.216 C 
ATOM     31  H   UNL     1     -11.975   7.727  19.144  0.00  0.00    +0.149 HD
BRANCH  21  22
ATOM     22  C   UNL     1     -10.360   9.492  18.425  0.00  0.00    +0.075 C 
ATOM     23  C   UNL     1     -10.832   8.342  17.532  0.00  0.00    +0.013 C 
ATOM     24  C   UNL     1     -10.374  10.843  17.706  0.00  0.00    +0.013 C 
ATOM     25  C   UNL     1     -12.130   8.646  16.785  0.00  0.00    +0.001 C 
ATOM     26  C   UNL     1     -11.686  11.117  16.975  0.00  0.00    +0.001 C 
ATOM     27  C   UNL     1     -12.060   9.973  16.040  0.00  0.00    +0.000 C 
ENDBRANCH  21  22
ENDBRANCH  13   4
BRANCH   9   1
ATOM      1  O   UNL     1     -13.488   4.434  23.173  0.00  0.00    -0.391 OA
ATOM     32  H   UNL     1     -13.293   4.697  24.088  0.00  0.00    +0.210 HD
ENDBRANCH   9   1
BRANCH  12  17
ATOM     17  C   UNL     1     -16.149   3.656  24.147  0.00  0.00    +0.077 C 
ATOM     19  C   UNL     1     -17.050   3.200  23.002  0.00  0.00    +0.017 C 
BRANCH  17  20
ATOM      2  O   UNL     1     -18.074   3.345  25.582  0.00  0.00    -0.276 OA
ATOM      5  N   UNL     1     -16.020   3.792  26.562  0.00  0.00    -0.313 N 
ATOM     20  C   UNL     1     -16.871   3.575  25.488  0.00  0.00    +0.216 C 
ATOM     33  H   UNL     1     -15.052   4.044  26.384  0.00  0.00    +0.149 HD
BRANCH   5  28
ATOM     28  C   UNL     1     -16.473   3.768  27.934  0.00  0.00    +0.067 C 
ATOM     29  C   UNL     1     -16.909   5.161  28.372  0.00  0.00    +0.027 C 
ATOM     30  C   UNL     1     -15.384   3.218  28.847  0.00  0.00    +0.027 C 
ENDBRANCH   5  28
ENDBRANCH  17  20
ENDBRANCH  12  17
TORSDOF 6
ENDMDL
