MODEL 1
REMARK VINA RESULT:      -7.1      0.000      0.000
REMARK  Name = 7144228
REMARK  8 active torsions:
REMARK  status: ('A' for Active; 'I' for Inactive)
REMARK    1  A    between atoms: S_1  and  C_27
REMARK    2  A    between atoms: S_1  and  C_30
REMARK    3  A    between atoms: O_4  and  C_22
REMARK    4  A    between atoms: O_4  and  C_28
REMARK    5  A    between atoms: O_5  and  C_29
REMARK    6  A    between atoms: C_16  and  C_21
REMARK    7  A    between atoms: C_18  and  C_22
REMARK    8  A    between atoms: C_28  and  C_29
REMARK                            x       y       z     vdW  Elec       q    Type
REMARK                         _______ _______ _______ _____ _____    ______ ____
ROOT
ATOM      2  O   UNL     1      11.174   9.077  17.150  0.00  0.00    -0.268 OA
ATOM      3  O   UNL     1      11.110  11.870  21.615  0.00  0.00    -0.273 OA
ATOM      7  N   UNL     1      12.101   9.804  21.997  0.00  0.00    -0.299 N 
ATOM      8  N   UNL     1      12.188   8.392  19.147  0.00  0.00    -0.311 N 
ATOM      9  C   UNL     1      10.804   7.821  21.228  0.00  0.00    +0.027 C 
ATOM     10  C   UNL     1      13.258   7.707  21.317  0.00  0.00    +0.054 C 
ATOM     11  C   UNL     1      11.976   6.919  21.583  0.00  0.00    +0.018 C 
ATOM     12  C   UNL     1      10.821   9.100  22.082  0.00  0.00    +0.113 C 
ATOM     13  C   UNL     1      10.866   8.132  19.732  0.00  0.00    +0.130 C 
ATOM     14  C   UNL     1      13.285   8.962  22.214  0.00  0.00    +0.117 C 
ATOM     15  C   UNL     1      13.380   8.107  19.844  0.00  0.00    +0.034 A 
ATOM     16  C   UNL     1      14.577   8.220  19.211  0.00  0.00    +0.002 A 
ATOM     17  C   UNL     1      12.183   8.827  17.809  0.00  0.00    +0.252 A 
ATOM     18  C   UNL     1      12.120  11.183  21.795  0.00  0.00    +0.241 C 
ATOM     19  C   UNL     1      14.610   8.670  17.833  0.00  0.00    +0.015 A 
ATOM     20  C   UNL     1      13.503   8.975  17.156  0.00  0.00    +0.071 A 
ENDROOT
BRANCH  16  21
ATOM     21  C   UNL     1      15.853   7.915  19.896  0.00  0.00    -0.016 A 
ATOM     23  C   UNL     1      16.426   6.654  19.761  0.00  0.00    +0.009 A 
ATOM     24  C   UNL     1      16.471   8.892  20.670  0.00  0.00    +0.009 A 
ATOM     25  C   UNL     1      17.629   6.367  20.406  0.00  0.00    +0.015 A 
ATOM     26  C   UNL     1      17.673   8.605  21.316  0.00  0.00    +0.015 A 
ATOM     27  C   UNL     1      18.252   7.343  21.184  0.00  0.00    +0.008 A 
BRANCH  27   1
ATOM      1  S   UNL     1      19.788   6.976  22.010  0.00  0.00    -0.129 S 
ATOM     30  C   UNL     1      20.465   5.657  20.962  0.00  0.00    +0.090 C 
ENDBRANCH  27   1
ENDBRANCH  16  21
BRANCH  18  22
ATOM     22  C   UNL     1      13.473  11.848  21.794  0.00  0.00    +0.256 C 
BRANCH  22   4
ATOM      4  O   UNL     1      13.478  12.754  22.870  0.00  0.00    -0.359 OA
BRANCH   4  28
ATOM     28  C   UNL     1      13.834  12.125  24.100  0.00  0.00    +0.280 C 
BRANCH  28  29
ATOM      6  O   UNL     1      12.276  13.285  25.559  0.00  0.00    -0.248 OA
ATOM     29  C   UNL     1      12.700  12.244  25.080  0.00  0.00    +0.331 C 
BRANCH  29   5
ATOM      5  O   UNL     1      12.198  11.017  25.368  0.00  0.00    -0.479 OA
ATOM     31  H   UNL     1      12.795  10.506  25.956  0.00  0.00    +0.295 HD
ENDBRANCH  29   5
ENDBRANCH  28  29
ENDBRANCH   4  28
ENDBRANCH  22   4
ENDBRANCH  18  22
TORSDOF 7
ENDMDL
MODEL 2
REMARK VINA RESULT:      -6.5      2.568      4.636
REMARK  Name = 7144228
REMARK  8 active torsions:
REMARK  status: ('A' for Active; 'I' for Inactive)
REMARK    1  A    between atoms: S_1  and  C_27
REMARK    2  A    between atoms: S_1  and  C_30
REMARK    3  A    between atoms: O_4  and  C_22
REMARK    4  A    between atoms: O_4  and  C_28
REMARK    5  A    between atoms: O_5  and  C_29
REMARK    6  A    between atoms: C_16  and  C_21
REMARK    7  A    between atoms: C_18  and  C_22
REMARK    8  A    between atoms: C_28  and  C_29
REMARK                            x       y       z     vdW  Elec       q    Type
REMARK                         _______ _______ _______ _____ _____    ______ ____
ROOT
ATOM      2  O   UNL     1      10.542   8.469  19.739  0.00  0.00    -0.268 OA
ATOM      3  O   UNL     1      13.432  12.656  18.375  0.00  0.00    -0.273 OA
ATOM      7  N   UNL     1      14.476  11.515  20.109  0.00  0.00    -0.299 N 
ATOM      8  N   UNL     1      12.655   8.956  20.624  0.00  0.00    -0.311 N 
ATOM      9  C   UNL     1      13.052  11.020  22.092  0.00  0.00    +0.027 C 
ATOM     10  C   UNL     1      14.926   9.528  21.540  0.00  0.00    +0.054 C 
ATOM     11  C   UNL     1      14.180  10.197  22.694  0.00  0.00    +0.018 C 
ATOM     12  C   UNL     1      13.606  12.089  21.136  0.00  0.00    +0.113 C 
ATOM     13  C   UNL     1      12.081  10.072  21.388  0.00  0.00    +0.130 C 
ATOM     14  C   UNL     1      15.518  10.612  20.615  0.00  0.00    +0.117 C 
ATOM     15  C   UNL     1      14.012   8.593  20.743  0.00  0.00    +0.034 A 
ATOM     16  C   UNL     1      14.466   7.465  20.138  0.00  0.00    +0.002 A 
ATOM     17  C   UNL     1      11.738   8.206  19.866  0.00  0.00    +0.252 A 
ATOM     18  C   UNL     1      14.317  11.895  18.777  0.00  0.00    +0.241 C 
ATOM     19  C   UNL     1      13.549   6.669  19.344  0.00  0.00    +0.015 A 
ATOM     20  C   UNL     1      12.268   7.002  19.188  0.00  0.00    +0.071 A 
ENDROOT
BRANCH  16  21
ATOM     21  C   UNL     1      15.877   7.034  20.248  0.00  0.00    -0.016 A 
ATOM     23  C   UNL     1      16.582   7.271  21.424  0.00  0.00    +0.009 A 
ATOM     24  C   UNL     1      16.489   6.394  19.175  0.00  0.00    +0.009 A 
ATOM     25  C   UNL     1      17.912   6.865  21.528  0.00  0.00    +0.015 A 
ATOM     26  C   UNL     1      17.819   5.988  19.278  0.00  0.00    +0.015 A 
ATOM     27  C   UNL     1      18.531   6.223  20.455  0.00  0.00    +0.008 A 
BRANCH  27   1
ATOM      1  S   UNL     1      20.231   5.705  20.586  0.00  0.00    -0.129 S 
ATOM     30  C   UNL     1      20.664   6.280  22.254  0.00  0.00    +0.090 C 
ENDBRANCH  27   1
ENDBRANCH  16  21
BRANCH  18  22
ATOM     22  C   UNL     1      15.297  11.317  17.788  0.00  0.00    +0.256 C 
BRANCH  22   4
ATOM      4  O   UNL     1      14.540  10.853  16.697  0.00  0.00    -0.359 OA
BRANCH   4  28
ATOM     28  C   UNL     1      13.890   9.615  16.983  0.00  0.00    +0.280 C 
BRANCH  28  29
ATOM      6  O   UNL     1      12.191   9.046  15.342  0.00  0.00    -0.248 OA
ATOM     29  C   UNL     1      13.355   9.015  15.712  0.00  0.00    +0.331 C 
BRANCH  29   5
ATOM      5  O   UNL     1      14.357   8.423  15.015  0.00  0.00    -0.479 OA
ATOM     31  H   UNL     1      14.021   7.739  14.399  0.00  0.00    +0.295 HD
ENDBRANCH  29   5
ENDBRANCH  28  29
ENDBRANCH   4  28
ENDBRANCH  22   4
ENDBRANCH  18  22
TORSDOF 7
ENDMDL
MODEL 3
REMARK VINA RESULT:      -6.1     15.057     18.178
REMARK  Name = 7144228
REMARK  8 active torsions:
REMARK  status: ('A' for Active; 'I' for Inactive)
REMARK    1  A    between atoms: S_1  and  C_27
REMARK    2  A    between atoms: S_1  and  C_30
REMARK    3  A    between atoms: O_4  and  C_22
REMARK    4  A    between atoms: O_4  and  C_28
REMARK    5  A    between atoms: O_5  and  C_29
REMARK    6  A    between atoms: C_16  and  C_21
REMARK    7  A    between atoms: C_18  and  C_22
REMARK    8  A    between atoms: C_28  and  C_29
REMARK                            x       y       z     vdW  Elec       q    Type
REMARK                         _______ _______ _______ _____ _____    ______ ____
ROOT
ATOM      2  O   UNL     1       7.148   9.387   4.784  0.00  0.00    -0.268 OA
ATOM      3  O   UNL     1      11.765   9.307   7.318  0.00  0.00    -0.273 OA
ATOM      7  N   UNL     1      11.355   7.226   6.369  0.00  0.00    -0.299 N 
ATOM      8  N   UNL     1       8.633   7.576   4.759  0.00  0.00    -0.311 N 
ATOM      9  C   UNL     1       9.133   6.222   6.877  0.00  0.00    +0.027 C 
ATOM     10  C   UNL     1      10.264   5.663   4.768  0.00  0.00    +0.054 C 
ATOM     11  C   UNL     1       9.427   5.087   5.908  0.00  0.00    +0.018 C 
ATOM     12  C   UNL     1      10.438   6.817   7.433  0.00  0.00    +0.113 C 
ATOM     13  C   UNL     1       8.289   7.272   6.154  0.00  0.00    +0.130 C 
ATOM     14  C   UNL     1      11.591   6.213   5.332  0.00  0.00    +0.117 C 
ATOM     15  C   UNL     1       9.513   6.764   4.015  0.00  0.00    +0.034 A 
ATOM     16  C   UNL     1       9.685   6.994   2.687  0.00  0.00    +0.002 A 
ATOM     17  C   UNL     1       7.936   8.655   4.185  0.00  0.00    +0.252 A 
ATOM     18  C   UNL     1      11.980   8.471   6.435  0.00  0.00    +0.241 C 
ATOM     19  C   UNL     1       8.986   8.100   2.062  0.00  0.00    +0.015 A 
ATOM     20  C   UNL     1       8.171   8.904   2.746  0.00  0.00    +0.071 A 
ENDROOT
BRANCH  16  21
ATOM     21  C   UNL     1      10.584   6.157   1.861  0.00  0.00    -0.016 A 
ATOM     23  C   UNL     1      11.909   6.538   1.679  0.00  0.00    +0.009 A 
ATOM     24  C   UNL     1      10.096   4.995   1.272  0.00  0.00    +0.009 A 
ATOM     25  C   UNL     1      12.756   5.749   0.901  0.00  0.00    +0.015 A 
ATOM     26  C   UNL     1      10.943   4.206   0.493  0.00  0.00    +0.015 A 
ATOM     27  C   UNL     1      12.273   4.583   0.308  0.00  0.00    +0.008 A 
BRANCH  27   1
ATOM      1  S   UNL     1      13.354   3.575  -0.688  0.00  0.00    -0.129 S 
ATOM     30  C   UNL     1      12.183   2.814  -1.849  0.00  0.00    +0.090 C 
ENDBRANCH  27   1
ENDBRANCH  16  21
BRANCH  18  22
ATOM     22  C   UNL     1      12.967   8.791   5.342  0.00  0.00    +0.256 C 
BRANCH  22   4
ATOM      4  O   UNL     1      14.234   8.858   5.950  0.00  0.00    -0.359 OA
BRANCH   4  28
ATOM     28  C   UNL     1      14.943   7.624   5.851  0.00  0.00    +0.280 C 
BRANCH  28  29
ATOM      6  O   UNL     1      16.121   8.444   3.890  0.00  0.00    -0.248 OA
ATOM     29  C   UNL     1      15.601   7.522   4.503  0.00  0.00    +0.331 C 
BRANCH  29   5
ATOM      5  O   UNL     1      15.542   6.246   4.047  0.00  0.00    -0.479 OA
ATOM     31  H   UNL     1      15.555   6.205   3.068  0.00  0.00    +0.295 HD
ENDBRANCH  29   5
ENDBRANCH  28  29
ENDBRANCH   4  28
ENDBRANCH  22   4
ENDBRANCH  18  22
TORSDOF 7
ENDMDL
MODEL 4
REMARK VINA RESULT:      -6.1      2.801      3.860
REMARK  Name = 7144228
REMARK  8 active torsions:
REMARK  status: ('A' for Active; 'I' for Inactive)
REMARK    1  A    between atoms: S_1  and  C_27
REMARK    2  A    between atoms: S_1  and  C_30
REMARK    3  A    between atoms: O_4  and  C_22
REMARK    4  A    between atoms: O_4  and  C_28
REMARK    5  A    between atoms: O_5  and  C_29
REMARK    6  A    between atoms: C_16  and  C_21
REMARK    7  A    between atoms: C_18  and  C_22
REMARK    8  A    between atoms: C_28  and  C_29
REMARK                            x       y       z     vdW  Elec       q    Type
REMARK                         _______ _______ _______ _____ _____    ______ ____
ROOT
ATOM      2  O   UNL     1      13.548   8.506  16.373  0.00  0.00    -0.268 OA
ATOM      3  O   UNL     1      10.608   8.350  20.741  0.00  0.00    -0.273 OA
ATOM      7  N   UNL     1      12.859   8.412  21.313  0.00  0.00    -0.299 N 
ATOM      8  N   UNL     1      14.405   8.685  18.545  0.00  0.00    -0.311 N 
ATOM      9  C   UNL     1      14.308   6.723  20.192  0.00  0.00    +0.027 C 
ATOM     10  C   UNL     1      15.270   8.872  20.899  0.00  0.00    +0.054 C 
ATOM     11  C   UNL     1      15.537   7.370  20.812  0.00  0.00    +0.018 C 
ATOM     12  C   UNL     1      13.060   6.986  21.053  0.00  0.00    +0.113 C 
ATOM     13  C   UNL     1      14.143   7.257  18.769  0.00  0.00    +0.130 C 
ATOM     14  C   UNL     1      14.046   9.124  21.803  0.00  0.00    +0.117 C 
ATOM     15  C   UNL     1      15.042   9.486  19.515  0.00  0.00    +0.034 A 
ATOM     16  C   UNL     1      15.401  10.760  19.210  0.00  0.00    +0.002 A 
ATOM     17  C   UNL     1      14.090   9.164  17.261  0.00  0.00    +0.252 A 
ATOM     18  C   UNL     1      11.592   8.971  21.156  0.00  0.00    +0.241 C 
ATOM     19  C   UNL     1      15.088  11.290  17.896  0.00  0.00    +0.015 A 
ATOM     20  C   UNL     1      14.461  10.567  16.969  0.00  0.00    +0.071 A 
ENDROOT
BRANCH  16  21
ATOM     21  C   UNL     1      16.087  11.633  20.189  0.00  0.00    -0.016 A 
ATOM     23  C   UNL     1      17.437  11.439  20.460  0.00  0.00    +0.009 A 
ATOM     24  C   UNL     1      15.375  12.642  20.831  0.00  0.00    +0.009 A 
ATOM     25  C   UNL     1      18.084  12.262  21.383  0.00  0.00    +0.015 A 
ATOM     26  C   UNL     1      16.021  13.464  21.754  0.00  0.00    +0.015 A 
ATOM     27  C   UNL     1      17.375  13.275  22.030  0.00  0.00    +0.008 A 
BRANCH  27   1
ATOM      1  S   UNL     1      18.199  14.325  23.210  0.00  0.00    -0.129 S 
ATOM     30  C   UNL     1      19.759  14.689  22.354  0.00  0.00    +0.090 C 
ENDBRANCH  27   1
ENDBRANCH  16  21
BRANCH  18  22
ATOM     22  C   UNL     1      11.447  10.428  21.513  0.00  0.00    +0.256 C 
BRANCH  22   4
ATOM      4  O   UNL     1      10.947  10.472  22.828  0.00  0.00    -0.359 OA
BRANCH   4  28
ATOM     28  C   UNL     1      11.028  11.781  23.389  0.00  0.00    +0.280 C 
BRANCH  28  29
ATOM      6  O   UNL     1      10.528  12.592  25.624  0.00  0.00    -0.248 OA
ATOM     29  C   UNL     1      10.923  11.701  24.887  0.00  0.00    +0.331 C 
BRANCH  29   5
ATOM      5  O   UNL     1      11.333  10.483  25.321  0.00  0.00    -0.479 OA
ATOM     31  H   UNL     1      12.127  10.170  24.837  0.00  0.00    +0.295 HD
ENDBRANCH  29   5
ENDBRANCH  28  29
ENDBRANCH   4  28
ENDBRANCH  22   4
ENDBRANCH  18  22
TORSDOF 7
ENDMDL
MODEL 5
REMARK VINA RESULT:      -6.0      2.553      4.713
REMARK  Name = 7144228
REMARK  8 active torsions:
REMARK  status: ('A' for Active; 'I' for Inactive)
REMARK    1  A    between atoms: S_1  and  C_27
REMARK    2  A    between atoms: S_1  and  C_30
REMARK    3  A    between atoms: O_4  and  C_22
REMARK    4  A    between atoms: O_4  and  C_28
REMARK    5  A    between atoms: O_5  and  C_29
REMARK    6  A    between atoms: C_16  and  C_21
REMARK    7  A    between atoms: C_18  and  C_22
REMARK    8  A    between atoms: C_28  and  C_29
REMARK                            x       y       z     vdW  Elec       q    Type
REMARK                         _______ _______ _______ _____ _____    ______ ____
ROOT
ATOM      2  O   UNL     1      13.284  10.573  17.329  0.00  0.00    -0.268 OA
ATOM      3  O   UNL     1      11.427   6.791  20.489  0.00  0.00    -0.273 OA
ATOM      7  N   UNL     1      13.569   7.390  21.160  0.00  0.00    -0.299 N 
ATOM      8  N   UNL     1      14.393   9.788  19.237  0.00  0.00    -0.311 N 
ATOM      9  C   UNL     1      15.302   7.395  19.371  0.00  0.00    +0.027 C 
ATOM     10  C   UNL     1      15.538   8.907  21.294  0.00  0.00    +0.054 C 
ATOM     11  C   UNL     1      16.306   7.985  20.348  0.00  0.00    +0.018 C 
ATOM     12  C   UNL     1      14.219   6.597  20.116  0.00  0.00    +0.113 C 
ATOM     13  C   UNL     1      14.706   8.533  18.541  0.00  0.00    +0.130 C 
ATOM     14  C   UNL     1      14.488   8.086  22.070  0.00  0.00    +0.117 C 
ATOM     15  C   UNL     1      14.861  10.054  20.539  0.00  0.00    +0.034 A 
ATOM     16  C   UNL     1      14.679  11.284  21.086  0.00  0.00    +0.002 A 
ATOM     17  C   UNL     1      13.703  10.747  18.473  0.00  0.00    +0.252 A 
ATOM     18  C   UNL     1      12.179   7.383  21.268  0.00  0.00    +0.241 C 
ATOM     19  C   UNL     1      13.967  12.297  20.329  0.00  0.00    +0.015 A 
ATOM     20  C   UNL     1      13.487  12.066  19.107  0.00  0.00    +0.071 A 
ENDROOT
BRANCH  16  21
ATOM     21  C   UNL     1      15.168  11.616  22.442  0.00  0.00    -0.016 A 
ATOM     23  C   UNL     1      14.357  11.378  23.547  0.00  0.00    +0.009 A 
ATOM     24  C   UNL     1      16.437  12.164  22.603  0.00  0.00    +0.009 A 
ATOM     25  C   UNL     1      14.819  11.690  24.826  0.00  0.00    +0.015 A 
ATOM     26  C   UNL     1      16.898  12.477  23.881  0.00  0.00    +0.015 A 
ATOM     27  C   UNL     1      16.089  12.240  24.993  0.00  0.00    +0.008 A 
BRANCH  27   1
ATOM      1  S   UNL     1      16.679  12.641  26.625  0.00  0.00    -0.129 S 
ATOM     30  C   UNL     1      15.753  11.465  27.652  0.00  0.00    +0.090 C 
ENDBRANCH  27   1
ENDBRANCH  16  21
BRANCH  18  22
ATOM     22  C   UNL     1      11.587   8.165  22.413  0.00  0.00    +0.256 C 
BRANCH  22   4
ATOM      4  O   UNL     1      10.687   9.087  21.848  0.00  0.00    -0.359 OA
BRANCH   4  28
ATOM     28  C   UNL     1      11.288  10.364  21.638  0.00  0.00    +0.280 C 
BRANCH  28  29
ATOM      6  O   UNL     1      10.785  11.056  23.912  0.00  0.00    -0.248 OA
ATOM     29  C   UNL     1      10.855  11.315  22.720  0.00  0.00    +0.331 C 
BRANCH  29   5
ATOM      5  O   UNL     1      10.549  12.524  22.186  0.00  0.00    -0.479 OA
ATOM     31  H   UNL     1      11.340  12.976  21.824  0.00  0.00    +0.295 HD
ENDBRANCH  29   5
ENDBRANCH  28  29
ENDBRANCH   4  28
ENDBRANCH  22   4
ENDBRANCH  18  22
TORSDOF 7
ENDMDL
MODEL 6
REMARK VINA RESULT:      -5.9     26.967     29.633
REMARK  Name = 7144228
REMARK  8 active torsions:
REMARK  status: ('A' for Active; 'I' for Inactive)
REMARK    1  A    between atoms: S_1  and  C_27
REMARK    2  A    between atoms: S_1  and  C_30
REMARK    3  A    between atoms: O_4  and  C_22
REMARK    4  A    between atoms: O_4  and  C_28
REMARK    5  A    between atoms: O_5  and  C_29
REMARK    6  A    between atoms: C_16  and  C_21
REMARK    7  A    between atoms: C_18  and  C_22
REMARK    8  A    between atoms: C_28  and  C_29
REMARK                            x       y       z     vdW  Elec       q    Type
REMARK                         _______ _______ _______ _____ _____    ______ ____
ROOT
ATOM      2  O   UNL     1      -1.120 -11.166  15.486  0.00  0.00    -0.268 OA
ATOM      3  O   UNL     1      -4.969 -14.541  16.727  0.00  0.00    -0.273 OA
ATOM      7  N   UNL     1      -5.889 -12.534  16.003  0.00  0.00    -0.299 N 
ATOM      8  N   UNL     1      -3.399 -10.747  15.147  0.00  0.00    -0.311 N 
ATOM      9  C   UNL     1      -5.022 -10.481  17.114  0.00  0.00    +0.027 C 
ATOM     10  C   UNL     1      -5.859 -10.351  14.807  0.00  0.00    +0.054 C 
ATOM     11  C   UNL     1      -5.824  -9.622  16.148  0.00  0.00    +0.018 C 
ATOM     12  C   UNL     1      -5.672 -11.864  17.285  0.00  0.00    +0.113 C 
ATOM     13  C   UNL     1      -3.587 -10.584  16.595  0.00  0.00    +0.130 C 
ATOM     14  C   UNL     1      -6.557 -11.716  14.982  0.00  0.00    +0.117 C 
ATOM     15  C   UNL     1      -4.453 -10.546  14.232  0.00  0.00    +0.034 A 
ATOM     16  C   UNL     1      -4.201 -10.558  12.897  0.00  0.00    +0.002 A 
ATOM     17  C   UNL     1      -2.078 -10.997  14.732  0.00  0.00    +0.252 A 
ATOM     18  C   UNL     1      -5.530 -13.873  15.853  0.00  0.00    +0.241 C 
ATOM     19  C   UNL     1      -2.851 -10.816  12.433  0.00  0.00    +0.015 A 
ATOM     20  C   UNL     1      -1.840 -11.039  13.272  0.00  0.00    +0.071 A 
ENDROOT
BRANCH  16  21
ATOM     21  C   UNL     1      -5.270 -10.334  11.900  0.00  0.00    -0.016 A 
ATOM     23  C   UNL     1      -5.620  -9.036  11.541  0.00  0.00    +0.009 A 
ATOM     24  C   UNL     1      -5.920 -11.424  11.328  0.00  0.00    +0.009 A 
ATOM     25  C   UNL     1      -6.628  -8.826  10.600  0.00  0.00    +0.015 A 
ATOM     26  C   UNL     1      -6.928 -11.213  10.388  0.00  0.00    +0.015 A 
ATOM     27  C   UNL     1      -7.283  -9.914  10.024  0.00  0.00    +0.008 A 
BRANCH  27   1
ATOM      1  S   UNL     1      -8.572  -9.646   8.824  0.00  0.00    -0.129 S 
ATOM     30  C   UNL     1      -7.757  -8.525   7.650  0.00  0.00    +0.090 C 
ENDBRANCH  27   1
ENDBRANCH  16  21
BRANCH  18  22
ATOM     22  C   UNL     1      -5.852 -14.516  14.528  0.00  0.00    +0.256 C 
BRANCH  22   4
ATOM      4  O   UNL     1      -4.692 -15.200  14.121  0.00  0.00    -0.359 OA
BRANCH   4  28
ATOM     28  C   UNL     1      -3.697 -14.314  13.611  0.00  0.00    +0.280 C 
BRANCH  28  29
ATOM      6  O   UNL     1      -1.270 -14.422  13.613  0.00  0.00    -0.248 OA
ATOM     29  C   UNL     1      -2.342 -14.725  14.116  0.00  0.00    +0.331 C 
BRANCH  29   5
ATOM      5  O   UNL     1      -2.468 -15.492  15.227  0.00  0.00    -0.479 OA
ATOM     31  H   UNL     1      -1.704 -15.388  15.833  0.00  0.00    +0.295 HD
ENDBRANCH  29   5
ENDBRANCH  28  29
ENDBRANCH   4  28
ENDBRANCH  22   4
ENDBRANCH  18  22
TORSDOF 7
ENDMDL
MODEL 7
REMARK VINA RESULT:      -5.9     13.831     16.505
REMARK  Name = 7144228
REMARK  8 active torsions:
REMARK  status: ('A' for Active; 'I' for Inactive)
REMARK    1  A    between atoms: S_1  and  C_27
REMARK    2  A    between atoms: S_1  and  C_30
REMARK    3  A    between atoms: O_4  and  C_22
REMARK    4  A    between atoms: O_4  and  C_28
REMARK    5  A    between atoms: O_5  and  C_29
REMARK    6  A    between atoms: C_16  and  C_21
REMARK    7  A    between atoms: C_18  and  C_22
REMARK    8  A    between atoms: C_28  and  C_29
REMARK                            x       y       z     vdW  Elec       q    Type
REMARK                         _______ _______ _______ _____ _____    ______ ____
ROOT
ATOM      2  O   UNL     1      13.629   7.043   6.348  0.00  0.00    -0.268 OA
ATOM      3  O   UNL     1       9.376   6.779   3.251  0.00  0.00    -0.273 OA
ATOM      7  N   UNL     1       8.727   7.216   5.439  0.00  0.00    -0.299 N 
ATOM      8  N   UNL     1      11.448   7.509   7.063  0.00  0.00    -0.311 N 
ATOM      9  C   UNL     1       9.652   5.682   7.170  0.00  0.00    +0.027 C 
ATOM     10  C   UNL     1       9.086   7.996   7.775  0.00  0.00    +0.054 C 
ATOM     11  C   UNL     1       9.041   6.548   8.260  0.00  0.00    +0.018 C 
ATOM     12  C   UNL     1       8.863   5.820   5.857  0.00  0.00    +0.113 C 
ATOM     13  C   UNL     1      11.119   6.078   6.999  0.00  0.00    +0.130 C 
ATOM     14  C   UNL     1       8.252   8.131   6.485  0.00  0.00    +0.117 C 
ATOM     15  C   UNL     1      10.523   8.465   7.528  0.00  0.00    +0.034 A 
ATOM     16  C   UNL     1      10.916   9.752   7.714  0.00  0.00    +0.002 A 
ATOM     17  C   UNL     1      12.778   7.839   6.744  0.00  0.00    +0.252 A 
ATOM     18  C   UNL     1       8.977   7.567   4.113  0.00  0.00    +0.241 C 
ATOM     19  C   UNL     1      12.279  10.130   7.392  0.00  0.00    +0.015 A 
ATOM     20  C   UNL     1      13.168   9.255   6.922  0.00  0.00    +0.071 A 
ENDROOT
BRANCH  16  21
ATOM     21  C   UNL     1       9.986  10.787   8.217  0.00  0.00    -0.016 A 
ATOM     23  C   UNL     1       9.446  11.718   7.336  0.00  0.00    +0.009 A 
ATOM     24  C   UNL     1       9.658  10.822   9.569  0.00  0.00    +0.009 A 
ATOM     25  C   UNL     1       8.568  12.693   7.810  0.00  0.00    +0.015 A 
ATOM     26  C   UNL     1       8.782  11.797  10.044  0.00  0.00    +0.015 A 
ATOM     27  C   UNL     1       8.237  12.733   9.165  0.00  0.00    +0.008 A 
BRANCH  27   1
ATOM      1  S   UNL     1       7.118  13.980   9.772  0.00  0.00    -0.129 S 
ATOM     30  C   UNL     1       8.020  14.613  11.216  0.00  0.00    +0.090 C 
ENDBRANCH  27   1
ENDBRANCH  16  21
BRANCH  18  22
ATOM     22  C   UNL     1       8.744   9.010   3.741  0.00  0.00    +0.256 C 
BRANCH  22   4
ATOM      4  O   UNL     1       7.699   9.019   2.799  0.00  0.00    -0.359 OA
BRANCH   4  28
ATOM     28  C   UNL     1       7.017  10.272   2.766  0.00  0.00    +0.280 C 
BRANCH  28  29
ATOM      6  O   UNL     1       4.619   9.883   2.711  0.00  0.00    -0.248 OA
ATOM     29  C   UNL     1       5.638  10.117   3.345  0.00  0.00    +0.331 C 
BRANCH  29   5
ATOM      5  O   UNL     1       5.675  10.274   4.692  0.00  0.00    -0.479 OA
ATOM     31  H   UNL     1       5.518   9.428   5.163  0.00  0.00    +0.295 HD
ENDBRANCH  29   5
ENDBRANCH  28  29
ENDBRANCH   4  28
ENDBRANCH  22   4
ENDBRANCH  18  22
TORSDOF 7
ENDMDL
MODEL 8
REMARK VINA RESULT:      -5.7     27.901     29.509
REMARK  Name = 7144228
REMARK  8 active torsions:
REMARK  status: ('A' for Active; 'I' for Inactive)
REMARK    1  A    between atoms: S_1  and  C_27
REMARK    2  A    between atoms: S_1  and  C_30
REMARK    3  A    between atoms: O_4  and  C_22
REMARK    4  A    between atoms: O_4  and  C_28
REMARK    5  A    between atoms: O_5  and  C_29
REMARK    6  A    between atoms: C_16  and  C_21
REMARK    7  A    between atoms: C_18  and  C_22
REMARK    8  A    between atoms: C_28  and  C_29
REMARK                            x       y       z     vdW  Elec       q    Type
REMARK                         _______ _______ _______ _____ _____    ______ ____
ROOT
ATOM      2  O   UNL     1      -7.724 -14.881  17.450  0.00  0.00    -0.268 OA
ATOM      3  O   UNL     1      -9.289  -9.934  18.355  0.00  0.00    -0.273 OA
ATOM      7  N   UNL     1      -7.086  -9.936  17.617  0.00  0.00    -0.299 N 
ATOM      8  N   UNL     1      -6.438 -12.983  16.970  0.00  0.00    -0.311 N 
ATOM      9  C   UNL     1      -5.539 -11.465  18.830  0.00  0.00    +0.027 C 
ATOM     10  C   UNL     1      -5.101 -10.912  16.476  0.00  0.00    +0.054 C 
ATOM     11  C   UNL     1      -4.438 -11.138  17.833  0.00  0.00    +0.018 C 
ATOM     12  C   UNL     1      -6.550 -10.310  18.926  0.00  0.00    +0.113 C 
ATOM     13  C   UNL     1      -6.206 -12.774  18.405  0.00  0.00    +0.130 C 
ATOM     14  C   UNL     1      -6.076  -9.720  16.573  0.00  0.00    +0.117 C 
ATOM     15  C   UNL     1      -5.840 -12.162  15.992  0.00  0.00    +0.034 A 
ATOM     16  C   UNL     1      -5.958 -12.482  14.677  0.00  0.00    +0.002 A 
ATOM     17  C   UNL     1      -7.192 -14.123  16.638  0.00  0.00    +0.252 A 
ATOM     18  C   UNL     1      -8.459  -9.745  17.461  0.00  0.00    +0.241 C 
ATOM     19  C   UNL     1      -6.733 -13.648  14.297  0.00  0.00    +0.015 A 
ATOM     20  C   UNL     1      -7.334 -14.427  15.197  0.00  0.00    +0.071 A 
ENDROOT
BRANCH  16  21
ATOM     21  C   UNL     1      -5.334 -11.661  13.616  0.00  0.00    -0.016 A 
ATOM     23  C   UNL     1      -4.010 -11.889  13.254  0.00  0.00    +0.009 A 
ATOM     24  C   UNL     1      -6.076 -10.666  12.987  0.00  0.00    +0.009 A 
ATOM     25  C   UNL     1      -3.422 -11.115  12.253  0.00  0.00    +0.015 A 
ATOM     26  C   UNL     1      -5.488  -9.891  11.987  0.00  0.00    +0.015 A 
ATOM     27  C   UNL     1      -4.161 -10.116  11.620  0.00  0.00    +0.008 A 
BRANCH  27   1
ATOM      1  S   UNL     1      -3.410  -9.126  10.343  0.00  0.00    -0.129 S 
ATOM     30  C   UNL     1      -4.567  -9.364   8.963  0.00  0.00    +0.090 C 
ENDBRANCH  27   1
ENDBRANCH  16  21
BRANCH  18  22
ATOM     22  C   UNL     1      -8.928  -9.289  16.104  0.00  0.00    +0.256 C 
BRANCH  22   4
ATOM      4  O   UNL     1      -9.262  -7.928  16.229  0.00  0.00    -0.359 OA
BRANCH   4  28
ATOM     28  C   UNL     1     -10.664  -7.704  16.087  0.00  0.00    +0.280 C 
BRANCH  28  29
ATOM      6  O   UNL     1     -12.006  -5.782  15.451  0.00  0.00    -0.248 OA
ATOM     29  C   UNL     1     -10.911  -6.297  15.619  0.00  0.00    +0.331 C 
BRANCH  29   5
ATOM      5  O   UNL     1      -9.732  -5.661  15.404  0.00  0.00    -0.479 OA
ATOM     31  H   UNL     1      -8.982  -6.126  15.832  0.00  0.00    +0.295 HD
ENDBRANCH  29   5
ENDBRANCH  28  29
ENDBRANCH   4  28
ENDBRANCH  22   4
ENDBRANCH  18  22
TORSDOF 7
ENDMDL
MODEL 9
REMARK VINA RESULT:      -5.7     26.421     29.351
REMARK  Name = 7144228
REMARK  8 active torsions:
REMARK  status: ('A' for Active; 'I' for Inactive)
REMARK    1  A    between atoms: S_1  and  C_27
REMARK    2  A    between atoms: S_1  and  C_30
REMARK    3  A    between atoms: O_4  and  C_22
REMARK    4  A    between atoms: O_4  and  C_28
REMARK    5  A    between atoms: O_5  and  C_29
REMARK    6  A    between atoms: C_16  and  C_21
REMARK    7  A    between atoms: C_18  and  C_22
REMARK    8  A    between atoms: C_28  and  C_29
REMARK                            x       y       z     vdW  Elec       q    Type
REMARK                         _______ _______ _______ _____ _____    ______ ____
ROOT
ATOM      2  O   UNL     1      -1.528 -10.680  16.712  0.00  0.00    -0.268 OA
ATOM      3  O   UNL     1      -4.977 -14.651  16.439  0.00  0.00    -0.273 OA
ATOM      7  N   UNL     1      -5.739 -12.862  15.166  0.00  0.00    -0.299 N 
ATOM      8  N   UNL     1      -3.425 -10.685  15.339  0.00  0.00    -0.311 N 
ATOM      9  C   UNL     1      -5.793 -10.656  16.322  0.00  0.00    +0.027 C 
ATOM     10  C   UNL     1      -5.476 -10.744  13.886  0.00  0.00    +0.054 C 
ATOM     11  C   UNL     1      -6.172  -9.982  15.012  0.00  0.00    +0.018 C 
ATOM     12  C   UNL     1      -6.240 -12.128  16.328  0.00  0.00    +0.113 C 
ATOM     13  C   UNL     1      -4.283 -10.517  16.520  0.00  0.00    +0.130 C 
ATOM     14  C   UNL     1      -5.969 -12.205  13.873  0.00  0.00    +0.117 C 
ATOM     15  C   UNL     1      -3.953 -10.700  14.032  0.00  0.00    +0.034 A 
ATOM     16  C   UNL     1      -3.113 -10.705  12.964  0.00  0.00    +0.002 A 
ATOM     17  C   UNL     1      -2.042 -10.706  15.594  0.00  0.00    +0.252 A 
ATOM     18  C   UNL     1      -5.161 -14.119  15.340  0.00  0.00    +0.241 C 
ATOM     19  C   UNL     1      -1.680 -10.731  13.189  0.00  0.00    +0.015 A 
ATOM     20  C   UNL     1      -1.152 -10.746  14.412  0.00  0.00    +0.071 A 
ENDROOT
BRANCH  16  21
ATOM     21  C   UNL     1      -3.620 -10.704  11.574  0.00  0.00    -0.016 A 
ATOM     23  C   UNL     1      -3.727 -11.902  10.876  0.00  0.00    +0.009 A 
ATOM     24  C   UNL     1      -3.985  -9.502  10.973  0.00  0.00    +0.009 A 
ATOM     25  C   UNL     1      -4.205 -11.901   9.566  0.00  0.00    +0.015 A 
ATOM     26  C   UNL     1      -4.463  -9.501   9.663  0.00  0.00    +0.015 A 
ATOM     27  C   UNL     1      -4.573 -10.700   8.959  0.00  0.00    +0.008 A 
BRANCH  27   1
ATOM      1  S   UNL     1      -5.181 -10.697   7.284  0.00  0.00    -0.129 S 
ATOM     30  C   UNL     1      -5.632 -12.441   7.052  0.00  0.00    +0.090 C 
ENDBRANCH  27   1
ENDBRANCH  16  21
BRANCH  18  22
ATOM     22  C   UNL     1      -4.736 -14.846  14.089  0.00  0.00    +0.256 C 
BRANCH  22   4
ATOM      4  O   UNL     1      -3.419 -15.289  14.310  0.00  0.00    -0.359 OA
BRANCH   4  28
ATOM     28  C   UNL     1      -2.456 -14.278  14.017  0.00  0.00    +0.280 C 
BRANCH  28  29
ATOM      6  O   UNL     1      -0.308 -15.220  13.384  0.00  0.00    -0.248 OA
ATOM     29  C   UNL     1      -1.420 -14.820  13.072  0.00  0.00    +0.331 C 
BRANCH  29   5
ATOM      5  O   UNL     1      -1.892 -14.806  11.800  0.00  0.00    -0.479 OA
ATOM     31  H   UNL     1      -2.280 -13.936  11.563  0.00  0.00    +0.295 HD
ENDBRANCH  29   5
ENDBRANCH  28  29
ENDBRANCH   4  28
ENDBRANCH  22   4
ENDBRANCH  18  22
TORSDOF 7
ENDMDL
MODEL 10
REMARK VINA RESULT:      -5.6     15.706     18.898
REMARK  Name = 7144228
REMARK  8 active torsions:
REMARK  status: ('A' for Active; 'I' for Inactive)
REMARK    1  A    between atoms: S_1  and  C_27
REMARK    2  A    between atoms: S_1  and  C_30
REMARK    3  A    between atoms: O_4  and  C_22
REMARK    4  A    between atoms: O_4  and  C_28
REMARK    5  A    between atoms: O_5  and  C_29
REMARK    6  A    between atoms: C_16  and  C_21
REMARK    7  A    between atoms: C_18  and  C_22
REMARK    8  A    between atoms: C_28  and  C_29
REMARK                            x       y       z     vdW  Elec       q    Type
REMARK                         _______ _______ _______ _____ _____    ______ ____
ROOT
ATOM      2  O   UNL     1      10.247   6.067   7.717  0.00  0.00    -0.268 OA
ATOM      3  O   UNL     1       9.410  10.396   4.835  0.00  0.00    -0.273 OA
ATOM      7  N   UNL     1      11.163   9.174   3.923  0.00  0.00    -0.299 N 
ATOM      8  N   UNL     1      11.353   6.547   5.709  0.00  0.00    -0.311 N 
ATOM      9  C   UNL     1      12.972   8.525   5.509  0.00  0.00    +0.027 C 
ATOM     10  C   UNL     1      12.510   7.114   3.550  0.00  0.00    +0.054 C 
ATOM     11  C   UNL     1      13.626   7.693   4.418  0.00  0.00    +0.018 C 
ATOM     12  C   UNL     1      12.137   9.664   4.900  0.00  0.00    +0.113 C 
ATOM     13  C   UNL     1      12.124   7.600   6.383  0.00  0.00    +0.130 C 
ATOM     14  C   UNL     1      11.710   8.266   2.907  0.00  0.00    +0.117 C 
ATOM     15  C   UNL     1      11.576   6.209   4.359  0.00  0.00    +0.034 A 
ATOM     16  C   UNL     1      10.950   5.131   3.819  0.00  0.00    +0.002 A 
ATOM     17  C   UNL     1      10.469   5.825   6.531  0.00  0.00    +0.252 A 
ATOM     18  C   UNL     1       9.847   9.632   3.969  0.00  0.00    +0.241 C 
ATOM     19  C   UNL     1      10.028   4.365   4.635  0.00  0.00    +0.015 A 
ATOM     20  C   UNL     1       9.774   4.677   5.906  0.00  0.00    +0.071 A 
ENDROOT
BRANCH  16  21
ATOM     21  C   UNL     1      11.167   4.727   2.412  0.00  0.00    -0.016 A 
ATOM     23  C   UNL     1      12.264   3.939   2.080  0.00  0.00    +0.009 A 
ATOM     24  C   UNL     1      10.271   5.139   1.430  0.00  0.00    +0.009 A 
ATOM     25  C   UNL     1      12.468   3.558   0.754  0.00  0.00    +0.015 A 
ATOM     26  C   UNL     1      10.475   4.759   0.104  0.00  0.00    +0.015 A 
ATOM     27  C   UNL     1      11.573   3.968  -0.234  0.00  0.00    +0.008 A 
BRANCH  27   1
ATOM      1  S   UNL     1      11.834   3.484  -1.929  0.00  0.00    -0.129 S 
ATOM     30  C   UNL     1      13.396   4.325  -2.317  0.00  0.00    +0.090 C 
ENDBRANCH  27   1
ENDBRANCH  16  21
BRANCH  18  22
ATOM     22  C   UNL     1       8.922   9.140   2.886  0.00  0.00    +0.256 C 
BRANCH  22   4
ATOM      4  O   UNL     1       8.030  10.192   2.609  0.00  0.00    -0.359 OA
BRANCH   4  28
ATOM     28  C   UNL     1       6.741   9.716   2.224  0.00  0.00    +0.280 C 
BRANCH  28  29
ATOM      6  O   UNL     1       5.989  10.374   4.439  0.00  0.00    -0.248 OA
ATOM     29  C   UNL     1       5.733  10.061   3.285  0.00  0.00    +0.331 C 
BRANCH  29   5
ATOM      5  O   UNL     1       4.476   9.978   2.782  0.00  0.00    -0.479 OA
ATOM     31  H   UNL     1       3.985   9.212   3.148  0.00  0.00    +0.295 HD
ENDBRANCH  29   5
ENDBRANCH  28  29
ENDBRANCH   4  28
ENDBRANCH  22   4
ENDBRANCH  18  22
TORSDOF 7
ENDMDL
