MODEL 1
REMARK VINA RESULT:      -7.8      0.000      0.000
REMARK  Name = 7050142
REMARK  11 active torsions:
REMARK  status: ('A' for Active; 'I' for Inactive)
REMARK    1  A    between atoms: O_1  and  C_11
REMARK    2  A    between atoms: O_2  and  C_12
REMARK    3  A    between atoms: O_6  and  C_30
REMARK    4  A    between atoms: O_6  and  C_33
REMARK    5  A    between atoms: N_7  and  C_13
REMARK    6  A    between atoms: N_8  and  C_18
REMARK    7  A    between atoms: C_15  and  C_17
REMARK    8  A    between atoms: C_18  and  C_20
REMARK    9  A    between atoms: C_18  and  C_22
REMARK   10  A    between atoms: C_19  and  C_23
REMARK   11  A    between atoms: C_20  and  C_21
REMARK                            x       y       z     vdW  Elec       q    Type
REMARK                         _______ _______ _______ _____ _____    ______ ____
ROOT
ATOM     11  C   UNL     1      10.822   7.447  21.403  0.00  0.00    +0.167 C 
ATOM     12  C   UNL     1      11.444   6.246  20.682  0.00  0.00    +0.149 C 
ATOM     13  C   UNL     1      11.833   8.124  22.350  0.00  0.00    +0.128 C 
ATOM     14  C   UNL     1      12.720   6.630  19.912  0.00  0.00    +0.074 C 
ATOM     15  C   UNL     1      13.578   7.625  20.641  0.00  0.00    +0.015 C 
ATOM     16  C   UNL     1      13.197   8.295  21.739  0.00  0.00    +0.006 C 
ENDROOT
BRANCH  15  17
ATOM      3  O   UNL     1      15.197   8.891  19.501  0.00  0.00    -0.271 OA
ATOM      8  N   UNL     1      15.818   6.854  20.449  0.00  0.00    -0.300 N 
ATOM     17  C   UNL     1      14.933   7.870  20.135  0.00  0.00    +0.241 C 
ATOM     37  H   UNL     1      15.467   6.014  20.902  0.00  0.00    +0.150 HD
BRANCH   8  18
ATOM     18  C   UNL     1      17.209   6.869  20.055  0.00  0.00    +0.163 C 
BRANCH  18  22
ATOM      5  O   UNL     1      16.574   5.607  18.077  0.00  0.00    -0.274 OA
ATOM      9  N   UNL     1      18.571   5.115  19.101  0.00  0.00    -0.328 N 
ATOM     22  C   UNL     1      17.382   5.805  18.982  0.00  0.00    +0.231 C 
ATOM     38  H   UNL     1      18.818   4.387  18.439  0.00  0.00    +0.145 HD
ATOM     39  H   UNL     1      19.231   5.291  19.851  0.00  0.00    +0.145 HD
ENDBRANCH  18  22
BRANCH  18  20
ATOM     20  C   UNL     1      18.147   6.595  21.236  0.00  0.00    +0.067 C 
BRANCH  20  21
ATOM     21  C   UNL     1      18.774   7.852  21.788  0.00  0.00    -0.045 A 
ATOM     24  C   UNL     1      19.826   7.765  22.700  0.00  0.00    +0.007 A 
ATOM     25  C   UNL     1      18.299   9.100  21.387  0.00  0.00    +0.007 A 
ATOM     28  C   UNL     1      20.404   8.928  23.211  0.00  0.00    +0.046 A 
ATOM     29  C   UNL     1      18.878  10.263  21.897  0.00  0.00    +0.046 A 
ATOM     30  C   UNL     1      19.930  10.176  22.809  0.00  0.00    +0.120 A 
BRANCH  30   6
ATOM      6  O   UNL     1      20.495  11.311  23.306  0.00  0.00    -0.495 OA
ATOM     33  C   UNL     1      20.767  11.341  24.706  0.00  0.00    +0.277 C 
ENDBRANCH  30   6
ENDBRANCH  20  21
ENDBRANCH  18  20
ENDBRANCH   8  18
ENDBRANCH  15  17
BRANCH  13   7
ATOM      4  O   UNL     1      12.136  10.636  20.992  0.00  0.00    -0.270 OA
ATOM      7  N   UNL     1      11.359   9.410  22.802  0.00  0.00    -0.302 N 
ATOM     19  C   UNL     1      11.554  10.574  22.073  0.00  0.00    +0.246 C 
ATOM     34  H   UNL     1      10.951   9.453  23.729  0.00  0.00    +0.150 HD
BRANCH  19  23
ATOM     10  N   UNL     1      10.214  12.972  24.650  0.00  0.00    -0.263 NA
ATOM     23  C   UNL     1      11.030  11.821  22.687  0.00  0.00    +0.055 A 
ATOM     26  C   UNL     1      10.858  12.974  21.930  0.00  0.00    +0.016 A 
ATOM     27  C   UNL     1      10.696  11.871  24.031  0.00  0.00    +0.123 A 
ATOM     31  C   UNL     1      10.365  14.127  22.532  0.00  0.00    +0.020 A 
ATOM     32  C   UNL     1      10.061  14.074  23.883  0.00  0.00    +0.111 A 
ENDBRANCH  19  23
ENDBRANCH  13   7
BRANCH  11   1
ATOM      1  O   UNL     1      10.375   8.390  20.425  0.00  0.00    -0.387 OA
ATOM     35  H   UNL     1       9.687   8.937  20.839  0.00  0.00    +0.210 HD
ENDBRANCH  11   1
BRANCH  12   2
ATOM      2  O   UNL     1      11.731   5.207  21.615  0.00  0.00    -0.389 OA
ATOM     36  H   UNL     1      11.317   4.391  21.284  0.00  0.00    +0.210 HD
ENDBRANCH  12   2
TORSDOF 10
ENDMDL
MODEL 2
REMARK VINA RESULT:      -7.3     14.817     18.306
REMARK  Name = 7050142
REMARK  11 active torsions:
REMARK  status: ('A' for Active; 'I' for Inactive)
REMARK    1  A    between atoms: O_1  and  C_11
REMARK    2  A    between atoms: O_2  and  C_12
REMARK    3  A    between atoms: O_6  and  C_30
REMARK    4  A    between atoms: O_6  and  C_33
REMARK    5  A    between atoms: N_7  and  C_13
REMARK    6  A    between atoms: N_8  and  C_18
REMARK    7  A    between atoms: C_15  and  C_17
REMARK    8  A    between atoms: C_18  and  C_20
REMARK    9  A    between atoms: C_18  and  C_22
REMARK   10  A    between atoms: C_19  and  C_23
REMARK   11  A    between atoms: C_20  and  C_21
REMARK                            x       y       z     vdW  Elec       q    Type
REMARK                         _______ _______ _______ _____ _____    ______ ____
ROOT
ATOM     11  C   UNL     1      14.549   7.561   3.345  0.00  0.00    +0.167 C 
ATOM     12  C   UNL     1      13.017   7.554   3.283  0.00  0.00    +0.149 C 
ATOM     13  C   UNL     1      15.058   8.156   4.672  0.00  0.00    +0.128 C 
ATOM     14  C   UNL     1      12.392   6.809   4.475  0.00  0.00    +0.074 C 
ATOM     15  C   UNL     1      13.113   7.050   5.771  0.00  0.00    +0.015 C 
ATOM     16  C   UNL     1      14.303   7.660   5.875  0.00  0.00    +0.006 C 
ENDROOT
BRANCH  15  17
ATOM      3  O   UNL     1      13.137   6.234   7.974  0.00  0.00    -0.271 OA
ATOM      8  N   UNL     1      11.086   6.668   6.954  0.00  0.00    -0.300 N 
ATOM     17  C   UNL     1      12.468   6.609   7.013  0.00  0.00    +0.241 C 
ATOM     37  H   UNL     1      10.639   6.911   6.074  0.00  0.00    +0.150 HD
BRANCH   8  18
ATOM     18  C   UNL     1      10.232   6.282   8.054  0.00  0.00    +0.163 C 
BRANCH  18  22
ATOM      5  O   UNL     1       9.945   4.049   8.968  0.00  0.00    -0.274 OA
ATOM      9  N   UNL     1      10.011   4.302   6.686  0.00  0.00    -0.328 N 
ATOM     22  C   UNL     1      10.065   4.772   7.982  0.00  0.00    +0.231 C 
ATOM     38  H   UNL     1       9.886   3.313   6.497  0.00  0.00    +0.145 HD
ATOM     39  H   UNL     1      10.107   4.910   5.880  0.00  0.00    +0.145 HD
ENDBRANCH  18  22
BRANCH  18  20
ATOM     20  C   UNL     1       8.866   6.974   7.996  0.00  0.00    +0.067 C 
BRANCH  20  21
ATOM     21  C   UNL     1       8.667   7.769   6.729  0.00  0.00    -0.045 A 
ATOM     24  C   UNL     1       8.948   9.135   6.710  0.00  0.00    +0.007 A 
ATOM     25  C   UNL     1       8.201   7.136   5.576  0.00  0.00    +0.007 A 
ATOM     28  C   UNL     1       8.763   9.869   5.538  0.00  0.00    +0.046 A 
ATOM     29  C   UNL     1       8.017   7.871   4.404  0.00  0.00    +0.046 A 
ATOM     30  C   UNL     1       8.298   9.237   4.386  0.00  0.00    +0.120 A 
BRANCH  30   6
ATOM      6  O   UNL     1       8.118   9.953   3.241  0.00  0.00    -0.495 OA
ATOM     33  C   UNL     1       6.981   9.628   2.443  0.00  0.00    +0.277 C 
ENDBRANCH  30   6
ENDBRANCH  20  21
ENDBRANCH  18  20
ENDBRANCH   8  18
ENDBRANCH  15  17
BRANCH  13   7
ATOM      4  O   UNL     1      16.987   9.953   5.809  0.00  0.00    -0.270 OA
ATOM      7  N   UNL     1      16.464   7.900   4.865  0.00  0.00    -0.302 N 
ATOM     19  C   UNL     1      17.322   8.835   5.426  0.00  0.00    +0.246 C 
ATOM     34  H   UNL     1      16.833   7.032   4.489  0.00  0.00    +0.150 HD
BRANCH  19  23
ATOM     10  N   UNL     1      20.722   7.524   4.471  0.00  0.00    -0.263 NA
ATOM     23  C   UNL     1      18.747   8.428   5.533  0.00  0.00    +0.055 A 
ATOM     26  C   UNL     1      19.439   8.551   6.732  0.00  0.00    +0.016 A 
ATOM     27  C   UNL     1      19.428   7.913   4.441  0.00  0.00    +0.123 A 
ATOM     31  C   UNL     1      20.772   8.162   6.803  0.00  0.00    +0.020 A 
ATOM     32  C   UNL     1      21.363   7.660   5.654  0.00  0.00    +0.111 A 
ENDBRANCH  19  23
ENDBRANCH  13   7
BRANCH  11   1
ATOM      1  O   UNL     1      15.020   6.218   3.210  0.00  0.00    -0.387 OA
ATOM     35  H   UNL     1      15.797   6.238   2.627  0.00  0.00    +0.210 HD
ENDBRANCH  11   1
BRANCH  12   2
ATOM      2  O   UNL     1      12.521   8.890   3.227  0.00  0.00    -0.389 OA
ATOM     36  H   UNL     1      12.753   9.254   2.355  0.00  0.00    +0.210 HD
ENDBRANCH  12   2
TORSDOF 10
ENDMDL
MODEL 3
REMARK VINA RESULT:      -7.3      2.738      3.673
REMARK  Name = 7050142
REMARK  11 active torsions:
REMARK  status: ('A' for Active; 'I' for Inactive)
REMARK    1  A    between atoms: O_1  and  C_11
REMARK    2  A    between atoms: O_2  and  C_12
REMARK    3  A    between atoms: O_6  and  C_30
REMARK    4  A    between atoms: O_6  and  C_33
REMARK    5  A    between atoms: N_7  and  C_13
REMARK    6  A    between atoms: N_8  and  C_18
REMARK    7  A    between atoms: C_15  and  C_17
REMARK    8  A    between atoms: C_18  and  C_20
REMARK    9  A    between atoms: C_18  and  C_22
REMARK   10  A    between atoms: C_19  and  C_23
REMARK   11  A    between atoms: C_20  and  C_21
REMARK                            x       y       z     vdW  Elec       q    Type
REMARK                         _______ _______ _______ _____ _____    ______ ____
ROOT
ATOM     11  C   UNL     1      12.282   8.436  20.054  0.00  0.00    +0.167 C 
ATOM     12  C   UNL     1      12.820   7.202  19.321  0.00  0.00    +0.149 C 
ATOM     13  C   UNL     1      12.602   8.384  21.560  0.00  0.00    +0.128 C 
ATOM     14  C   UNL     1      14.332   7.013  19.538  0.00  0.00    +0.074 C 
ATOM     15  C   UNL     1      14.778   7.339  20.935  0.00  0.00    +0.015 C 
ATOM     16  C   UNL     1      14.011   7.945  21.854  0.00  0.00    +0.006 C 
ENDROOT
BRANCH  15  17
ATOM      3  O   UNL     1      16.393   5.799  21.670  0.00  0.00    -0.271 OA
ATOM      8  N   UNL     1      17.032   8.008  21.286  0.00  0.00    -0.300 N 
ATOM     17  C   UNL     1      16.136   6.954  21.334  0.00  0.00    +0.241 C 
ATOM     37  H   UNL     1      16.687   8.941  21.078  0.00  0.00    +0.150 HD
BRANCH   8  18
ATOM     18  C   UNL     1      18.427   7.874  21.638  0.00  0.00    +0.163 C 
BRANCH  18  22
ATOM      5  O   UNL     1      19.120  10.087  20.911  0.00  0.00    -0.274 OA
ATOM      9  N   UNL     1      19.259   9.570  23.145  0.00  0.00    -0.328 N 
ATOM     22  C   UNL     1      18.979   9.279  21.826  0.00  0.00    +0.231 C 
ATOM     38  H   UNL     1      19.619  10.481  23.410  0.00  0.00    +0.145 HD
ATOM     39  H   UNL     1      19.134   8.895  23.892  0.00  0.00    +0.145 HD
ENDBRANCH  18  22
BRANCH  18  20
ATOM     20  C   UNL     1      19.225   7.125  20.564  0.00  0.00    +0.067 C 
BRANCH  20  21
ATOM     21  C   UNL     1      20.228   6.159  21.148  0.00  0.00    -0.045 A 
ATOM     24  C   UNL     1      20.866   6.458  22.351  0.00  0.00    +0.007 A 
ATOM     25  C   UNL     1      20.515   4.968  20.482  0.00  0.00    +0.007 A 
ATOM     28  C   UNL     1      21.792   5.565  22.890  0.00  0.00    +0.046 A 
ATOM     29  C   UNL     1      21.442   4.075  21.021  0.00  0.00    +0.046 A 
ATOM     30  C   UNL     1      22.080   4.374  22.225  0.00  0.00    +0.120 A 
BRANCH  30   6
ATOM      6  O   UNL     1      22.983   3.502  22.751  0.00  0.00    -0.495 OA
ATOM     33  C   UNL     1      22.519   2.623  23.774  0.00  0.00    +0.277 C 
ENDBRANCH  30   6
ENDBRANCH  20  21
ENDBRANCH  18  20
ENDBRANCH   8  18
ENDBRANCH  15  17
BRANCH  13   7
ATOM      4  O   UNL     1      10.145   9.278  22.746  0.00  0.00    -0.270 OA
ATOM      7  N   UNL     1      12.367   9.656  22.199  0.00  0.00    -0.302 N 
ATOM     19  C   UNL     1      11.140  10.000  22.746  0.00  0.00    +0.246 C 
ATOM     34  H   UNL     1      13.114  10.341  22.156  0.00  0.00    +0.150 HD
BRANCH  19  23
ATOM     10  N   UNL     1      10.916  12.735  25.325  0.00  0.00    -0.263 NA
ATOM     23  C   UNL     1      11.052  11.357  23.344  0.00  0.00    +0.055 A 
ATOM     26  C   UNL     1      11.021  12.492  22.543  0.00  0.00    +0.016 A 
ATOM     27  C   UNL     1      10.997  11.530  24.718  0.00  0.00    +0.123 A 
ATOM     31  C   UNL     1      10.938  13.750  23.131  0.00  0.00    +0.020 A 
ATOM     32  C   UNL     1      10.889  13.817  24.515  0.00  0.00    +0.111 A 
ENDBRANCH  19  23
ENDBRANCH  13   7
BRANCH  11   1
ATOM      1  O   UNL     1      12.871   9.605  19.479  0.00  0.00    -0.387 OA
ATOM     35  H   UNL     1      12.216   9.996  18.877  0.00  0.00    +0.210 HD
ENDBRANCH  11   1
BRANCH  12   2
ATOM      2  O   UNL     1      12.116   6.035  19.742  0.00  0.00    -0.389 OA
ATOM     36  H   UNL     1      11.251   6.037  19.298  0.00  0.00    +0.210 HD
ENDBRANCH  12   2
TORSDOF 10
ENDMDL
MODEL 4
REMARK VINA RESULT:      -7.2     17.225     20.955
REMARK  Name = 7050142
REMARK  11 active torsions:
REMARK  status: ('A' for Active; 'I' for Inactive)
REMARK    1  A    between atoms: O_1  and  C_11
REMARK    2  A    between atoms: O_2  and  C_12
REMARK    3  A    between atoms: O_6  and  C_30
REMARK    4  A    between atoms: O_6  and  C_33
REMARK    5  A    between atoms: N_7  and  C_13
REMARK    6  A    between atoms: N_8  and  C_18
REMARK    7  A    between atoms: C_15  and  C_17
REMARK    8  A    between atoms: C_18  and  C_20
REMARK    9  A    between atoms: C_18  and  C_22
REMARK   10  A    between atoms: C_19  and  C_23
REMARK   11  A    between atoms: C_20  and  C_21
REMARK                            x       y       z     vdW  Elec       q    Type
REMARK                         _______ _______ _______ _____ _____    ______ ____
ROOT
ATOM     11  C   UNL     1      16.005   7.575   1.914  0.00  0.00    +0.167 C 
ATOM     12  C   UNL     1      16.357   8.363   3.181  0.00  0.00    +0.149 C 
ATOM     13  C   UNL     1      15.116   6.357   2.235  0.00  0.00    +0.128 C 
ATOM     14  C   UNL     1      15.103   8.808   3.954  0.00  0.00    +0.074 C 
ATOM     15  C   UNL     1      14.012   7.775   3.964  0.00  0.00    +0.015 C 
ATOM     16  C   UNL     1      14.009   6.669   3.206  0.00  0.00    +0.006 C 
ENDROOT
BRANCH  15  17
ATOM      3  O   UNL     1      12.409   9.094   5.064  0.00  0.00    -0.271 OA
ATOM      8  N   UNL     1      12.449   6.798   5.464  0.00  0.00    -0.300 N 
ATOM     17  C   UNL     1      12.881   7.974   4.876  0.00  0.00    +0.241 C 
ATOM     37  H   UNL     1      12.974   5.942   5.302  0.00  0.00    +0.150 HD
BRANCH   8  18
ATOM     18  C   UNL     1      11.351   6.741   6.402  0.00  0.00    +0.163 C 
BRANCH  18  22
ATOM      5  O   UNL     1      11.153   5.560   8.517  0.00  0.00    -0.274 OA
ATOM      9  N   UNL     1      13.252   6.060   7.730  0.00  0.00    -0.328 N 
ATOM     22  C   UNL     1      11.875   6.074   7.665  0.00  0.00    +0.231 C 
ATOM     38  H   UNL     1      13.731   5.631   8.514  0.00  0.00    +0.145 HD
ATOM     39  H   UNL     1      13.837   6.484   7.017  0.00  0.00    +0.145 HD
ENDBRANCH  18  22
BRANCH  18  20
ATOM     20  C   UNL     1      10.153   5.964   5.844  0.00  0.00    +0.067 C 
BRANCH  20  21
ATOM     21  C   UNL     1      10.209   5.803   4.345  0.00  0.00    -0.045 A 
ATOM     24  C   UNL     1      10.721   4.631   3.788  0.00  0.00    +0.007 A 
ATOM     25  C   UNL     1       9.748   6.826   3.517  0.00  0.00    +0.007 A 
ATOM     28  C   UNL     1      10.772   4.482   2.402  0.00  0.00    +0.046 A 
ATOM     29  C   UNL     1       9.799   6.676   2.130  0.00  0.00    +0.046 A 
ATOM     30  C   UNL     1      10.311   5.505   1.573  0.00  0.00    +0.120 A 
BRANCH  30   6
ATOM      6  O   UNL     1      10.360   5.359   0.220  0.00  0.00    -0.495 OA
ATOM     33  C   UNL     1      11.115   6.325  -0.510  0.00  0.00    +0.277 C 
ENDBRANCH  30   6
ENDBRANCH  20  21
ENDBRANCH  18  20
ENDBRANCH   8  18
ENDBRANCH  15  17
BRANCH  13   7
ATOM      4  O   UNL     1      15.016   3.573   1.540  0.00  0.00    -0.270 OA
ATOM      7  N   UNL     1      14.542   5.788   1.040  0.00  0.00    -0.302 N 
ATOM     19  C   UNL     1      14.541   4.424   0.791  0.00  0.00    +0.246 C 
ATOM     34  H   UNL     1      14.212   6.435   0.331  0.00  0.00    +0.150 HD
BRANCH  19  23
ATOM     10  N   UNL     1      13.919   4.118  -2.911  0.00  0.00    -0.263 NA
ATOM     23  C   UNL     1      13.934   3.999  -0.497  0.00  0.00    +0.055 A 
ATOM     26  C   UNL     1      12.857   3.121  -0.526  0.00  0.00    +0.016 A 
ATOM     27  C   UNL     1      14.425   4.465  -1.707  0.00  0.00    +0.123 A 
ATOM     31  C   UNL     1      12.310   2.740  -1.747  0.00  0.00    +0.020 A 
ATOM     32  C   UNL     1      12.873   3.262  -2.901  0.00  0.00    +0.111 A 
ENDBRANCH  19  23
ENDBRANCH  13   7
BRANCH  11   1
ATOM      1  O   UNL     1      15.320   8.443   1.009  0.00  0.00    -0.387 OA
ATOM     35  H   UNL     1      14.438   8.615   1.379  0.00  0.00    +0.210 HD
ENDBRANCH  11   1
BRANCH  12   2
ATOM      2  O   UNL     1      17.201   7.583   4.026  0.00  0.00    -0.389 OA
ATOM     36  H   UNL     1      16.636   6.957   4.510  0.00  0.00    +0.210 HD
ENDBRANCH  12   2
TORSDOF 10
ENDMDL
MODEL 5
REMARK VINA RESULT:      -7.2      2.906      7.605
REMARK  Name = 7050142
REMARK  11 active torsions:
REMARK  status: ('A' for Active; 'I' for Inactive)
REMARK    1  A    between atoms: O_1  and  C_11
REMARK    2  A    between atoms: O_2  and  C_12
REMARK    3  A    between atoms: O_6  and  C_30
REMARK    4  A    between atoms: O_6  and  C_33
REMARK    5  A    between atoms: N_7  and  C_13
REMARK    6  A    between atoms: N_8  and  C_18
REMARK    7  A    between atoms: C_15  and  C_17
REMARK    8  A    between atoms: C_18  and  C_20
REMARK    9  A    between atoms: C_18  and  C_22
REMARK   10  A    between atoms: C_19  and  C_23
REMARK   11  A    between atoms: C_20  and  C_21
REMARK                            x       y       z     vdW  Elec       q    Type
REMARK                         _______ _______ _______ _____ _____    ______ ____
ROOT
ATOM     11  C   UNL     1      13.807   6.614  20.938  0.00  0.00    +0.167 C 
ATOM     12  C   UNL     1      12.367   6.903  20.496  0.00  0.00    +0.149 C 
ATOM     13  C   UNL     1      14.803   6.802  19.777  0.00  0.00    +0.128 C 
ATOM     14  C   UNL     1      12.219   8.310  19.890  0.00  0.00    +0.074 C 
ATOM     15  C   UNL     1      13.387   8.716  19.037  0.00  0.00    +0.015 C 
ATOM     16  C   UNL     1      14.547   8.046  18.970  0.00  0.00    +0.006 C 
ENDROOT
BRANCH  15  17
ATOM      3  O   UNL     1      12.670   9.867  17.118  0.00  0.00    -0.271 OA
ATOM      8  N   UNL     1      13.829  11.036  18.768  0.00  0.00    -0.300 N 
ATOM     17  C   UNL     1      13.249   9.914  18.202  0.00  0.00    +0.241 C 
ATOM     37  H   UNL     1      14.358  10.937  19.630  0.00  0.00    +0.150 HD
BRANCH   8  18
ATOM     18  C   UNL     1      13.824  12.334  18.132  0.00  0.00    +0.163 C 
BRANCH  18  22
ATOM      5  O   UNL     1      15.615  11.934  16.539  0.00  0.00    -0.274 OA
ATOM      9  N   UNL     1      15.929  13.519  18.171  0.00  0.00    -0.328 N 
ATOM     22  C   UNL     1      15.203  12.540  17.525  0.00  0.00    +0.231 C 
ATOM     38  H   UNL     1      16.861  13.767  17.857  0.00  0.00    +0.145 HD
ATOM     39  H   UNL     1      15.576  14.015  18.982  0.00  0.00    +0.145 HD
ENDBRANCH  18  22
BRANCH  18  20
ATOM     20  C   UNL     1      13.499  13.461  19.118  0.00  0.00    +0.067 C 
BRANCH  20  21
ATOM     21  C   UNL     1      13.222  12.955  20.513  0.00  0.00    -0.045 A 
ATOM     24  C   UNL     1      11.938  12.536  20.861  0.00  0.00    +0.007 A 
ATOM     25  C   UNL     1      14.250  12.907  21.454  0.00  0.00    +0.007 A 
ATOM     28  C   UNL     1      11.682  12.069  22.150  0.00  0.00    +0.046 A 
ATOM     29  C   UNL     1      13.994  12.439  22.743  0.00  0.00    +0.046 A 
ATOM     30  C   UNL     1      12.710  12.020  23.090  0.00  0.00    +0.120 A 
BRANCH  30   6
ATOM      6  O   UNL     1      12.460  11.563  24.349  0.00  0.00    -0.495 OA
ATOM     33  C   UNL     1      11.109  11.235  24.665  0.00  0.00    +0.277 C 
ENDBRANCH  30   6
ENDBRANCH  20  21
ENDBRANCH  18  20
ENDBRANCH   8  18
ENDBRANCH  15  17
BRANCH  13   7
ATOM      4  O   UNL     1      17.040   5.442  18.599  0.00  0.00    -0.270 OA
ATOM      7  N   UNL     1      16.167   6.823  20.246  0.00  0.00    -0.302 N 
ATOM     19  C   UNL     1      17.185   6.130  19.607  0.00  0.00    +0.246 C 
ATOM     34  H   UNL     1      16.348   7.295  21.125  0.00  0.00    +0.150 HD
BRANCH  19  23
ATOM     10  N   UNL     1      20.710   5.256  20.605  0.00  0.00    -0.263 NA
ATOM     23  C   UNL     1      18.531   6.232  20.228  0.00  0.00    +0.055 A 
ATOM     26  C   UNL     1      18.886   7.339  20.989  0.00  0.00    +0.016 A 
ATOM     27  C   UNL     1      19.470   5.226  20.067  0.00  0.00    +0.123 A 
ATOM     31  C   UNL     1      20.153   7.407  21.559  0.00  0.00    +0.020 A 
ATOM     32  C   UNL     1      21.021   6.348  21.339  0.00  0.00    +0.111 A 
ENDBRANCH  19  23
ENDBRANCH  13   7
BRANCH  11   1
ATOM      1  O   UNL     1      14.145   7.499  22.009  0.00  0.00    -0.387 OA
ATOM     35  H   UNL     1      14.595   6.973  22.691  0.00  0.00    +0.210 HD
ENDBRANCH  11   1
BRANCH  12   2
ATOM      2  O   UNL     1      11.934   5.919  19.559  0.00  0.00    -0.389 OA
ATOM     36  H   UNL     1      11.204   5.423  19.970  0.00  0.00    +0.210 HD
ENDBRANCH  12   2
TORSDOF 10
ENDMDL
MODEL 6
REMARK VINA RESULT:      -7.2      3.995      4.900
REMARK  Name = 7050142
REMARK  11 active torsions:
REMARK  status: ('A' for Active; 'I' for Inactive)
REMARK    1  A    between atoms: O_1  and  C_11
REMARK    2  A    between atoms: O_2  and  C_12
REMARK    3  A    between atoms: O_6  and  C_30
REMARK    4  A    between atoms: O_6  and  C_33
REMARK    5  A    between atoms: N_7  and  C_13
REMARK    6  A    between atoms: N_8  and  C_18
REMARK    7  A    between atoms: C_15  and  C_17
REMARK    8  A    between atoms: C_18  and  C_20
REMARK    9  A    between atoms: C_18  and  C_22
REMARK   10  A    between atoms: C_19  and  C_23
REMARK   11  A    between atoms: C_20  and  C_21
REMARK                            x       y       z     vdW  Elec       q    Type
REMARK                         _______ _______ _______ _____ _____    ______ ____
ROOT
ATOM     11  C   UNL     1      11.923   7.852  20.527  0.00  0.00    +0.167 C 
ATOM     12  C   UNL     1      12.479   6.860  19.498  0.00  0.00    +0.149 C 
ATOM     13  C   UNL     1      12.599   9.232  20.403  0.00  0.00    +0.128 C 
ATOM     14  C   UNL     1      12.353   7.387  18.058  0.00  0.00    +0.074 C 
ATOM     15  C   UNL     1      12.625   8.860  17.938  0.00  0.00    +0.015 C 
ATOM     16  C   UNL     1      12.746   9.697  18.980  0.00  0.00    +0.006 C 
ENDROOT
BRANCH  15  17
ATOM      3  O   UNL     1      12.069   9.067  15.664  0.00  0.00    -0.271 OA
ATOM      8  N   UNL     1      13.811  10.357  16.522  0.00  0.00    -0.300 N 
ATOM     17  C   UNL     1      12.790   9.425  16.594  0.00  0.00    +0.241 C 
ATOM     37  H   UNL     1      14.400  10.508  17.336  0.00  0.00    +0.150 HD
BRANCH   8  18
ATOM     18  C   UNL     1      14.165  11.046  15.303  0.00  0.00    +0.163 C 
BRANCH  18  22
ATOM      5  O   UNL     1      15.177   9.033  14.391  0.00  0.00    -0.274 OA
ATOM      9  N   UNL     1      16.353  11.003  14.277  0.00  0.00    -0.328 N 
ATOM     22  C   UNL     1      15.264  10.235  14.632  0.00  0.00    +0.231 C 
ATOM     38  H   UNL     1      17.150  10.588  13.807  0.00  0.00    +0.145 HD
ATOM     39  H   UNL     1      16.410  11.996  14.478  0.00  0.00    +0.145 HD
ENDBRANCH  18  22
BRANCH  18  20
ATOM     20  C   UNL     1      14.643  12.479  15.566  0.00  0.00    +0.067 C 
BRANCH  20  21
ATOM     21  C   UNL     1      14.932  12.739  17.024  0.00  0.00    -0.045 A 
ATOM     24  C   UNL     1      13.936  13.258  17.851  0.00  0.00    +0.007 A 
ATOM     25  C   UNL     1      16.196  12.461  17.544  0.00  0.00    +0.007 A 
ATOM     28  C   UNL     1      14.204  13.499  19.199  0.00  0.00    +0.046 A 
ATOM     29  C   UNL     1      16.464  12.702  18.892  0.00  0.00    +0.046 A 
ATOM     30  C   UNL     1      15.468  13.221  19.719  0.00  0.00    +0.120 A 
BRANCH  30   6
ATOM      6  O   UNL     1      15.729  13.455  21.035  0.00  0.00    -0.495 OA
ATOM     33  C   UNL     1      14.621  13.792  21.868  0.00  0.00    +0.277 C 
ENDBRANCH  30   6
ENDBRANCH  20  21
ENDBRANCH  18  20
ENDBRANCH   8  18
ENDBRANCH  15  17
BRANCH  13   7
ATOM      4  O   UNL     1      13.487  10.522  22.810  0.00  0.00    -0.270 OA
ATOM      7  N   UNL     1      11.889  10.240  21.152  0.00  0.00    -0.302 N 
ATOM     19  C   UNL     1      12.402  10.808  22.309  0.00  0.00    +0.246 C 
ATOM     34  H   UNL     1      10.945  10.462  20.852  0.00  0.00    +0.150 HD
BRANCH  19  23
ATOM     10  N   UNL     1      10.407  12.560  24.981  0.00  0.00    -0.263 NA
ATOM     23  C   UNL     1      11.537  11.814  22.979  0.00  0.00    +0.055 A 
ATOM     26  C   UNL     1      11.051  12.916  22.285  0.00  0.00    +0.016 A 
ATOM     27  C   UNL     1      11.189  11.682  24.314  0.00  0.00    +0.123 A 
ATOM     31  C   UNL     1      10.244  13.841  22.937  0.00  0.00    +0.020 A 
ATOM     32  C   UNL     1       9.954  13.620  24.275  0.00  0.00    +0.111 A 
ENDBRANCH  19  23
ENDBRANCH  13   7
BRANCH  11   1
ATOM      1  O   UNL     1      10.515   7.987  20.320  0.00  0.00    -0.387 OA
ATOM     35  H   UNL     1      10.070   7.658  21.119  0.00  0.00    +0.210 HD
ENDBRANCH  11   1
BRANCH  12   2
ATOM      2  O   UNL     1      13.842   6.560  19.791  0.00  0.00    -0.389 OA
ATOM     36  H   UNL     1      14.196   6.041  19.048  0.00  0.00    +0.210 HD
ENDBRANCH  12   2
TORSDOF 10
ENDMDL
MODEL 7
REMARK VINA RESULT:      -7.1     26.576     30.009
REMARK  Name = 7050142
REMARK  11 active torsions:
REMARK  status: ('A' for Active; 'I' for Inactive)
REMARK    1  A    between atoms: O_1  and  C_11
REMARK    2  A    between atoms: O_2  and  C_12
REMARK    3  A    between atoms: O_6  and  C_30
REMARK    4  A    between atoms: O_6  and  C_33
REMARK    5  A    between atoms: N_7  and  C_13
REMARK    6  A    between atoms: N_8  and  C_18
REMARK    7  A    between atoms: C_15  and  C_17
REMARK    8  A    between atoms: C_18  and  C_20
REMARK    9  A    between atoms: C_18  and  C_22
REMARK   10  A    between atoms: C_19  and  C_23
REMARK   11  A    between atoms: C_20  and  C_21
REMARK                            x       y       z     vdW  Elec       q    Type
REMARK                         _______ _______ _______ _____ _____    ______ ____
ROOT
ATOM     11  C   UNL     1      -5.106  -9.675   9.083  0.00  0.00    +0.167 C 
ATOM     12  C   UNL     1      -4.036 -10.632   9.621  0.00  0.00    +0.149 C 
ATOM     13  C   UNL     1      -6.421  -9.792   9.879  0.00  0.00    +0.128 C 
ATOM     14  C   UNL     1      -3.771 -10.421  11.122  0.00  0.00    +0.074 C 
ATOM     15  C   UNL     1      -5.016 -10.130  11.911  0.00  0.00    +0.015 C 
ATOM     16  C   UNL     1      -6.212  -9.855  11.367  0.00  0.00    +0.006 C 
ENDROOT
BRANCH  15  17
ATOM      3  O   UNL     1      -5.895  -9.856  14.072  0.00  0.00    -0.271 OA
ATOM      8  N   UNL     1      -3.690 -10.572  13.833  0.00  0.00    -0.300 N 
ATOM     17  C   UNL     1      -4.931 -10.167  13.375  0.00  0.00    +0.241 C 
ATOM     37  H   UNL     1      -2.939 -10.719  13.164  0.00  0.00    +0.150 HD
BRANCH   8  18
ATOM     18  C   UNL     1      -3.364 -10.683  15.237  0.00  0.00    +0.163 C 
BRANCH  18  22
ATOM      5  O   UNL     1      -1.216  -9.746  14.595  0.00  0.00    -0.274 OA
ATOM      9  N   UNL     1      -1.328 -11.043  16.487  0.00  0.00    -0.328 N 
ATOM     22  C   UNL     1      -1.869 -10.440  15.371  0.00  0.00    +0.231 C 
ATOM     38  H   UNL     1      -0.341 -10.947  16.703  0.00  0.00    +0.145 HD
ATOM     39  H   UNL     1      -1.879 -11.610  17.123  0.00  0.00    +0.145 HD
ENDBRANCH  18  22
BRANCH  18  20
ATOM     20  C   UNL     1      -3.737 -12.055  15.811  0.00  0.00    +0.067 C 
BRANCH  20  21
ATOM     21  C   UNL     1      -4.740 -11.965  16.935  0.00  0.00    -0.045 A 
ATOM     24  C   UNL     1      -4.664 -10.921  17.857  0.00  0.00    +0.007 A 
ATOM     25  C   UNL     1      -5.743 -12.927  17.051  0.00  0.00    +0.007 A 
ATOM     28  C   UNL     1      -5.591 -10.840  18.896  0.00  0.00    +0.046 A 
ATOM     29  C   UNL     1      -6.671 -12.845  18.090  0.00  0.00    +0.046 A 
ATOM     30  C   UNL     1      -6.594 -11.801  19.012  0.00  0.00    +0.120 A 
BRANCH  30   6
ATOM      6  O   UNL     1      -7.500 -11.721  20.025  0.00  0.00    -0.495 OA
ATOM     33  C   UNL     1      -8.879 -11.821  19.673  0.00  0.00    +0.277 C 
ENDBRANCH  30   6
ENDBRANCH  20  21
ENDBRANCH  18  20
ENDBRANCH   8  18
ENDBRANCH  15  17
BRANCH  13   7
ATOM      4  O   UNL     1      -9.272  -9.961   9.589  0.00  0.00    -0.270 OA
ATOM      7  N   UNL     1      -7.322  -8.706   9.580  0.00  0.00    -0.302 N 
ATOM     19  C   UNL     1      -8.692  -8.886   9.459  0.00  0.00    +0.246 C 
ATOM     34  H   UNL     1      -6.907  -7.804   9.368  0.00  0.00    +0.150 HD
BRANCH  19  23
ATOM     10  N   UNL     1     -11.615  -6.540   9.091  0.00  0.00    -0.263 NA
ATOM     23  C   UNL     1      -9.480  -7.672   9.123  0.00  0.00    +0.055 A 
ATOM     26  C   UNL     1      -8.874  -6.562   8.546  0.00  0.00    +0.016 A 
ATOM     27  C   UNL     1     -10.841  -7.612   9.373  0.00  0.00    +0.123 A 
ATOM     31  C   UNL     1      -9.637  -5.440   8.242  0.00  0.00    +0.020 A 
ATOM     32  C   UNL     1     -10.992  -5.478   8.532  0.00  0.00    +0.111 A 
ENDBRANCH  19  23
ENDBRANCH  13   7
BRANCH  11   1
ATOM      1  O   UNL     1      -4.610  -8.337   9.171  0.00  0.00    -0.387 OA
ATOM     35  H   UNL     1      -5.368  -7.737   9.065  0.00  0.00    +0.210 HD
ENDBRANCH  11   1
BRANCH  12   2
ATOM      2  O   UNL     1      -4.420 -11.984   9.378  0.00  0.00    -0.389 OA
ATOM     36  H   UNL     1      -5.373 -11.989   9.183  0.00  0.00    +0.210 HD
ENDBRANCH  12   2
TORSDOF 10
ENDMDL
MODEL 8
REMARK VINA RESULT:      -7.1      3.772      7.150
REMARK  Name = 7050142
REMARK  11 active torsions:
REMARK  status: ('A' for Active; 'I' for Inactive)
REMARK    1  A    between atoms: O_1  and  C_11
REMARK    2  A    between atoms: O_2  and  C_12
REMARK    3  A    between atoms: O_6  and  C_30
REMARK    4  A    between atoms: O_6  and  C_33
REMARK    5  A    between atoms: N_7  and  C_13
REMARK    6  A    between atoms: N_8  and  C_18
REMARK    7  A    between atoms: C_15  and  C_17
REMARK    8  A    between atoms: C_18  and  C_20
REMARK    9  A    between atoms: C_18  and  C_22
REMARK   10  A    between atoms: C_19  and  C_23
REMARK   11  A    between atoms: C_20  and  C_21
REMARK                            x       y       z     vdW  Elec       q    Type
REMARK                         _______ _______ _______ _____ _____    ______ ____
ROOT
ATOM     11  C   UNL     1      13.914   6.603  20.803  0.00  0.00    +0.167 C 
ATOM     12  C   UNL     1      12.518   7.029  20.334  0.00  0.00    +0.149 C 
ATOM     13  C   UNL     1      14.986   6.907  19.738  0.00  0.00    +0.128 C 
ATOM     14  C   UNL     1      12.469   8.515  19.938  0.00  0.00    +0.074 C 
ATOM     15  C   UNL     1      13.703   8.980  19.217  0.00  0.00    +0.015 C 
ATOM     16  C   UNL     1      14.834   8.267  19.112  0.00  0.00    +0.006 C 
ENDROOT
BRANCH  15  17
ATOM      3  O   UNL     1      13.028  11.225  19.051  0.00  0.00    -0.271 OA
ATOM      8  N   UNL     1      14.407  10.335  17.396  0.00  0.00    -0.300 N 
ATOM     17  C   UNL     1      13.668  10.293  18.565  0.00  0.00    +0.241 C 
ATOM     37  H   UNL     1      14.823   9.477  17.043  0.00  0.00    +0.150 HD
BRANCH   8  18
ATOM     18  C   UNL     1      14.521  11.520  16.575  0.00  0.00    +0.163 C 
BRANCH  18  22
ATOM      5  O   UNL     1      14.873  10.151  14.598  0.00  0.00    -0.274 OA
ATOM      9  N   UNL     1      13.316  11.838  14.505  0.00  0.00    -0.328 N 
ATOM     22  C   UNL     1      14.289  11.091  15.135  0.00  0.00    +0.231 C 
ATOM     38  H   UNL     1      13.053  11.645  13.545  0.00  0.00    +0.145 HD
ATOM     39  H   UNL     1      12.839  12.608  14.961  0.00  0.00    +0.145 HD
ENDBRANCH  18  22
BRANCH  18  20
ATOM     20  C   UNL     1      15.891  12.193  16.719  0.00  0.00    +0.067 C 
BRANCH  20  21
ATOM     21  C   UNL     1      16.107  12.792  18.087  0.00  0.00    -0.045 A 
ATOM     24  C   UNL     1      17.051  12.237  18.951  0.00  0.00    +0.007 A 
ATOM     25  C   UNL     1      15.361  13.901  18.488  0.00  0.00    +0.007 A 
ATOM     28  C   UNL     1      17.250  12.791  20.216  0.00  0.00    +0.046 A 
ATOM     29  C   UNL     1      15.561  14.454  19.753  0.00  0.00    +0.046 A 
ATOM     30  C   UNL     1      16.505  13.899  20.616  0.00  0.00    +0.120 A 
BRANCH  30   6
ATOM      6  O   UNL     1      16.700  14.441  21.850  0.00  0.00    -0.495 OA
ATOM     33  C   UNL     1      17.775  13.917  22.627  0.00  0.00    +0.277 C 
ENDBRANCH  30   6
ENDBRANCH  20  21
ENDBRANCH  18  20
ENDBRANCH   8  18
ENDBRANCH  15  17
BRANCH  13   7
ATOM      4  O   UNL     1      17.229   5.625  18.484  0.00  0.00    -0.270 OA
ATOM      7  N   UNL     1      16.319   6.786  20.275  0.00  0.00    -0.302 N 
ATOM     19  C   UNL     1      17.343   6.146  19.592  0.00  0.00    +0.246 C 
ATOM     34  H   UNL     1      16.467   7.111  21.225  0.00  0.00    +0.150 HD
BRANCH  19  23
ATOM     10  N   UNL     1      20.170   7.026  21.919  0.00  0.00    -0.263 NA
ATOM     23  C   UNL     1      18.652   6.084  20.292  0.00  0.00    +0.055 A 
ATOM     26  C   UNL     1      19.569   5.079  20.007  0.00  0.00    +0.016 A 
ATOM     27  C   UNL     1      18.997   7.026  21.247  0.00  0.00    +0.123 A 
ATOM     31  C   UNL     1      20.786   5.045  20.678  0.00  0.00    +0.020 A 
ATOM     32  C   UNL     1      21.037   6.034  21.617  0.00  0.00    +0.111 A 
ENDBRANCH  19  23
ENDBRANCH  13   7
BRANCH  11   1
ATOM      1  O   UNL     1      14.227   7.303  22.010  0.00  0.00    -0.387 OA
ATOM     35  H   UNL     1      13.567   7.046  22.676  0.00  0.00    +0.210 HD
ENDBRANCH  11   1
BRANCH  12   2
ATOM      2  O   UNL     1      12.098   6.217  19.240  0.00  0.00    -0.389 OA
ATOM     36  H   UNL     1      11.159   6.408  19.075  0.00  0.00    +0.210 HD
ENDBRANCH  12   2
TORSDOF 10
ENDMDL
MODEL 9
REMARK VINA RESULT:      -7.1      5.970      9.501
REMARK  Name = 7050142
REMARK  11 active torsions:
REMARK  status: ('A' for Active; 'I' for Inactive)
REMARK    1  A    between atoms: O_1  and  C_11
REMARK    2  A    between atoms: O_2  and  C_12
REMARK    3  A    between atoms: O_6  and  C_30
REMARK    4  A    between atoms: O_6  and  C_33
REMARK    5  A    between atoms: N_7  and  C_13
REMARK    6  A    between atoms: N_8  and  C_18
REMARK    7  A    between atoms: C_15  and  C_17
REMARK    8  A    between atoms: C_18  and  C_20
REMARK    9  A    between atoms: C_18  and  C_22
REMARK   10  A    between atoms: C_19  and  C_23
REMARK   11  A    between atoms: C_20  and  C_21
REMARK                            x       y       z     vdW  Elec       q    Type
REMARK                         _______ _______ _______ _____ _____    ______ ____
ROOT
ATOM     11  C   UNL     1      13.450   8.410  20.336  0.00  0.00    +0.167 C 
ATOM     12  C   UNL     1      12.162   8.751  19.577  0.00  0.00    +0.149 C 
ATOM     13  C   UNL     1      14.429   7.609  19.456  0.00  0.00    +0.128 C 
ATOM     14  C   UNL     1      12.444   9.509  18.268  0.00  0.00    +0.074 C 
ATOM     15  C   UNL     1      13.661   9.011  17.542  0.00  0.00    +0.015 C 
ATOM     16  C   UNL     1      14.555   8.153  18.059  0.00  0.00    +0.006 C 
ENDROOT
BRANCH  15  17
ATOM      3  O   UNL     1      13.523   8.797  15.207  0.00  0.00    -0.271 OA
ATOM      8  N   UNL     1      14.522  10.701  16.108  0.00  0.00    -0.300 N 
ATOM     17  C   UNL     1      13.884   9.474  16.168  0.00  0.00    +0.241 C 
ATOM     37  H   UNL     1      14.854  11.127  16.969  0.00  0.00    +0.150 HD
BRANCH   8  18
ATOM     18  C   UNL     1      14.851  11.359  14.864  0.00  0.00    +0.163 C 
BRANCH  18  22
ATOM      5  O   UNL     1      16.694  12.674  15.748  0.00  0.00    -0.274 OA
ATOM      9  N   UNL     1      17.138  11.113  14.124  0.00  0.00    -0.328 N 
ATOM     22  C   UNL     1      16.300  11.811  14.967  0.00  0.00    +0.231 C 
ATOM     38  H   UNL     1      18.134  11.305  14.104  0.00  0.00    +0.145 HD
ATOM     39  H   UNL     1      16.801  10.399  13.486  0.00  0.00    +0.145 HD
ENDBRANCH  18  22
BRANCH  18  20
ATOM     20  C   UNL     1      13.937  12.556  14.583  0.00  0.00    +0.067 C 
BRANCH  20  21
ATOM     21  C   UNL     1      13.211  12.440  13.264  0.00  0.00    -0.045 A 
ATOM     24  C   UNL     1      13.905  12.624  12.068  0.00  0.00    +0.007 A 
ATOM     25  C   UNL     1      11.847  12.149  13.243  0.00  0.00    +0.007 A 
ATOM     28  C   UNL     1      13.233  12.517  10.850  0.00  0.00    +0.046 A 
ATOM     29  C   UNL     1      11.177  12.042  12.024  0.00  0.00    +0.046 A 
ATOM     30  C   UNL     1      11.870  12.226  10.828  0.00  0.00    +0.120 A 
BRANCH  30   6
ATOM      6  O   UNL     1      11.215  12.120   9.639  0.00  0.00    -0.495 OA
ATOM     33  C   UNL     1      11.475  10.957   8.855  0.00  0.00    +0.277 C 
ENDBRANCH  30   6
ENDBRANCH  20  21
ENDBRANCH  18  20
ENDBRANCH   8  18
ENDBRANCH  15  17
BRANCH  13   7
ATOM      4  O   UNL     1      16.461   5.658  18.900  0.00  0.00    -0.270 OA
ATOM      7  N   UNL     1      15.743   7.541  20.049  0.00  0.00    -0.302 N 
ATOM     19  C   UNL     1      16.661   6.556  19.715  0.00  0.00    +0.246 C 
ATOM     34  H   UNL     1      15.948   8.193  20.798  0.00  0.00    +0.150 HD
BRANCH  19  23
ATOM     10  N   UNL     1      20.173   5.694  20.766  0.00  0.00    -0.263 NA
ATOM     23  C   UNL     1      17.960   6.607  20.434  0.00  0.00    +0.055 A 
ATOM     26  C   UNL     1      18.200   7.566  21.411  0.00  0.00    +0.016 A 
ATOM     27  C   UNL     1      18.970   5.702  20.150  0.00  0.00    +0.123 A 
ATOM     31  C   UNL     1      19.426   7.590  22.067  0.00  0.00    +0.020 A 
ATOM     32  C   UNL     1      20.371   6.640  21.711  0.00  0.00    +0.111 A 
ENDBRANCH  19  23
ENDBRANCH  13   7
BRANCH  11   1
ATOM      1  O   UNL     1      14.070   9.627  20.758  0.00  0.00    -0.387 OA
ATOM     35  H   UNL     1      14.764   9.395  21.397  0.00  0.00    +0.210 HD
ENDBRANCH  11   1
BRANCH  12   2
ATOM      2  O   UNL     1      11.424   7.561  19.303  0.00  0.00    -0.389 OA
ATOM     36  H   UNL     1      11.965   7.008  18.714  0.00  0.00    +0.210 HD
ENDBRANCH  12   2
TORSDOF 10
ENDMDL
MODEL 10
REMARK VINA RESULT:      -7.0     17.511     21.000
REMARK  Name = 7050142
REMARK  11 active torsions:
REMARK  status: ('A' for Active; 'I' for Inactive)
REMARK    1  A    between atoms: O_1  and  C_11
REMARK    2  A    between atoms: O_2  and  C_12
REMARK    3  A    between atoms: O_6  and  C_30
REMARK    4  A    between atoms: O_6  and  C_33
REMARK    5  A    between atoms: N_7  and  C_13
REMARK    6  A    between atoms: N_8  and  C_18
REMARK    7  A    between atoms: C_15  and  C_17
REMARK    8  A    between atoms: C_18  and  C_20
REMARK    9  A    between atoms: C_18  and  C_22
REMARK   10  A    between atoms: C_19  and  C_23
REMARK   11  A    between atoms: C_20  and  C_21
REMARK                            x       y       z     vdW  Elec       q    Type
REMARK                         _______ _______ _______ _____ _____    ______ ____
ROOT
ATOM     11  C   UNL     1      14.558   6.595   1.884  0.00  0.00    +0.167 C 
ATOM     12  C   UNL     1      15.063   7.250   3.176  0.00  0.00    +0.149 C 
ATOM     13  C   UNL     1      13.471   5.542   2.173  0.00  0.00    +0.128 C 
ATOM     14  C   UNL     1      13.919   7.875   3.993  0.00  0.00    +0.074 C 
ATOM     15  C   UNL     1      12.662   7.054   3.983  0.00  0.00    +0.015 C 
ATOM     16  C   UNL     1      12.450   6.000   3.179  0.00  0.00    +0.006 C 
ENDROOT
BRANCH  15  17
ATOM      3  O   UNL     1      11.486   8.557   5.353  0.00  0.00    -0.271 OA
ATOM      8  N   UNL     1      10.787   6.335   5.255  0.00  0.00    -0.300 N 
ATOM     17  C   UNL     1      11.597   7.408   4.927  0.00  0.00    +0.241 C 
ATOM     37  H   UNL     1      11.028   5.410   4.910  0.00  0.00    +0.150 HD
BRANCH   8  18
ATOM     18  C   UNL     1       9.672   6.438   6.169  0.00  0.00    +0.163 C 
BRANCH  18  22
ATOM      5  O   UNL     1       9.415   5.226   8.260  0.00  0.00    -0.274 OA
ATOM      9  N   UNL     1      10.081   4.067   6.392  0.00  0.00    -0.328 N 
ATOM     22  C   UNL     1       9.716   5.212   7.068  0.00  0.00    +0.231 C 
ATOM     38  H   UNL     1      10.134   3.175   6.872  0.00  0.00    +0.145 HD
ATOM     39  H   UNL     1      10.322   4.069   5.407  0.00  0.00    +0.145 HD
ENDBRANCH  18  22
BRANCH  18  20
ATOM     20  C   UNL     1       8.328   6.517   5.437  0.00  0.00    +0.067 C 
BRANCH  20  21
ATOM     21  C   UNL     1       8.163   7.796   4.653  0.00  0.00    -0.045 A 
ATOM     24  C   UNL     1       8.285   7.785   3.264  0.00  0.00    +0.007 A 
ATOM     25  C   UNL     1       7.890   8.990   5.320  0.00  0.00    +0.007 A 
ATOM     28  C   UNL     1       8.133   8.968   2.541  0.00  0.00    +0.046 A 
ATOM     29  C   UNL     1       7.737  10.173   4.596  0.00  0.00    +0.046 A 
ATOM     30  C   UNL     1       7.859  10.162   3.207  0.00  0.00    +0.120 A 
BRANCH  30   6
ATOM      6  O   UNL     1       7.710  11.316   2.501  0.00  0.00    -0.495 OA
ATOM     33  C   UNL     1       6.953  12.359   3.113  0.00  0.00    +0.277 C 
ENDBRANCH  30   6
ENDBRANCH  20  21
ENDBRANCH  18  20
ENDBRANCH   8  18
ENDBRANCH  15  17
BRANCH  13   7
ATOM      4  O   UNL     1      13.204   2.865   1.168  0.00  0.00    -0.270 OA
ATOM      7  N   UNL     1      12.788   5.138   0.967  0.00  0.00    -0.302 N 
ATOM     19  C   UNL     1      12.712   3.814   0.562  0.00  0.00    +0.246 C 
ATOM     34  H   UNL     1      12.436   5.875   0.366  0.00  0.00    +0.150 HD
BRANCH  19  23
ATOM     10  N   UNL     1      10.165   4.109  -2.197  0.00  0.00    -0.263 NA
ATOM     23  C   UNL     1      11.996   3.565  -0.716  0.00  0.00    +0.055 A 
ATOM     26  C   UNL     1      12.444   2.601  -1.612  0.00  0.00    +0.016 A 
ATOM     27  C   UNL     1      10.862   4.286  -1.052  0.00  0.00    +0.123 A 
ATOM     31  C   UNL     1      11.754   2.390  -2.801  0.00  0.00    +0.020 A 
ATOM     32  C   UNL     1      10.630   3.164  -3.044  0.00  0.00    +0.111 A 
ENDBRANCH  19  23
ENDBRANCH  13   7
BRANCH  11   1
ATOM      1  O   UNL     1      14.027   7.611   1.031  0.00  0.00    -0.387 OA
ATOM     35  H   UNL     1      14.720   8.281   0.908  0.00  0.00    +0.210 HD
ENDBRANCH  11   1
BRANCH  12   2
ATOM      2  O   UNL     1      15.766   6.295   3.969  0.00  0.00    -0.389 OA
ATOM     36  H   UNL     1      15.724   6.593   4.894  0.00  0.00    +0.210 HD
ENDBRANCH  12   2
TORSDOF 10
ENDMDL
