MODEL 1
REMARK VINA RESULT:      -7.1      0.000      0.000
REMARK  Name = 7142872
REMARK  4 active torsions:
REMARK  status: ('A' for Active; 'I' for Inactive)
REMARK    1  A    between atoms: S_1  and  N_7
REMARK    2  A    between atoms: S_1  and  C_23
REMARK    3  A    between atoms: N_9  and  C_21
REMARK    4  A    between atoms: C_27  and  C_28
REMARK                            x       y       z     vdW  Elec       q    Type
REMARK                         _______ _______ _______ _____ _____    ______ ____
ROOT
ATOM      5  O   UNL     1     -10.212  -9.160  13.840  0.00  0.00    -0.266 OA
ATOM      7  N   UNL     1     -13.027  -5.288  12.456  0.00  0.00    -0.175 NA
ATOM      8  N   UNL     1     -12.024  -7.729  14.199  0.00  0.00    -0.310 N 
ATOM     12  C   UNL     1     -14.012  -7.578  12.591  0.00  0.00    +0.025 C 
ATOM     13  C   UNL     1     -13.954  -6.158  14.594  0.00  0.00    +0.052 C 
ATOM     14  C   UNL     1     -14.800  -7.172  13.828  0.00  0.00    +0.017 C 
ATOM     15  C   UNL     1     -13.739  -6.356  11.698  0.00  0.00    +0.114 C 
ATOM     16  C   UNL     1     -13.729  -4.910  13.720  0.00  0.00    +0.119 C 
ATOM     17  C   UNL     1     -12.722  -8.283  13.031  0.00  0.00    +0.130 C 
ATOM     18  C   UNL     1     -12.624  -6.760  15.009  0.00  0.00    +0.026 A 
ATOM     19  C   UNL     1     -12.017  -6.350  16.135  0.00  0.00    +0.024 A 
ATOM     20  C   UNL     1     -10.771  -8.294  14.514  0.00  0.00    +0.273 A 
ATOM     21  C   UNL     1     -10.117  -7.793  15.764  0.00  0.00    +0.099 A 
ATOM     22  C   UNL     1     -10.737  -6.878  16.516  0.00  0.00    +0.030 A 
ENDROOT
BRANCH  21   9
ATOM      6  O   UNL     1      -9.642  -9.739  17.746  0.00  0.00    -0.268 OA
ATOM      9  N   UNL     1      -8.899  -8.307  16.098  0.00  0.00    -0.276 N 
ATOM     27  C   UNL     1      -8.709  -9.272  17.090  0.00  0.00    +0.268 C 
ATOM     32  H   UNL     1      -8.132  -8.130  15.454  0.00  0.00    +0.155 HD
BRANCH  27  28
ATOM     10  N   UNL     1      -7.044 -10.272  18.468  0.00  0.00    -0.247 NA
ATOM     11  N   UNL     1      -5.122  -9.974  16.447  0.00  0.00    -0.259 NA
ATOM     28  C   UNL     1      -7.322  -9.720  17.280  0.00  0.00    +0.144 A 
ATOM     29  C   UNL     1      -6.396  -9.567  16.285  0.00  0.00    +0.143 A 
ATOM     30  C   UNL     1      -5.769 -10.679  18.630  0.00  0.00    +0.131 A 
ATOM     31  C   UNL     1      -4.826 -10.532  17.638  0.00  0.00    +0.130 A 
ENDBRANCH  27  28
ENDBRANCH  21   9
BRANCH   7   1
ATOM      1  S   UNL     1     -12.438  -3.984  11.519  0.00  0.00    +0.067 S 
ATOM      3  O   UNL     1     -11.601  -4.503  10.458  0.00  0.00    -0.152 OA
ATOM      4  O   UNL     1     -11.959  -2.945  12.406  0.00  0.00    -0.152 OA
BRANCH   1  23
ATOM      2  S   UNL     1     -14.016  -3.592   9.090  0.00  0.00    -0.077 S 
ATOM     23  C   UNL     1     -13.945  -3.421  10.790  0.00  0.00    +0.143 A 
ATOM     24  C   UNL     1     -15.086  -2.866  11.310  0.00  0.00    +0.036 A 
ATOM     25  C   UNL     1     -16.043  -2.574  10.295  0.00  0.00    +0.010 A 
ATOM     26  C   UNL     1     -15.589  -2.918   9.042  0.00  0.00    +0.047 A 
ENDBRANCH   1  23
ENDBRANCH   7   1
TORSDOF 4
ENDMDL
MODEL 2
REMARK VINA RESULT:      -7.0     14.658     16.380
REMARK  Name = 7142872
REMARK  4 active torsions:
REMARK  status: ('A' for Active; 'I' for Inactive)
REMARK    1  A    between atoms: S_1  and  N_7
REMARK    2  A    between atoms: S_1  and  C_23
REMARK    3  A    between atoms: N_9  and  C_21
REMARK    4  A    between atoms: C_27  and  C_28
REMARK                            x       y       z     vdW  Elec       q    Type
REMARK                         _______ _______ _______ _____ _____    ______ ____
ROOT
ATOM      5  O   UNL     1     -15.352   8.055  20.180  0.00  0.00    -0.266 OA
ATOM      7  N   UNL     1     -11.653   9.635  17.238  0.00  0.00    -0.175 NA
ATOM      8  N   UNL     1     -13.190   8.898  19.901  0.00  0.00    -0.310 N 
ATOM     12  C   UNL     1     -12.719  11.195  18.870  0.00  0.00    +0.025 C 
ATOM     13  C   UNL     1     -10.848   9.773  19.586  0.00  0.00    +0.052 C 
ATOM     14  C   UNL     1     -11.461  11.164  19.728  0.00  0.00    +0.017 C 
ATOM     15  C   UNL     1     -12.374  10.931  17.395  0.00  0.00    +0.114 C 
ATOM     16  C   UNL     1     -10.451   9.532  18.119  0.00  0.00    +0.119 C 
ATOM     17  C   UNL     1     -13.726  10.181  19.427  0.00  0.00    +0.130 C 
ATOM     18  C   UNL     1     -11.814   8.701  20.057  0.00  0.00    +0.026 A 
ATOM     19  C   UNL     1     -11.351   7.562  20.599  0.00  0.00    +0.024 A 
ATOM     20  C   UNL     1     -14.131   7.920  20.283  0.00  0.00    +0.273 A 
ATOM     21  C   UNL     1     -13.574   6.656  20.860  0.00  0.00    +0.099 A 
ATOM     22  C   UNL     1     -12.252   6.521  21.006  0.00  0.00    +0.030 A 
ENDROOT
BRANCH  21   9
ATOM      6  O   UNL     1     -14.731   6.374  23.413  0.00  0.00    -0.268 OA
ATOM      9  N   UNL     1     -14.452   5.681  21.232  0.00  0.00    -0.276 N 
ATOM     27  C   UNL     1     -15.001   5.579  22.511  0.00  0.00    +0.268 C 
ATOM     32  H   UNL     1     -14.879   5.137  20.486  0.00  0.00    +0.155 HD
BRANCH  27  28
ATOM     10  N   UNL     1     -16.971   4.422  21.838  0.00  0.00    -0.247 NA
ATOM     11  N   UNL     1     -16.645   2.559  23.910  0.00  0.00    -0.259 NA
ATOM     28  C   UNL     1     -15.952   4.475  22.706  0.00  0.00    +0.144 A 
ATOM     29  C   UNL     1     -15.780   3.576  23.721  0.00  0.00    +0.143 A 
ATOM     30  C   UNL     1     -17.836   3.406  22.026  0.00  0.00    +0.131 A 
ATOM     31  C   UNL     1     -17.676   2.491  23.044  0.00  0.00    +0.130 A 
ENDBRANCH  27  28
ENDBRANCH  21   9
BRANCH   7   1
ATOM      1  S   UNL     1     -11.437   9.100  15.627  0.00  0.00    +0.067 S 
ATOM      3  O   UNL     1     -10.450   8.042  15.608  0.00  0.00    -0.152 OA
ATOM      4  O   UNL     1     -11.312  10.252  14.760  0.00  0.00    -0.152 OA
BRANCH   1  23
ATOM      2  S   UNL     1     -13.236   7.779  13.740  0.00  0.00    -0.077 S 
ATOM     23  C   UNL     1     -13.016   8.367  15.330  0.00  0.00    +0.143 A 
ATOM     24  C   UNL     1     -14.120   8.170  16.120  0.00  0.00    +0.036 A 
ATOM     25  C   UNL     1     -15.171   7.522  15.409  0.00  0.00    +0.010 A 
ATOM     26  C   UNL     1     -14.824   7.252  14.105  0.00  0.00    +0.047 A 
ENDBRANCH   1  23
ENDBRANCH   7   1
TORSDOF 4
ENDMDL
MODEL 3
REMARK VINA RESULT:      -7.0      7.325     11.098
REMARK  Name = 7142872
REMARK  4 active torsions:
REMARK  status: ('A' for Active; 'I' for Inactive)
REMARK    1  A    between atoms: S_1  and  N_7
REMARK    2  A    between atoms: S_1  and  C_23
REMARK    3  A    between atoms: N_9  and  C_21
REMARK    4  A    between atoms: C_27  and  C_28
REMARK                            x       y       z     vdW  Elec       q    Type
REMARK                         _______ _______ _______ _____ _____    ______ ____
ROOT
ATOM      5  O   UNL     1      -6.645 -10.155  14.277  0.00  0.00    -0.266 OA
ATOM      7  N   UNL     1      -2.735 -13.067  13.247  0.00  0.00    -0.175 NA
ATOM      8  N   UNL     1      -4.339 -10.535  14.253  0.00  0.00    -0.310 N 
ATOM     12  C   UNL     1      -3.012 -10.872  12.089  0.00  0.00    +0.025 C 
ATOM     13  C   UNL     1      -1.858 -10.970  14.255  0.00  0.00    +0.052 C 
ATOM     14  C   UNL     1      -1.845 -10.301  12.883  0.00  0.00    +0.017 C 
ATOM     15  C   UNL     1      -2.859 -12.394  11.922  0.00  0.00    +0.114 C 
ATOM     16  C   UNL     1      -1.648 -12.486  14.091  0.00  0.00    +0.119 C 
ATOM     17  C   UNL     1      -4.324 -10.488  12.785  0.00  0.00    +0.130 C 
ATOM     18  C   UNL     1      -3.158 -10.691  14.985  0.00  0.00    +0.026 A 
ATOM     19  C   UNL     1      -3.180 -10.618  16.327  0.00  0.00    +0.024 A 
ATOM     20  C   UNL     1      -5.583 -10.315  14.880  0.00  0.00    +0.273 A 
ATOM     21  C   UNL     1      -5.568 -10.262  16.377  0.00  0.00    +0.099 A 
ATOM     22  C   UNL     1      -4.411 -10.401  17.033  0.00  0.00    +0.030 A 
ENDROOT
BRANCH  21   9
ATOM      6  O   UNL     1      -7.173 -12.273  17.523  0.00  0.00    -0.268 OA
ATOM      9  N   UNL     1      -6.752 -10.062  17.022  0.00  0.00    -0.276 N 
ATOM     27  C   UNL     1      -7.517 -11.091  17.576  0.00  0.00    +0.268 C 
ATOM     32  H   UNL     1      -6.976  -9.107  17.289  0.00  0.00    +0.155 HD
BRANCH  27  28
ATOM     10  N   UNL     1      -8.983 -11.234  19.447  0.00  0.00    -0.247 NA
ATOM     11  N   UNL     1     -10.718  -9.356  18.295  0.00  0.00    -0.259 NA
ATOM     28  C   UNL     1      -8.749 -10.668  18.257  0.00  0.00    +0.144 A 
ATOM     29  C   UNL     1      -9.586  -9.752  17.681  0.00  0.00    +0.143 A 
ATOM     30  C   UNL     1     -10.115 -10.839  20.062  0.00  0.00    +0.131 A 
ATOM     31  C   UNL     1     -10.967  -9.916  19.495  0.00  0.00    +0.130 A 
ENDBRANCH  27  28
ENDBRANCH  21   9
BRANCH   7   1
ATOM      1  S   UNL     1      -2.816 -14.776  13.218  0.00  0.00    +0.067 S 
ATOM      3  O   UNL     1      -1.473 -15.314  13.277  0.00  0.00    -0.152 OA
ATOM      4  O   UNL     1      -3.738 -15.187  12.181  0.00  0.00    -0.152 OA
BRANCH   1  23
ATOM      2  S   UNL     1      -3.138 -16.553  15.516  0.00  0.00    -0.077 S 
ATOM     23  C   UNL     1      -3.584 -15.076  14.779  0.00  0.00    +0.143 A 
ATOM     24  C   UNL     1      -4.480 -14.363  15.534  0.00  0.00    +0.036 A 
ATOM     25  C   UNL     1      -4.809 -15.039  16.745  0.00  0.00    +0.010 A 
ATOM     26  C   UNL     1      -4.150 -16.241  16.861  0.00  0.00    +0.047 A 
ENDBRANCH   1  23
ENDBRANCH   7   1
TORSDOF 4
ENDMDL
MODEL 4
REMARK VINA RESULT:      -6.7      8.033     11.922
REMARK  Name = 7142872
REMARK  4 active torsions:
REMARK  status: ('A' for Active; 'I' for Inactive)
REMARK    1  A    between atoms: S_1  and  N_7
REMARK    2  A    between atoms: S_1  and  C_23
REMARK    3  A    between atoms: N_9  and  C_21
REMARK    4  A    between atoms: C_27  and  C_28
REMARK                            x       y       z     vdW  Elec       q    Type
REMARK                         _______ _______ _______ _____ _____    ______ ____
ROOT
ATOM      5  O   UNL     1      -4.913 -12.292   8.519  0.00  0.00    -0.266 OA
ATOM      7  N   UNL     1      -4.647 -11.458  13.425  0.00  0.00    -0.175 NA
ATOM      8  N   UNL     1      -3.774 -11.467  10.386  0.00  0.00    -0.310 N 
ATOM     12  C   UNL     1      -2.998 -12.967  12.312  0.00  0.00    +0.025 C 
ATOM     13  C   UNL     1      -2.571 -10.550  12.401  0.00  0.00    +0.052 C 
ATOM     14  C   UNL     1      -1.908 -11.921  12.499  0.00  0.00    +0.017 C 
ATOM     15  C   UNL     1      -4.070 -12.833  13.407  0.00  0.00    +0.114 C 
ATOM     16  C   UNL     1      -3.604 -10.395  13.532  0.00  0.00    +0.119 C 
ATOM     17  C   UNL     1      -3.582 -12.830  10.900  0.00  0.00    +0.130 C 
ATOM     18  C   UNL     1      -3.234 -10.361  11.049  0.00  0.00    +0.026 A 
ATOM     19  C   UNL     1      -3.323  -9.136  10.503  0.00  0.00    +0.024 A 
ATOM     20  C   UNL     1      -4.436 -11.345   9.148  0.00  0.00    +0.273 A 
ATOM     21  C   UNL     1      -4.535  -9.961   8.584  0.00  0.00    +0.099 A 
ATOM     22  C   UNL     1      -3.989  -8.936   9.247  0.00  0.00    +0.030 A 
ENDROOT
BRANCH  21   9
ATOM      6  O   UNL     1      -7.269  -9.364   8.263  0.00  0.00    -0.268 OA
ATOM      9  N   UNL     1      -5.178  -9.799   7.393  0.00  0.00    -0.276 N 
ATOM     27  C   UNL     1      -6.538  -9.504   7.281  0.00  0.00    +0.268 C 
ATOM     32  H   UNL     1      -4.597  -9.684   6.567  0.00  0.00    +0.155 HD
BRANCH  27  28
ATOM     10  N   UNL     1      -7.588  -8.150   5.627  0.00  0.00    -0.247 NA
ATOM     11  N   UNL     1      -7.392 -10.216   3.740  0.00  0.00    -0.259 NA
ATOM     28  C   UNL     1      -7.039  -9.338   5.908  0.00  0.00    +0.144 A 
ATOM     29  C   UNL     1      -6.937 -10.355   5.001  0.00  0.00    +0.143 A 
ATOM     30  C   UNL     1      -8.044  -8.010   4.366  0.00  0.00    +0.131 A 
ATOM     31  C   UNL     1      -7.947  -9.025   3.439  0.00  0.00    +0.130 A 
ENDBRANCH  27  28
ENDBRANCH  21   9
BRANCH   7   1
ATOM      1  S   UNL     1      -6.023 -11.248  14.420  0.00  0.00    +0.067 S 
ATOM      3  O   UNL     1      -6.977 -12.299  14.137  0.00  0.00    -0.152 OA
ATOM      4  O   UNL     1      -6.417  -9.855  14.390  0.00  0.00    -0.152 OA
BRANCH   1  23
ATOM      2  S   UNL     1      -5.828 -13.041  16.720  0.00  0.00    -0.077 S 
ATOM     23  C   UNL     1      -5.313 -11.576  16.003  0.00  0.00    +0.143 A 
ATOM     24  C   UNL     1      -4.424 -10.891  16.791  0.00  0.00    +0.036 A 
ATOM     25  C   UNL     1      -4.156 -11.579  18.009  0.00  0.00    +0.010 A 
ATOM     26  C   UNL     1      -4.853 -12.762  18.099  0.00  0.00    +0.047 A 
ENDBRANCH   1  23
ENDBRANCH   7   1
TORSDOF 4
ENDMDL
MODEL 5
REMARK VINA RESULT:      -6.6      1.607      2.275
REMARK  Name = 7142872
REMARK  4 active torsions:
REMARK  status: ('A' for Active; 'I' for Inactive)
REMARK    1  A    between atoms: S_1  and  N_7
REMARK    2  A    between atoms: S_1  and  C_23
REMARK    3  A    between atoms: N_9  and  C_21
REMARK    4  A    between atoms: C_27  and  C_28
REMARK                            x       y       z     vdW  Elec       q    Type
REMARK                         _______ _______ _______ _____ _____    ______ ____
ROOT
ATOM      5  O   UNL     1     -10.471  -9.090  13.714  0.00  0.00    -0.266 OA
ATOM      7  N   UNL     1     -13.392  -5.269  12.412  0.00  0.00    -0.175 NA
ATOM      8  N   UNL     1     -12.296  -7.689  14.125  0.00  0.00    -0.310 N 
ATOM     12  C   UNL     1     -14.334  -7.575  12.579  0.00  0.00    +0.025 C 
ATOM     13  C   UNL     1     -14.239  -6.151  14.577  0.00  0.00    +0.052 C 
ATOM     14  C   UNL     1     -15.091  -7.181  13.839  0.00  0.00    +0.017 C 
ATOM     15  C   UNL     1     -14.109  -6.350  11.676  0.00  0.00    +0.114 C 
ATOM     16  C   UNL     1     -14.062  -4.901  13.695  0.00  0.00    +0.119 C 
ATOM     17  C   UNL     1     -13.019  -8.257  12.979  0.00  0.00    +0.130 C 
ATOM     18  C   UNL     1     -12.888  -6.730  14.953  0.00  0.00    +0.026 A 
ATOM     19  C   UNL     1     -12.253  -6.308  16.059  0.00  0.00    +0.024 A 
ATOM     20  C   UNL     1     -11.024  -8.232  14.403  0.00  0.00    +0.273 A 
ATOM     21  C   UNL     1     -10.341  -7.718  15.633  0.00  0.00    +0.099 A 
ATOM     22  C   UNL     1     -10.954  -6.813  16.402  0.00  0.00    +0.030 A 
ENDROOT
BRANCH  21   9
ATOM      6  O   UNL     1      -9.792  -9.773  17.480  0.00  0.00    -0.268 OA
ATOM      9  N   UNL     1      -9.104  -8.210  15.930  0.00  0.00    -0.276 N 
ATOM     27  C   UNL     1      -8.878  -9.232  16.855  0.00  0.00    +0.268 C 
ATOM     32  H   UNL     1      -8.347  -7.965  15.297  0.00  0.00    +0.155 HD
BRANCH  27  28
ATOM     10  N   UNL     1      -6.704  -9.519  15.925  0.00  0.00    -0.247 NA
ATOM     11  N   UNL     1      -5.736 -10.502  18.367  0.00  0.00    -0.259 NA
ATOM     28  C   UNL     1      -7.475  -9.643  17.013  0.00  0.00    +0.144 A 
ATOM     29  C   UNL     1      -7.019 -10.121  18.210  0.00  0.00    +0.143 A 
ATOM     30  C   UNL     1      -5.421  -9.900  16.082  0.00  0.00    +0.131 A 
ATOM     31  C   UNL     1      -4.946 -10.383  17.282  0.00  0.00    +0.130 A 
ENDBRANCH  27  28
ENDBRANCH  21   9
BRANCH   7   1
ATOM      1  S   UNL     1     -12.855  -3.956  11.456  0.00  0.00    +0.067 S 
ATOM      3  O   UNL     1     -12.052  -3.072  12.274  0.00  0.00    -0.152 OA
ATOM      4  O   UNL     1     -13.968  -3.449  10.682  0.00  0.00    -0.152 OA
BRANCH   1  23
ATOM      2  S   UNL     1     -10.908  -3.780   9.283  0.00  0.00    -0.077 S 
ATOM     23  C   UNL     1     -11.767  -4.801  10.351  0.00  0.00    +0.143 A 
ATOM     24  C   UNL     1     -11.465  -6.127  10.167  0.00  0.00    +0.036 A 
ATOM     25  C   UNL     1     -10.507  -6.312   9.129  0.00  0.00    +0.010 A 
ATOM     26  C   UNL     1     -10.120  -5.119   8.563  0.00  0.00    +0.047 A 
ENDBRANCH   1  23
ENDBRANCH   7   1
TORSDOF 4
ENDMDL
MODEL 6
REMARK VINA RESULT:      -6.6     28.064     29.708
REMARK  Name = 7142872
REMARK  4 active torsions:
REMARK  status: ('A' for Active; 'I' for Inactive)
REMARK    1  A    between atoms: S_1  and  N_7
REMARK    2  A    between atoms: S_1  and  C_23
REMARK    3  A    between atoms: N_9  and  C_21
REMARK    4  A    between atoms: C_27  and  C_28
REMARK                            x       y       z     vdW  Elec       q    Type
REMARK                         _______ _______ _______ _____ _____    ______ ____
ROOT
ATOM      5  O   UNL     1      12.089   7.156   0.993  0.00  0.00    -0.266 OA
ATOM      7  N   UNL     1      11.834   4.249  -3.045  0.00  0.00    -0.175 NA
ATOM      8  N   UNL     1      13.089   5.687  -0.524  0.00  0.00    -0.310 N 
ATOM     12  C   UNL     1      13.353   6.231  -3.013  0.00  0.00    +0.025 C 
ATOM     13  C   UNL     1      14.146   4.074  -2.145  0.00  0.00    +0.052 C 
ATOM     14  C   UNL     1      14.563   5.309  -2.940  0.00  0.00    +0.017 C 
ATOM     15  C   UNL     1      12.182   5.531  -3.723  0.00  0.00    +0.114 C 
ATOM     16  C   UNL     1      13.012   3.343  -2.886  0.00  0.00    +0.119 C 
ATOM     17  C   UNL     1      12.990   6.689  -1.595  0.00  0.00    +0.130 C 
ATOM     18  C   UNL     1      13.706   4.451  -0.743  0.00  0.00    +0.026 A 
ATOM     19  C   UNL     1      13.888   3.596   0.278  0.00  0.00    +0.024 A 
ATOM     20  C   UNL     1      12.623   6.074   0.749  0.00  0.00    +0.273 A 
ATOM     21  C   UNL     1      12.824   5.083   1.855  0.00  0.00    +0.099 A 
ATOM     22  C   UNL     1      13.434   3.922   1.601  0.00  0.00    +0.030 A 
ENDROOT
BRANCH  21   9
ATOM      6  O   UNL     1      10.258   4.533   2.880  0.00  0.00    -0.268 OA
ATOM      9  N   UNL     1      12.377   5.415   3.100  0.00  0.00    -0.276 N 
ATOM     27  C   UNL     1      11.094   5.123   3.567  0.00  0.00    +0.268 C 
ATOM     32  H   UNL     1      13.078   5.699   3.780  0.00  0.00    +0.155 HD
BRANCH  27  28
ATOM     10  N   UNL     1      11.636   6.462   5.460  0.00  0.00    -0.247 NA
ATOM     11  N   UNL     1       9.504   5.360   6.912  0.00  0.00    -0.259 NA
ATOM     28  C   UNL     1      10.814   5.537   4.949  0.00  0.00    +0.144 A 
ATOM     29  C   UNL     1       9.771   4.989   5.644  0.00  0.00    +0.143 A 
ATOM     30  C   UNL     1      11.369   6.833   6.728  0.00  0.00    +0.131 A 
ATOM     31  C   UNL     1      10.322   6.292   7.441  0.00  0.00    +0.130 A 
ENDBRANCH  27  28
ENDBRANCH  21   9
BRANCH   7   1
ATOM      1  S   UNL     1      10.391   3.500  -3.577  0.00  0.00    +0.067 S 
ATOM      3  O   UNL     1      10.061   2.416  -2.676  0.00  0.00    -0.152 OA
ATOM      4  O   UNL     1      10.471   3.283  -5.005  0.00  0.00    -0.152 OA
BRANCH   1  23
ATOM      2  S   UNL     1       8.242   5.179  -4.627  0.00  0.00    -0.077 S 
ATOM     23  C   UNL     1       9.240   4.807  -3.289  0.00  0.00    +0.143 A 
ATOM     24  C   UNL     1       8.976   5.600  -2.201  0.00  0.00    +0.036 A 
ATOM     25  C   UNL     1       7.933   6.533  -2.467  0.00  0.00    +0.010 A 
ATOM     26  C   UNL     1       7.444   6.413  -3.748  0.00  0.00    +0.047 A 
ENDBRANCH   1  23
ENDBRANCH   7   1
TORSDOF 4
ENDMDL
MODEL 7
REMARK VINA RESULT:      -6.6      6.595     11.130
REMARK  Name = 7142872
REMARK  4 active torsions:
REMARK  status: ('A' for Active; 'I' for Inactive)
REMARK    1  A    between atoms: S_1  and  N_7
REMARK    2  A    between atoms: S_1  and  C_23
REMARK    3  A    between atoms: N_9  and  C_21
REMARK    4  A    between atoms: C_27  and  C_28
REMARK                            x       y       z     vdW  Elec       q    Type
REMARK                         _______ _______ _______ _____ _____    ______ ____
ROOT
ATOM      5  O   UNL     1      -5.478 -12.299  10.375  0.00  0.00    -0.266 OA
ATOM      7  N   UNL     1      -3.572 -12.100  14.975  0.00  0.00    -0.175 NA
ATOM      8  N   UNL     1      -3.640 -12.201  11.816  0.00  0.00    -0.310 N 
ATOM     12  C   UNL     1      -3.096 -14.055  13.497  0.00  0.00    +0.025 C 
ATOM     13  C   UNL     1      -1.668 -12.060  13.377  0.00  0.00    +0.052 C 
ATOM     14  C   UNL     1      -1.657 -13.586  13.333  0.00  0.00    +0.017 C 
ATOM     15  C   UNL     1      -3.668 -13.582  14.844  0.00  0.00    +0.114 C 
ATOM     16  C   UNL     1      -2.188 -11.588  14.747  0.00  0.00    +0.119 C 
ATOM     17  C   UNL     1      -3.921 -13.559  12.303  0.00  0.00    +0.130 C 
ATOM     18  C   UNL     1      -2.523 -11.489  12.260  0.00  0.00    +0.026 A 
ATOM     19  C   UNL     1      -2.221 -10.297  11.719  0.00  0.00    +0.024 A 
ATOM     20  C   UNL     1      -4.493 -11.701  10.810  0.00  0.00    +0.273 A 
ATOM     21  C   UNL     1      -4.136 -10.360  10.249  0.00  0.00    +0.099 A 
ATOM     22  C   UNL     1      -3.048  -9.723  10.694  0.00  0.00    +0.030 A 
ENDROOT
BRANCH  21   9
ATOM      6  O   UNL     1      -6.436  -8.797  10.698  0.00  0.00    -0.268 OA
ATOM      9  N   UNL     1      -4.942  -9.836   9.282  0.00  0.00    -0.276 N 
ATOM     27  C   UNL     1      -6.076  -9.066   9.551  0.00  0.00    +0.268 C 
ATOM     32  H   UNL     1      -4.581  -9.834   8.331  0.00  0.00    +0.155 HD
BRANCH  27  28
ATOM     10  N   UNL     1      -6.622  -9.264   7.242  0.00  0.00    -0.247 NA
ATOM     11  N   UNL     1      -8.254  -6.987   7.381  0.00  0.00    -0.259 NA
ATOM     28  C   UNL     1      -6.797  -8.567   8.371  0.00  0.00    +0.144 A 
ATOM     29  C   UNL     1      -7.588  -7.455   8.455  0.00  0.00    +0.143 A 
ATOM     30  C   UNL     1      -7.287  -8.797   6.166  0.00  0.00    +0.131 A 
ATOM     31  C   UNL     1      -8.089  -7.678   6.236  0.00  0.00    +0.130 A 
ENDBRANCH  27  28
ENDBRANCH  21   9
BRANCH   7   1
ATOM      1  S   UNL     1      -4.401 -11.421  16.309  0.00  0.00    +0.067 S 
ATOM      3  O   UNL     1      -3.640 -10.299  16.818  0.00  0.00    -0.152 OA
ATOM      4  O   UNL     1      -4.835 -12.487  17.186  0.00  0.00    -0.152 OA
BRANCH   1  23
ATOM      2  S   UNL     1      -7.160 -10.479  16.521  0.00  0.00    -0.077 S 
ATOM     23  C   UNL     1      -5.828 -10.776  15.492  0.00  0.00    +0.143 A 
ATOM     24  C   UNL     1      -6.095 -10.461  14.184  0.00  0.00    +0.036 A 
ATOM     25  C   UNL     1      -7.419  -9.964  14.019  0.00  0.00    +0.010 A 
ATOM     26  C   UNL     1      -8.108  -9.921  15.209  0.00  0.00    +0.047 A 
ENDBRANCH   1  23
ENDBRANCH   7   1
TORSDOF 4
ENDMDL
MODEL 8
REMARK VINA RESULT:      -6.6     15.446     17.266
REMARK  Name = 7142872
REMARK  4 active torsions:
REMARK  status: ('A' for Active; 'I' for Inactive)
REMARK    1  A    between atoms: S_1  and  N_7
REMARK    2  A    between atoms: S_1  and  C_23
REMARK    3  A    between atoms: N_9  and  C_21
REMARK    4  A    between atoms: C_27  and  C_28
REMARK                            x       y       z     vdW  Elec       q    Type
REMARK                         _______ _______ _______ _____ _____    ______ ____
ROOT
ATOM      5  O   UNL     1     -12.780   4.895  22.733  0.00  0.00    -0.266 OA
ATOM      7  N   UNL     1     -13.224   9.546  21.000  0.00  0.00    -0.175 NA
ATOM      8  N   UNL     1     -13.374   6.388  21.035  0.00  0.00    -0.310 N 
ATOM     12  C   UNL     1     -11.680   7.929  19.889  0.00  0.00    +0.025 C 
ATOM     13  C   UNL     1     -14.043   8.008  19.226  0.00  0.00    +0.052 C 
ATOM     14  C   UNL     1     -12.621   7.842  18.696  0.00  0.00    +0.017 C 
ATOM     15  C   UNL     1     -11.814   9.293  20.586  0.00  0.00    +0.114 C 
ATOM     16  C   UNL     1     -14.193   9.397  19.873  0.00  0.00    +0.119 C 
ATOM     17  C   UNL     1     -11.965   6.757  20.836  0.00  0.00    +0.130 C 
ATOM     18  C   UNL     1     -14.383   6.918  20.226  0.00  0.00    +0.026 A 
ATOM     19  C   UNL     1     -15.648   6.482  20.349  0.00  0.00    +0.024 A 
ATOM     20  C   UNL     1     -13.638   5.403  22.009  0.00  0.00    +0.273 A 
ATOM     21  C   UNL     1     -15.064   4.961  22.131  0.00  0.00    +0.099 A 
ATOM     22  C   UNL     1     -15.991   5.485  21.324  0.00  0.00    +0.030 A 
ENDROOT
BRANCH  21   9
ATOM      6  O   UNL     1     -16.288   5.452  24.620  0.00  0.00    -0.268 OA
ATOM      9  N   UNL     1     -15.363   4.018  23.069  0.00  0.00    -0.276 N 
ATOM     27  C   UNL     1     -15.970   4.307  24.293  0.00  0.00    +0.268 C 
ATOM     32  H   UNL     1     -15.331   3.046  22.772  0.00  0.00    +0.155 HD
BRANCH  27  28
ATOM     10  N   UNL     1     -16.166   3.372  26.474  0.00  0.00    -0.247 NA
ATOM     11  N   UNL     1     -16.784   0.858  25.396  0.00  0.00    -0.259 NA
ATOM     28  C   UNL     1     -16.238   3.147  25.157  0.00  0.00    +0.144 A 
ATOM     29  C   UNL     1     -16.537   1.928  24.615  0.00  0.00    +0.143 A 
ATOM     30  C   UNL     1     -16.413   2.302  27.256  0.00  0.00    +0.131 A 
ATOM     31  C   UNL     1     -16.717   1.067  26.726  0.00  0.00    +0.130 A 
ENDBRANCH  27  28
ENDBRANCH  21   9
BRANCH   7   1
ATOM      1  S   UNL     1     -13.466  10.907  22.008  0.00  0.00    +0.067 S 
ATOM      3  O   UNL     1     -13.951  12.010  21.205  0.00  0.00    -0.152 OA
ATOM      4  O   UNL     1     -12.317  11.063  22.873  0.00  0.00    -0.152 OA
BRANCH   1  23
ATOM      2  S   UNL     1     -16.001  11.508  23.334  0.00  0.00    -0.077 S 
ATOM     23  C   UNL     1     -14.812  10.327  22.993  0.00  0.00    +0.143 A 
ATOM     24  C   UNL     1     -15.107   9.110  23.553  0.00  0.00    +0.036 A 
ATOM     25  C   UNL     1     -16.334   9.142  24.276  0.00  0.00    +0.010 A 
ATOM     26  C   UNL     1     -16.924  10.385  24.239  0.00  0.00    +0.047 A 
ENDBRANCH   1  23
ENDBRANCH   7   1
TORSDOF 4
ENDMDL
MODEL 9
REMARK VINA RESULT:      -6.5      4.183      9.286
REMARK  Name = 7142872
REMARK  4 active torsions:
REMARK  status: ('A' for Active; 'I' for Inactive)
REMARK    1  A    between atoms: S_1  and  N_7
REMARK    2  A    between atoms: S_1  and  C_23
REMARK    3  A    between atoms: N_9  and  C_21
REMARK    4  A    between atoms: C_27  and  C_28
REMARK                            x       y       z     vdW  Elec       q    Type
REMARK                         _______ _______ _______ _____ _____    ______ ____
ROOT
ATOM      5  O   UNL     1      -7.823  -8.797  17.469  0.00  0.00    -0.266 OA
ATOM      7  N   UNL     1      -4.196 -11.593  15.504  0.00  0.00    -0.175 NA
ATOM      8  N   UNL     1      -6.766 -10.863  17.196  0.00  0.00    -0.310 N 
ATOM     12  C   UNL     1      -4.368 -11.309  17.979  0.00  0.00    +0.025 C 
ATOM     13  C   UNL     1      -5.639 -13.092  16.866  0.00  0.00    +0.052 C 
ATOM     14  C   UNL     1      -4.833 -12.752  18.117  0.00  0.00    +0.017 C 
ATOM     15  C   UNL     1      -3.482 -11.143  16.733  0.00  0.00    +0.114 C 
ATOM     16  C   UNL     1      -4.735 -12.981  15.625  0.00  0.00    +0.119 C 
ATOM     17  C   UNL     1      -5.597 -10.391  17.951  0.00  0.00    +0.130 C 
ATOM     18  C   UNL     1      -6.843 -12.179  16.729  0.00  0.00    +0.026 A 
ATOM     19  C   UNL     1      -7.967 -12.623  16.142  0.00  0.00    +0.024 A 
ATOM     20  C   UNL     1      -7.838  -9.958  17.059  0.00  0.00    +0.273 A 
ATOM     21  C   UNL     1      -9.064 -10.485  16.379  0.00  0.00    +0.099 A 
ATOM     22  C   UNL     1      -9.097 -11.755  15.963  0.00  0.00    +0.030 A 
ENDROOT
BRANCH  21   9
ATOM      6  O   UNL     1      -9.502  -8.815  14.152  0.00  0.00    -0.268 OA
ATOM      9  N   UNL     1     -10.120  -9.637  16.216  0.00  0.00    -0.276 N 
ATOM     27  C   UNL     1     -10.296  -8.825  15.094  0.00  0.00    +0.268 C 
ATOM     32  H   UNL     1     -10.911  -9.761  16.843  0.00  0.00    +0.155 HD
BRANCH  27  28
ATOM     10  N   UNL     1     -12.670  -8.670  14.974  0.00  0.00    -0.247 NA
ATOM     11  N   UNL     1     -12.549  -5.878  15.206  0.00  0.00    -0.259 NA
ATOM     28  C   UNL     1     -11.515  -8.003  15.093  0.00  0.00    +0.144 A 
ATOM     29  C   UNL     1     -11.439  -6.643  15.206  0.00  0.00    +0.143 A 
ATOM     30  C   UNL     1     -13.780  -7.906  14.974  0.00  0.00    +0.131 A 
ATOM     31  C   UNL     1     -13.720  -6.534  15.089  0.00  0.00    +0.130 A 
ENDBRANCH  27  28
ENDBRANCH  21   9
BRANCH   7   1
ATOM      1  S   UNL     1      -3.423 -11.226  14.023  0.00  0.00    +0.067 S 
ATOM      3  O   UNL     1      -3.195 -12.454  13.291  0.00  0.00    -0.152 OA
ATOM      4  O   UNL     1      -2.342 -10.297  14.274  0.00  0.00    -0.152 OA
BRANCH   1  23
ATOM      2  S   UNL     1      -4.374  -9.922  11.586  0.00  0.00    -0.077 S 
ATOM     23  C   UNL     1      -4.717 -10.346  13.207  0.00  0.00    +0.143 A 
ATOM     24  C   UNL     1      -5.959  -9.922  13.608  0.00  0.00    +0.036 A 
ATOM     25  C   UNL     1      -6.647  -9.236  12.566  0.00  0.00    +0.010 A 
ATOM     26  C   UNL     1      -5.899  -9.164  11.413  0.00  0.00    +0.047 A 
ENDBRANCH   1  23
ENDBRANCH   7   1
TORSDOF 4
ENDMDL
MODEL 10
REMARK VINA RESULT:      -6.4     27.879     29.778
REMARK  Name = 7142872
REMARK  4 active torsions:
REMARK  status: ('A' for Active; 'I' for Inactive)
REMARK    1  A    between atoms: S_1  and  N_7
REMARK    2  A    between atoms: S_1  and  C_23
REMARK    3  A    between atoms: N_9  and  C_21
REMARK    4  A    between atoms: C_27  and  C_28
REMARK                            x       y       z     vdW  Elec       q    Type
REMARK                         _______ _______ _______ _____ _____    ______ ____
ROOT
ATOM      5  O   UNL     1      10.829   7.099   0.963  0.00  0.00    -0.266 OA
ATOM      7  N   UNL     1      11.305   7.121   5.923  0.00  0.00    -0.175 NA
ATOM      8  N   UNL     1      10.238   6.276   3.069  0.00  0.00    -0.310 N 
ATOM     12  C   UNL     1       9.127   7.726   4.863  0.00  0.00    +0.025 C 
ATOM     13  C   UNL     1       9.636   5.372   5.343  0.00  0.00    +0.052 C 
ATOM     14  C   UNL     1       8.522   6.416   5.347  0.00  0.00    +0.017 C 
ATOM     15  C   UNL     1      10.259   8.178   5.801  0.00  0.00    +0.114 C 
ATOM     16  C   UNL     1      10.743   5.796   6.324  0.00  0.00    +0.119 C 
ATOM     17  C   UNL     1       9.599   7.553   3.414  0.00  0.00    +0.130 C 
ATOM     18  C   UNL     1      10.206   5.189   3.948  0.00  0.00    +0.026 A 
ATOM     19  C   UNL     1      10.696   3.997   3.568  0.00  0.00    +0.024 A 
ATOM     20  C   UNL     1      10.792   6.175   1.777  0.00  0.00    +0.273 A 
ATOM     21  C   UNL     1      11.349   4.837   1.400  0.00  0.00    +0.099 A 
ATOM     22  C   UNL     1      11.280   3.822   2.267  0.00  0.00    +0.030 A 
ENDROOT
BRANCH  21   9
ATOM      6  O   UNL     1       9.941   4.306  -0.982  0.00  0.00    -0.268 OA
ATOM      9  N   UNL     1      11.904   4.700   0.162  0.00  0.00    -0.276 N 
ATOM     27  C   UNL     1      11.166   4.436  -0.994  0.00  0.00    +0.268 C 
ATOM     32  H   UNL     1      12.866   5.012   0.051  0.00  0.00    +0.155 HD
BRANCH  27  28
ATOM     10  N   UNL     1      11.249   4.080  -3.347  0.00  0.00    -0.247 NA
ATOM     11  N   UNL     1      14.025   4.480  -3.361  0.00  0.00    -0.259 NA
ATOM     28  C   UNL     1      11.946   4.355  -2.238  0.00  0.00    +0.144 A 
ATOM     29  C   UNL     1      13.299   4.552  -2.228  0.00  0.00    +0.143 A 
ATOM     30  C   UNL     1      11.974   4.007  -4.481  0.00  0.00    +0.131 A 
ATOM     31  C   UNL     1      13.337   4.204  -4.488  0.00  0.00    +0.130 A 
ENDBRANCH  27  28
ENDBRANCH  21   9
BRANCH   7   1
ATOM      1  S   UNL     1      12.739   7.591   6.729  0.00  0.00    +0.067 S 
ATOM      3  O   UNL     1      13.145   6.532   7.629  0.00  0.00    -0.152 OA
ATOM      4  O   UNL     1      12.592   8.952   7.198  0.00  0.00    -0.152 OA
BRANCH   1  23
ATOM      2  S   UNL     1      15.464   8.061   5.780  0.00  0.00    -0.077 S 
ATOM     23  C   UNL     1      13.868   7.605   5.371  0.00  0.00    +0.143 A 
ATOM     24  C   UNL     1      13.729   7.323   4.035  0.00  0.00    +0.036 A 
ATOM     25  C   UNL     1      14.956   7.483   3.330  0.00  0.00    +0.010 A 
ATOM     26  C   UNL     1      15.981   7.881   4.158  0.00  0.00    +0.047 A 
ENDBRANCH   1  23
ENDBRANCH   7   1
TORSDOF 4
ENDMDL
