MODEL 1
REMARK VINA RESULT:      -7.5      0.000      0.000
REMARK  Name = 71693787
REMARK  6 active torsions:
REMARK  status: ('A' for Active; 'I' for Inactive)
REMARK    1  A    between atoms: O_1  and  C_10
REMARK    2  A    between atoms: O_2  and  C_11
REMARK    3  A    between atoms: N_4  and  C_8
REMARK    4  A    between atoms: N_5  and  C_18
REMARK    5  A    between atoms: C_6  and  C_7
REMARK    6  A    between atoms: C_18  and  C_19
REMARK                            x       y       z     vdW  Elec       q    Type
REMARK                         _______ _______ _______ _____ _____    ______ ____
ROOT
ATOM      6  C   UNL     1      12.369   8.066  19.972  0.00  0.00    +0.017 C 
ATOM      8  C   UNL     1      12.828   6.711  20.565  0.00  0.00    +0.109 C 
ATOM      9  C   UNL     1      10.897   8.198  20.372  0.00  0.00    +0.039 C 
ATOM     10  C   UNL     1      11.697   6.257  21.503  0.00  0.00    +0.163 C 
ATOM     11  C   UNL     1      10.862   7.515  21.730  0.00  0.00    +0.145 C 
ENDROOT
BRANCH   8   4
ATOM      3  O   UNL     1      15.479   6.182  19.550  0.00  0.00    -0.253 OA
ATOM      4  N   UNL     1      14.075   6.845  21.277  0.00  0.00    -0.294 N 
ATOM      5  N   UNL     1      16.352   6.778  21.615  0.00  0.00    -0.300 N 
ATOM     17  C   UNL     1      15.318   6.566  20.708  0.00  0.00    +0.300 C 
ATOM     20  H   UNL     1      14.047   7.073  22.266  0.00  0.00    +0.151 HD
ATOM     23  H   UNL     1      16.124   7.109  22.547  0.00  0.00    +0.150 HD
BRANCH   5  18
ATOM     18  C   UNL     1      17.741   6.565  21.282  0.00  0.00    +0.102 C 
ATOM     19  C   UNL     1      18.508   7.871  21.242  0.00  0.00    +0.024 C 
ENDBRANCH   5  18
ENDBRANCH   8   4
BRANCH   6   7
ATOM      7  C   UNL     1      12.570   8.152  18.467  0.00  0.00    -0.006 C 
ATOM     12  C   UNL     1      13.827   8.968  18.133  0.00  0.00    +0.004 C 
ATOM     13  C   UNL     1      11.332   8.755  17.788  0.00  0.00    +0.004 C 
ATOM     14  C   UNL     1      14.021   9.115  16.626  0.00  0.00    +0.000 C 
ATOM     15  C   UNL     1      11.531   8.902  16.281  0.00  0.00    +0.000 C 
ATOM     16  C   UNL     1      12.785   9.706  15.954  0.00  0.00    +0.000 C 
ENDBRANCH   6   7
BRANCH  10   1
ATOM      1  O   UNL     1      10.933   5.263  20.822  0.00  0.00    -0.387 OA
ATOM     21  H   UNL     1      10.489   4.724  21.499  0.00  0.00    +0.210 HD
ENDBRANCH  10   1
BRANCH  11   2
ATOM      2  O   UNL     1       9.545   7.210  22.144  0.00  0.00    -0.389 OA
ATOM     22  H   UNL     1       9.073   6.852  21.373  0.00  0.00    +0.210 HD
ENDBRANCH  11   2
TORSDOF 5
ENDMDL
MODEL 2
REMARK VINA RESULT:      -6.6      2.400      5.351
REMARK  Name = 71693787
REMARK  6 active torsions:
REMARK  status: ('A' for Active; 'I' for Inactive)
REMARK    1  A    between atoms: O_1  and  C_10
REMARK    2  A    between atoms: O_2  and  C_11
REMARK    3  A    between atoms: N_4  and  C_8
REMARK    4  A    between atoms: N_5  and  C_18
REMARK    5  A    between atoms: C_6  and  C_7
REMARK    6  A    between atoms: C_18  and  C_19
REMARK                            x       y       z     vdW  Elec       q    Type
REMARK                         _______ _______ _______ _____ _____    ______ ____
ROOT
ATOM      6  C   UNL     1      14.661   7.680  19.740  0.00  0.00    +0.017 C 
ATOM      8  C   UNL     1      13.445   7.535  20.686  0.00  0.00    +0.109 C 
ATOM      9  C   UNL     1      14.159   7.211  18.372  0.00  0.00    +0.039 C 
ATOM     10  C   UNL     1      12.235   7.257  19.779  0.00  0.00    +0.163 C 
ATOM     11  C   UNL     1      12.705   7.657  18.383  0.00  0.00    +0.145 C 
ENDROOT
BRANCH   8   4
ATOM      3  O   UNL     1      11.206   8.132  22.410  0.00  0.00    -0.253 OA
ATOM      4  N   UNL     1      13.245   8.728  21.471  0.00  0.00    -0.294 N 
ATOM      5  N   UNL     1      12.190  10.169  22.926  0.00  0.00    -0.300 N 
ATOM     17  C   UNL     1      12.128   8.937  22.281  0.00  0.00    +0.300 C 
ATOM     20  H   UNL     1      13.906   9.493  21.370  0.00  0.00    +0.151 HD
ATOM     23  H   UNL     1      12.997  10.763  22.768  0.00  0.00    +0.150 HD
BRANCH   5  18
ATOM     18  C   UNL     1      11.160  10.634  23.825  0.00  0.00    +0.102 C 
ATOM     19  C   UNL     1      10.900  12.117  23.652  0.00  0.00    +0.024 C 
ENDBRANCH   5  18
ENDBRANCH   8   4
BRANCH   6   7
ATOM      7  C   UNL     1      15.876   6.895  20.211  0.00  0.00    -0.006 C 
ATOM     12  C   UNL     1      16.841   7.803  20.987  0.00  0.00    +0.004 C 
ATOM     13  C   UNL     1      16.587   6.231  19.023  0.00  0.00    +0.004 C 
ATOM     14  C   UNL     1      18.095   7.050  21.424  0.00  0.00    +0.000 C 
ATOM     15  C   UNL     1      17.842   5.481  19.465  0.00  0.00    +0.000 C 
ATOM     16  C   UNL     1      18.793   6.385  20.243  0.00  0.00    +0.000 C 
ENDBRANCH   6   7
BRANCH  10   1
ATOM      1  O   UNL     1      11.958   5.858  19.833  0.00  0.00    -0.387 OA
ATOM     21  H   UNL     1      12.703   5.398  19.410  0.00  0.00    +0.210 HD
ENDBRANCH  10   1
BRANCH  11   2
ATOM      2  O   UNL     1      11.945   7.034  17.367  0.00  0.00    -0.389 OA
ATOM     22  H   UNL     1      11.664   7.728  16.747  0.00  0.00    +0.210 HD
ENDBRANCH  11   2
TORSDOF 5
ENDMDL
MODEL 3
REMARK VINA RESULT:      -6.2      2.478      4.450
REMARK  Name = 71693787
REMARK  6 active torsions:
REMARK  status: ('A' for Active; 'I' for Inactive)
REMARK    1  A    between atoms: O_1  and  C_10
REMARK    2  A    between atoms: O_2  and  C_11
REMARK    3  A    between atoms: N_4  and  C_8
REMARK    4  A    between atoms: N_5  and  C_18
REMARK    5  A    between atoms: C_6  and  C_7
REMARK    6  A    between atoms: C_18  and  C_19
REMARK                            x       y       z     vdW  Elec       q    Type
REMARK                         _______ _______ _______ _____ _____    ______ ____
ROOT
ATOM      6  C   UNL     1      12.119   8.302  18.448  0.00  0.00    +0.017 C 
ATOM      8  C   UNL     1      13.477   9.042  18.479  0.00  0.00    +0.109 C 
ATOM      9  C   UNL     1      11.394   8.851  17.217  0.00  0.00    +0.039 C 
ATOM     10  C   UNL     1      13.591   9.771  17.130  0.00  0.00    +0.163 C 
ATOM     11  C   UNL     1      12.536   9.108  16.248  0.00  0.00    +0.145 C 
ENDROOT
BRANCH   8   4
ATOM      3  O   UNL     1      14.838   8.440  20.955  0.00  0.00    -0.253 OA
ATOM      4  N   UNL     1      14.573   8.123  18.669  0.00  0.00    -0.294 N 
ATOM      5  N   UNL     1      16.205   6.960  19.805  0.00  0.00    -0.300 N 
ATOM     17  C   UNL     1      15.175   7.891  19.906  0.00  0.00    +0.300 C 
ATOM     20  H   UNL     1      14.984   7.682  17.852  0.00  0.00    +0.151 HD
ATOM     23  H   UNL     1      16.404   6.549  18.898  0.00  0.00    +0.150 HD
BRANCH   5  18
ATOM     18  C   UNL     1      16.993   6.538  20.939  0.00  0.00    +0.102 C 
ATOM     19  C   UNL     1      18.383   7.139  20.902  0.00  0.00    +0.024 C 
ENDBRANCH   5  18
ENDBRANCH   8   4
BRANCH   6   7
ATOM      7  C   UNL     1      11.313   8.487  19.726  0.00  0.00    -0.006 C 
ATOM     12  C   UNL     1      11.769   9.745  20.477  0.00  0.00    +0.004 C 
ATOM     13  C   UNL     1      11.425   7.245  20.622  0.00  0.00    +0.004 C 
ATOM     14  C   UNL     1      11.012   9.923  21.791  0.00  0.00    +0.000 C 
ATOM     15  C   UNL     1      10.668   7.428  21.935  0.00  0.00    +0.000 C 
ATOM     16  C   UNL     1      11.117   8.684  22.674  0.00  0.00    +0.000 C 
ENDBRANCH   6   7
BRANCH  10   1
ATOM      1  O   UNL     1      13.273  11.146  17.346  0.00  0.00    -0.387 OA
ATOM     21  H   UNL     1      12.738  11.196  18.157  0.00  0.00    +0.210 HD
ENDBRANCH  10   1
BRANCH  11   2
ATOM      2  O   UNL     1      12.150   9.935  15.169  0.00  0.00    -0.389 OA
ATOM     22  H   UNL     1      12.904  10.512  14.960  0.00  0.00    +0.210 HD
ENDBRANCH  11   2
TORSDOF 5
ENDMDL
MODEL 4
REMARK VINA RESULT:      -5.9     29.957     31.096
REMARK  Name = 71693787
REMARK  6 active torsions:
REMARK  status: ('A' for Active; 'I' for Inactive)
REMARK    1  A    between atoms: O_1  and  C_10
REMARK    2  A    between atoms: O_2  and  C_11
REMARK    3  A    between atoms: N_4  and  C_8
REMARK    4  A    between atoms: N_5  and  C_18
REMARK    5  A    between atoms: C_6  and  C_7
REMARK    6  A    between atoms: C_18  and  C_19
REMARK                            x       y       z     vdW  Elec       q    Type
REMARK                         _______ _______ _______ _____ _____    ______ ____
ROOT
ATOM      6  C   UNL     1     -14.285   2.576  30.204  0.00  0.00    +0.017 C 
ATOM      8  C   UNL     1     -15.421   2.274  29.197  0.00  0.00    +0.109 C 
ATOM      9  C   UNL     1     -13.882   1.212  30.770  0.00  0.00    +0.039 C 
ATOM     10  C   UNL     1     -15.434   0.746  29.022  0.00  0.00    +0.163 C 
ATOM     11  C   UNL     1     -14.091   0.286  29.582  0.00  0.00    +0.145 C 
ENDROOT
BRANCH   8   4
ATOM      3  O   UNL     1     -17.380   2.829  27.148  0.00  0.00    -0.253 OA
ATOM      4  N   UNL     1     -15.199   2.941  27.937  0.00  0.00    -0.294 N 
ATOM      5  N   UNL     1     -15.717   3.831  25.877  0.00  0.00    -0.300 N 
ATOM     17  C   UNL     1     -16.206   3.169  27.000  0.00  0.00    +0.300 C 
ATOM     20  H   UNL     1     -14.247   3.185  27.679  0.00  0.00    +0.151 HD
ATOM     23  H   UNL     1     -14.735   4.083  25.849  0.00  0.00    +0.150 HD
BRANCH   5  18
ATOM     18  C   UNL     1     -16.552   4.190  24.755  0.00  0.00    +0.102 C 
ATOM     19  C   UNL     1     -16.430   3.185  23.629  0.00  0.00    +0.024 C 
ENDBRANCH   5  18
ENDBRANCH   8   4
BRANCH   6   7
ATOM      7  C   UNL     1     -14.702   3.555  31.291  0.00  0.00    -0.006 C 
ATOM     12  C   UNL     1     -13.479   4.043  32.080  0.00  0.00    +0.004 C 
ATOM     13  C   UNL     1     -15.737   2.916  32.228  0.00  0.00    +0.004 C 
ATOM     14  C   UNL     1     -13.878   4.986  33.212  0.00  0.00    +0.000 C 
ATOM     15  C   UNL     1     -16.132   3.861  33.360  0.00  0.00    +0.000 C 
ATOM     16  C   UNL     1     -14.912   4.351  34.136  0.00  0.00    +0.000 C 
ENDBRANCH   6   7
BRANCH  10   1
ATOM      1  O   UNL     1     -16.509   0.224  29.803  0.00  0.00    -0.387 OA
ATOM     21  H   UNL     1     -16.508   0.699  30.652  0.00  0.00    +0.210 HD
ENDBRANCH  10   1
BRANCH  11   2
ATOM      2  O   UNL     1     -14.111  -1.075  29.960  0.00  0.00    -0.389 OA
ATOM     22  H   UNL     1     -15.042  -1.347  30.019  0.00  0.00    +0.210 HD
ENDBRANCH  11   2
TORSDOF 5
ENDMDL
MODEL 5
REMARK VINA RESULT:      -5.9     30.111     31.172
REMARK  Name = 71693787
REMARK  6 active torsions:
REMARK  status: ('A' for Active; 'I' for Inactive)
REMARK    1  A    between atoms: O_1  and  C_10
REMARK    2  A    between atoms: O_2  and  C_11
REMARK    3  A    between atoms: N_4  and  C_8
REMARK    4  A    between atoms: N_5  and  C_18
REMARK    5  A    between atoms: C_6  and  C_7
REMARK    6  A    between atoms: C_18  and  C_19
REMARK                            x       y       z     vdW  Elec       q    Type
REMARK                         _______ _______ _______ _____ _____    ______ ____
ROOT
ATOM      6  C   UNL     1     -16.123   1.516  29.891  0.00  0.00    +0.017 C 
ATOM      8  C   UNL     1     -15.059   2.331  30.664  0.00  0.00    +0.109 C 
ATOM      9  C   UNL     1     -15.381   0.280  29.375  0.00  0.00    +0.039 C 
ATOM     10  C   UNL     1     -13.835   1.411  30.795  0.00  0.00    +0.163 C 
ATOM     11  C   UNL     1     -14.371   0.016  30.481  0.00  0.00    +0.145 C 
ENDROOT
BRANCH   8   4
ATOM      3  O   UNL     1     -14.213   4.622  32.206  0.00  0.00    -0.253 OA
ATOM      4  N   UNL     1     -15.547   2.738  31.959  0.00  0.00    -0.294 N 
ATOM      5  N   UNL     1     -15.722   4.023  33.863  0.00  0.00    -0.300 N 
ATOM     17  C   UNL     1     -15.081   3.864  32.637  0.00  0.00    +0.300 C 
ATOM     20  H   UNL     1     -16.204   2.132  32.443  0.00  0.00    +0.151 HD
ATOM     23  H   UNL     1     -16.436   3.353  34.131  0.00  0.00    +0.150 HD
BRANCH   5  18
ATOM     18  C   UNL     1     -15.426   5.111  34.765  0.00  0.00    +0.102 C 
ATOM     19  C   UNL     1     -14.230   4.798  35.639  0.00  0.00    +0.024 C 
ENDBRANCH   5  18
ENDBRANCH   8   4
BRANCH   6   7
ATOM      7  C   UNL     1     -16.779   2.308  28.770  0.00  0.00    -0.006 C 
ATOM     12  C   UNL     1     -16.742   1.519  27.454  0.00  0.00    +0.004 C 
ATOM     13  C   UNL     1     -16.103   3.677  28.606  0.00  0.00    +0.004 C 
ATOM     14  C   UNL     1     -17.347   2.317  26.301  0.00  0.00    +0.000 C 
ATOM     15  C   UNL     1     -16.709   4.470  27.451  0.00  0.00    +0.000 C 
ATOM     16  C   UNL     1     -16.678   3.679  26.147  0.00  0.00    +0.000 C 
ENDBRANCH   6   7
BRANCH  10   1
ATOM      1  O   UNL     1     -12.876   1.812  29.817  0.00  0.00    -0.387 OA
ATOM     21  H   UNL     1     -13.066   1.314  29.004  0.00  0.00    +0.210 HD
ENDBRANCH  10   1
BRANCH  11   2
ATOM      2  O   UNL     1     -13.346  -0.867  30.072  0.00  0.00    -0.389 OA
ATOM     22  H   UNL     1     -13.512  -1.723  30.501  0.00  0.00    +0.210 HD
ENDBRANCH  11   2
TORSDOF 5
ENDMDL
MODEL 6
REMARK VINA RESULT:      -5.7     12.030     14.562
REMARK  Name = 71693787
REMARK  6 active torsions:
REMARK  status: ('A' for Active; 'I' for Inactive)
REMARK    1  A    between atoms: O_1  and  C_10
REMARK    2  A    between atoms: O_2  and  C_11
REMARK    3  A    between atoms: N_4  and  C_8
REMARK    4  A    between atoms: N_5  and  C_18
REMARK    5  A    between atoms: C_6  and  C_7
REMARK    6  A    between atoms: C_18  and  C_19
REMARK                            x       y       z     vdW  Elec       q    Type
REMARK                         _______ _______ _______ _____ _____    ______ ____
ROOT
ATOM      6  C   UNL     1       9.749   6.106   5.752  0.00  0.00    +0.017 C 
ATOM      8  C   UNL     1      10.502   6.983   6.782  0.00  0.00    +0.109 C 
ATOM      9  C   UNL     1       9.899   4.672   6.264  0.00  0.00    +0.039 C 
ATOM     10  C   UNL     1      10.813   6.061   7.972  0.00  0.00    +0.163 C 
ATOM     11  C   UNL     1       9.896   4.857   7.773  0.00  0.00    +0.145 C 
ENDROOT
BRANCH   8   4
ATOM      3  O   UNL     1      11.458   9.499   7.827  0.00  0.00    -0.253 OA
ATOM      4  N   UNL     1       9.706   8.113   7.192  0.00  0.00    -0.294 N 
ATOM      5  N   UNL     1       9.260  10.221   8.007  0.00  0.00    -0.300 N 
ATOM     17  C   UNL     1      10.252   9.297   7.689  0.00  0.00    +0.300 C 
ATOM     20  H   UNL     1       8.695   8.018   7.199  0.00  0.00    +0.151 HD
ATOM     23  H   UNL     1       8.290   9.971   7.846  0.00  0.00    +0.150 HD
BRANCH   5  18
ATOM     18  C   UNL     1       9.553  11.531   8.540  0.00  0.00    +0.102 C 
ATOM     19  C   UNL     1       9.372  11.571  10.044  0.00  0.00    +0.024 C 
ENDBRANCH   5  18
ENDBRANCH   8   4
BRANCH   6   7
ATOM      7  C   UNL     1      10.274   6.274   4.334  0.00  0.00    -0.006 C 
ATOM     12  C   UNL     1       9.282   7.075   3.479  0.00  0.00    +0.004 C 
ATOM     13  C   UNL     1      10.564   4.907   3.698  0.00  0.00    +0.004 C 
ATOM     14  C   UNL     1       9.761   7.211   2.037  0.00  0.00    +0.000 C 
ATOM     15  C   UNL     1      11.042   5.047   2.255  0.00  0.00    +0.000 C 
ATOM     16  C   UNL     1      10.057   5.852   1.411  0.00  0.00    +0.000 C 
ENDBRANCH   6   7
BRANCH  10   1
ATOM      1  O   UNL     1      12.182   5.669   7.879  0.00  0.00    -0.387 OA
ATOM     21  H   UNL     1      12.263   5.077   7.111  0.00  0.00    +0.210 HD
ENDBRANCH  10   1
BRANCH  11   2
ATOM      2  O   UNL     1      10.365   3.712   8.456  0.00  0.00    -0.389 OA
ATOM     22  H   UNL     1       9.655   3.416   9.050  0.00  0.00    +0.210 HD
ENDBRANCH  11   2
TORSDOF 5
ENDMDL
MODEL 7
REMARK VINA RESULT:      -5.6     25.522     27.269
REMARK  Name = 71693787
REMARK  6 active torsions:
REMARK  status: ('A' for Active; 'I' for Inactive)
REMARK    1  A    between atoms: O_1  and  C_10
REMARK    2  A    between atoms: O_2  and  C_11
REMARK    3  A    between atoms: N_4  and  C_8
REMARK    4  A    between atoms: N_5  and  C_18
REMARK    5  A    between atoms: C_6  and  C_7
REMARK    6  A    between atoms: C_18  and  C_19
REMARK                            x       y       z     vdW  Elec       q    Type
REMARK                         _______ _______ _______ _____ _____    ______ ____
ROOT
ATOM      6  C   UNL     1      -4.489 -11.332  17.874  0.00  0.00    +0.017 C 
ATOM      8  C   UNL     1      -5.384 -12.559  17.577  0.00  0.00    +0.109 C 
ATOM      9  C   UNL     1      -5.381 -10.369  18.661  0.00  0.00    +0.039 C 
ATOM     10  C   UNL     1      -6.649 -12.374  18.431  0.00  0.00    +0.163 C 
ATOM     11  C   UNL     1      -6.264 -11.315  19.460  0.00  0.00    +0.145 C 
ENDROOT
BRANCH   8   4
ATOM      3  O   UNL     1      -5.175 -14.918  15.924  0.00  0.00    -0.253 OA
ATOM      4  N   UNL     1      -4.711 -13.792  17.901  0.00  0.00    -0.294 N 
ATOM      5  N   UNL     1      -3.947 -15.945  17.603  0.00  0.00    -0.300 N 
ATOM     17  C   UNL     1      -4.658 -14.888  17.040  0.00  0.00    +0.300 C 
ATOM     20  H   UNL     1      -4.325 -13.904  18.834  0.00  0.00    +0.151 HD
ATOM     23  H   UNL     1      -3.544 -15.824  18.526  0.00  0.00    +0.150 HD
BRANCH   5  18
ATOM     18  C   UNL     1      -3.741 -17.200  16.920  0.00  0.00    +0.102 C 
ATOM     19  C   UNL     1      -2.487 -17.171  16.070  0.00  0.00    +0.024 C 
ENDBRANCH   5  18
ENDBRANCH   8   4
BRANCH   6   7
ATOM      7  C   UNL     1      -3.918 -10.695  16.615  0.00  0.00    -0.006 C 
ATOM     12  C   UNL     1      -4.620 -11.243  15.364  0.00  0.00    +0.004 C 
ATOM     13  C   UNL     1      -2.402 -10.920  16.534  0.00  0.00    +0.004 C 
ATOM     14  C   UNL     1      -4.027 -10.659  14.085  0.00  0.00    +0.000 C 
ATOM     15  C   UNL     1      -1.813 -10.337  15.252  0.00  0.00    +0.000 C 
ATOM     16  C   UNL     1      -2.519 -10.876  14.011  0.00  0.00    +0.000 C 
ENDBRANCH   6   7
BRANCH  10   1
ATOM      1  O   UNL     1      -7.688 -11.892  17.579  0.00  0.00    -0.387 OA
ATOM     21  H   UNL     1      -7.263 -11.441  16.830  0.00  0.00    +0.210 HD
ENDBRANCH  10   1
BRANCH  11   2
ATOM      2  O   UNL     1      -7.395 -10.664  20.002  0.00  0.00    -0.389 OA
ATOM     22  H   UNL     1      -7.601 -11.096  20.848  0.00  0.00    +0.210 HD
ENDBRANCH  11   2
TORSDOF 5
ENDMDL
MODEL 8
REMARK VINA RESULT:      -5.6     22.022     24.416
REMARK  Name = 71693787
REMARK  6 active torsions:
REMARK  status: ('A' for Active; 'I' for Inactive)
REMARK    1  A    between atoms: O_1  and  C_10
REMARK    2  A    between atoms: O_2  and  C_11
REMARK    3  A    between atoms: N_4  and  C_8
REMARK    4  A    between atoms: N_5  and  C_18
REMARK    5  A    between atoms: C_6  and  C_7
REMARK    6  A    between atoms: C_18  and  C_19
REMARK                            x       y       z     vdW  Elec       q    Type
REMARK                         _______ _______ _______ _____ _____    ______ ____
ROOT
ATOM      6  C   UNL     1     -10.091   9.225  17.499  0.00  0.00    +0.017 C 
ATOM      8  C   UNL     1     -10.362  10.639  16.931  0.00  0.00    +0.109 C 
ATOM      9  C   UNL     1     -10.828   8.269  16.557  0.00  0.00    +0.039 C 
ATOM     10  C   UNL     1     -11.002  10.423  15.550  0.00  0.00    +0.163 C 
ATOM     11  C   UNL     1     -10.698   8.965  15.212  0.00  0.00    +0.145 C 
ENDROOT
BRANCH   8   4
ATOM      3  O   UNL     1     -10.020  13.450  17.500  0.00  0.00    -0.253 OA
ATOM      4  N   UNL     1      -9.145  11.406  16.827  0.00  0.00    -0.294 N 
ATOM      5  N   UNL     1      -7.777  13.256  16.938  0.00  0.00    -0.300 N 
ATOM     17  C   UNL     1      -9.068  12.767  17.123  0.00  0.00    +0.300 C 
ATOM     20  H   UNL     1      -8.319  10.957  16.442  0.00  0.00    +0.151 HD
ATOM     23  H   UNL     1      -7.051  12.615  16.636  0.00  0.00    +0.150 HD
BRANCH   5  18
ATOM     18  C   UNL     1      -7.422  14.636  17.175  0.00  0.00    +0.102 C 
ATOM     19  C   UNL     1      -5.921  14.812  17.276  0.00  0.00    +0.024 C 
ENDBRANCH   5  18
ENDBRANCH   8   4
BRANCH   6   7
ATOM      7  C   UNL     1     -10.536   9.072  18.945  0.00  0.00    -0.006 C 
ATOM     12  C   UNL     1     -11.306   7.758  19.140  0.00  0.00    +0.004 C 
ATOM     13  C   UNL     1     -11.387  10.273  19.381  0.00  0.00    +0.004 C 
ATOM     14  C   UNL     1     -11.810   7.607  20.573  0.00  0.00    +0.000 C 
ATOM     15  C   UNL     1     -11.890  10.118  20.814  0.00  0.00    +0.000 C 
ATOM     16  C   UNL     1     -12.648   8.807  21.005  0.00  0.00    +0.000 C 
ENDBRANCH   6   7
BRANCH  10   1
ATOM      1  O   UNL     1     -12.409  10.624  15.681  0.00  0.00    -0.387 OA
ATOM     21  H   UNL     1     -12.759   9.890  16.214  0.00  0.00    +0.210 HD
ENDBRANCH  10   1
BRANCH  11   2
ATOM      2  O   UNL     1     -11.593   8.445  14.249  0.00  0.00    -0.389 OA
ATOM     22  H   UNL     1     -12.389   9.003  14.261  0.00  0.00    +0.210 HD
ENDBRANCH  11   2
TORSDOF 5
ENDMDL
MODEL 9
REMARK VINA RESULT:      -5.4      2.665      4.348
REMARK  Name = 71693787
REMARK  6 active torsions:
REMARK  status: ('A' for Active; 'I' for Inactive)
REMARK    1  A    between atoms: O_1  and  C_10
REMARK    2  A    between atoms: O_2  and  C_11
REMARK    3  A    between atoms: N_4  and  C_8
REMARK    4  A    between atoms: N_5  and  C_18
REMARK    5  A    between atoms: C_6  and  C_7
REMARK    6  A    between atoms: C_18  and  C_19
REMARK                            x       y       z     vdW  Elec       q    Type
REMARK                         _______ _______ _______ _____ _____    ______ ____
ROOT
ATOM      6  C   UNL     1      13.337   7.400  19.684  0.00  0.00    +0.017 C 
ATOM      8  C   UNL     1      14.677   8.120  19.395  0.00  0.00    +0.109 C 
ATOM      9  C   UNL     1      12.461   7.683  18.462  0.00  0.00    +0.039 C 
ATOM     10  C   UNL     1      14.615   8.547  17.919  0.00  0.00    +0.163 C 
ATOM     11  C   UNL     1      13.475   7.721  17.330  0.00  0.00    +0.145 C 
ENDROOT
BRANCH   8   4
ATOM      3  O   UNL     1      16.934   8.641  21.119  0.00  0.00    -0.253 OA
ATOM      4  N   UNL     1      15.803   7.253  19.640  0.00  0.00    -0.294 N 
ATOM      5  N   UNL     1      17.807   6.569  20.546  0.00  0.00    -0.300 N 
ATOM     17  C   UNL     1      16.856   7.584  20.493  0.00  0.00    +0.300 C 
ATOM     20  H   UNL     1      15.879   6.392  19.106  0.00  0.00    +0.151 HD
ATOM     23  H   UNL     1      17.652   5.726  20.003  0.00  0.00    +0.150 HD
BRANCH   5  18
ATOM     18  C   UNL     1      19.000   6.656  21.356  0.00  0.00    +0.102 C 
ATOM     19  C   UNL     1      20.172   5.963  20.692  0.00  0.00    +0.024 C 
ENDBRANCH   5  18
ENDBRANCH   8   4
BRANCH   6   7
ATOM      7  C   UNL     1      12.687   7.857  20.982  0.00  0.00    -0.006 C 
ATOM     12  C   UNL     1      11.230   7.380  21.057  0.00  0.00    +0.004 C 
ATOM     13  C   UNL     1      12.770   9.384  21.122  0.00  0.00    +0.004 C 
ATOM     14  C   UNL     1      10.540   7.872  22.326  0.00  0.00    +0.000 C 
ATOM     15  C   UNL     1      12.077   9.872  22.391  0.00  0.00    +0.000 C 
ATOM     16  C   UNL     1      10.632   9.388  22.466  0.00  0.00    +0.000 C 
ENDBRANCH   6   7
BRANCH  10   1
ATOM      1  O   UNL     1      14.301   9.939  17.877  0.00  0.00    -0.387 OA
ATOM     21  H   UNL     1      14.147  10.229  18.793  0.00  0.00    +0.210 HD
ENDBRANCH  10   1
BRANCH  11   2
ATOM      2  O   UNL     1      12.948   8.305  16.156  0.00  0.00    -0.389 OA
ATOM     22  H   UNL     1      13.485   7.992  15.408  0.00  0.00    +0.210 HD
ENDBRANCH  11   2
TORSDOF 5
ENDMDL
MODEL 10
REMARK VINA RESULT:      -5.4     13.572     16.202
REMARK  Name = 71693787
REMARK  6 active torsions:
REMARK  status: ('A' for Active; 'I' for Inactive)
REMARK    1  A    between atoms: O_1  and  C_10
REMARK    2  A    between atoms: O_2  and  C_11
REMARK    3  A    between atoms: N_4  and  C_8
REMARK    4  A    between atoms: N_5  and  C_18
REMARK    5  A    between atoms: C_6  and  C_7
REMARK    6  A    between atoms: C_18  and  C_19
REMARK                            x       y       z     vdW  Elec       q    Type
REMARK                         _______ _______ _______ _____ _____    ______ ____
ROOT
ATOM      6  C   UNL     1       9.653   5.285   4.919  0.00  0.00    +0.017 C 
ATOM      8  C   UNL     1       9.888   6.546   5.784  0.00  0.00    +0.109 C 
ATOM      9  C   UNL     1      10.096   4.112   5.797  0.00  0.00    +0.039 C 
ATOM     10  C   UNL     1      10.190   6.035   7.202  0.00  0.00    +0.163 C 
ATOM     11  C   UNL     1       9.719   4.583   7.193  0.00  0.00    +0.145 C 
ENDROOT
BRANCH   8   4
ATOM      3  O   UNL     1       9.451   8.853   4.103  0.00  0.00    -0.253 OA
ATOM      4  N   UNL     1       8.734   7.412   5.776  0.00  0.00    -0.294 N 
ATOM      5  N   UNL     1       7.394   9.170   5.128  0.00  0.00    -0.300 N 
ATOM     17  C   UNL     1       8.604   8.510   4.926  0.00  0.00    +0.300 C 
ATOM     20  H   UNL     1       8.014   7.267   6.478  0.00  0.00    +0.151 HD
ATOM     23  H   UNL     1       6.750   8.806   5.823  0.00  0.00    +0.150 HD
BRANCH   5  18
ATOM     18  C   UNL     1       7.007  10.341   4.377  0.00  0.00    +0.102 C 
ATOM     19  C   UNL     1       5.865  10.039   3.428  0.00  0.00    +0.024 C 
ENDBRANCH   5  18
ENDBRANCH   8   4
BRANCH   6   7
ATOM      7  C   UNL     1      10.397   5.328   3.593  0.00  0.00    -0.006 C 
ATOM     12  C   UNL     1      10.813   3.917   3.157  0.00  0.00    +0.004 C 
ATOM     13  C   UNL     1      11.619   6.254   3.686  0.00  0.00    +0.004 C 
ATOM     14  C   UNL     1      11.609   3.940   1.854  0.00  0.00    +0.000 C 
ATOM     15  C   UNL     1      12.412   6.273   2.382  0.00  0.00    +0.000 C 
ATOM     16  C   UNL     1      12.816   4.867   1.948  0.00  0.00    +0.000 C 
ENDBRANCH   6   7
BRANCH  10   1
ATOM      1  O   UNL     1      11.601   6.104   7.403  0.00  0.00    -0.387 OA
ATOM     21  H   UNL     1      11.989   5.302   7.014  0.00  0.00    +0.210 HD
ENDBRANCH  10   1
BRANCH  11   2
ATOM      2  O   UNL     1      10.340   3.817   8.205  0.00  0.00    -0.389 OA
ATOM     22  H   UNL     1      10.672   4.436   8.877  0.00  0.00    +0.210 HD
ENDBRANCH  11   2
TORSDOF 5
ENDMDL
