MODEL 1
REMARK VINA RESULT:      -6.3      0.000      0.000
REMARK  Name = 45361025
REMARK  9 active torsions:
REMARK  status: ('A' for Active; 'I' for Inactive)
REMARK    1  A    between atoms: N_4  and  C_13
REMARK    2  A    between atoms: N_5  and  C_17
REMARK    3  A    between atoms: N_7  and  C_22
REMARK    4  A    between atoms: C_12  and  C_16
REMARK    5  A    between atoms: C_13  and  C_18
REMARK    6  A    between atoms: C_13  and  C_19
REMARK    7  A    between atoms: C_16  and  C_20
REMARK    8  A    between atoms: C_20  and  C_21
REMARK    9  A    between atoms: C_22  and  C_23
REMARK                            x       y       z     vdW  Elec       q    Type
REMARK                         _______ _______ _______ _____ _____    ______ ____
ROOT
ATOM      2  O   UNL     1      -5.847  -9.311  12.949  0.00  0.00    -0.274 OA
ATOM      4  N   UNL     1      -3.720 -10.519  11.807  0.00  0.00    -0.288 NA
ATOM      5  N   UNL     1      -3.216 -10.698  15.427  0.00  0.00    -0.296 NA
ATOM      6  N   UNL     1      -6.005 -10.785  14.693  0.00  0.00    -0.312 N 
ATOM      8  C   UNL     1      -3.015 -11.166  14.038  0.00  0.00    +0.084 C 
ATOM      9  C   UNL     1      -4.223 -11.119  13.057  0.00  0.00    +0.161 C 
ATOM     10  C   UNL     1      -1.942 -10.376  13.263  0.00  0.00    +0.036 C 
ATOM     11  C   UNL     1      -2.269 -10.667  11.814  0.00  0.00    +0.087 C 
ATOM     12  C   UNL     1      -4.189 -11.508  16.214  0.00  0.00    +0.074 C 
ATOM     14  C   UNL     1      -5.416 -10.300  13.541  0.00  0.00    +0.232 C 
ATOM     15  C   UNL     1      -5.473 -11.897  15.455  0.00  0.00    +0.123 C 
ATOM     17  C   UNL     1      -1.932 -10.608  16.142  0.00  0.00    +0.105 C 
ATOM     27  H   UNL     1      -6.842 -10.321  15.033  0.00  0.00    +0.149 HD
ENDROOT
BRANCH   4  13
ATOM     13  C   UNL     1      -4.324 -11.088  10.610  0.00  0.00    +0.051 C 
ATOM     18  C   UNL     1      -3.722 -12.459  10.314  0.00  0.00    +0.024 C 
ATOM     19  C   UNL     1      -4.119 -10.135   9.436  0.00  0.00    +0.024 C 
ENDBRANCH   4  13
BRANCH  12  16
ATOM     16  C   UNL     1      -4.615 -10.749  17.489  0.00  0.00    +0.029 C 
BRANCH  16  20
ATOM     20  C   UNL     1      -4.797 -11.710  18.649  0.00  0.00    +0.097 C 
BRANCH  20  21
ATOM      3  O   UNL     1      -6.128 -11.242  20.617  0.00  0.00    -0.276 OA
ATOM      7  N   UNL     1      -7.185 -11.433  18.560  0.00  0.00    -0.311 N 
ATOM     21  C   UNL     1      -6.085 -11.435  19.406  0.00  0.00    +0.213 C 
ATOM     28  H   UNL     1      -7.052 -11.586  17.564  0.00  0.00    +0.149 HD
BRANCH   7  22
ATOM     22  C   UNL     1      -8.525 -11.197  19.039  0.00  0.00    +0.146 C 
BRANCH  22  23
ATOM      1  S   UNL     1      -8.304  -9.162  17.160  0.00  0.00    -0.100 S 
ATOM     23  C   UNL     1      -9.197 -10.076  18.299  0.00  0.00    +0.007 A 
ATOM     24  C   UNL     1     -10.502  -9.643  18.402  0.00  0.00    +0.013 A 
ATOM     25  C   UNL     1     -10.770  -8.545  17.533  0.00  0.00    +0.008 A 
ATOM     26  C   UNL     1      -9.662  -8.183  16.800  0.00  0.00    +0.045 A 
ENDBRANCH  22  23
ENDBRANCH   7  22
ENDBRANCH  20  21
ENDBRANCH  16  20
ENDBRANCH  12  16
TORSDOF 6
ENDMDL
MODEL 2
REMARK VINA RESULT:      -6.2      2.359      7.216
REMARK  Name = 45361025
REMARK  9 active torsions:
REMARK  status: ('A' for Active; 'I' for Inactive)
REMARK    1  A    between atoms: N_4  and  C_13
REMARK    2  A    between atoms: N_5  and  C_17
REMARK    3  A    between atoms: N_7  and  C_22
REMARK    4  A    between atoms: C_12  and  C_16
REMARK    5  A    between atoms: C_13  and  C_18
REMARK    6  A    between atoms: C_13  and  C_19
REMARK    7  A    between atoms: C_16  and  C_20
REMARK    8  A    between atoms: C_20  and  C_21
REMARK    9  A    between atoms: C_22  and  C_23
REMARK                            x       y       z     vdW  Elec       q    Type
REMARK                         _______ _______ _______ _____ _____    ______ ____
ROOT
ATOM      2  O   UNL     1      -8.584 -11.582  15.378  0.00  0.00    -0.274 OA
ATOM      4  N   UNL     1      -9.249 -10.591  17.800  0.00  0.00    -0.288 NA
ATOM      5  N   UNL     1      -5.653 -11.259  17.886  0.00  0.00    -0.296 NA
ATOM      6  N   UNL     1      -6.574 -10.496  15.260  0.00  0.00    -0.312 N 
ATOM      8  C   UNL     1      -6.881 -10.563  18.329  0.00  0.00    +0.084 C 
ATOM      9  C   UNL     1      -7.942 -10.177  17.257  0.00  0.00    +0.161 C 
ATOM     10  C   UNL     1      -7.723 -11.366  19.339  0.00  0.00    +0.036 C 
ATOM     11  C   UNL     1      -9.092 -10.725  19.243  0.00  0.00    +0.087 C 
ATOM     12  C   UNL     1      -4.786 -10.460  16.975  0.00  0.00    +0.074 C 
ATOM     14  C   UNL     1      -7.753 -10.836  15.894  0.00  0.00    +0.232 C 
ATOM     15  C   UNL     1      -5.541  -9.686  15.875  0.00  0.00    +0.123 C 
ATOM     17  C   UNL     1      -4.875 -11.736  19.041  0.00  0.00    +0.105 C 
ATOM     27  H   UNL     1      -6.415 -10.853  14.323  0.00  0.00    +0.149 HD
ENDROOT
BRANCH   4  13
ATOM     13  C   UNL     1     -10.334  -9.684  17.448  0.00  0.00    +0.051 C 
ATOM     18  C   UNL     1      -9.837  -8.241  17.444  0.00  0.00    +0.024 C 
ATOM     19  C   UNL     1     -11.486  -9.864  18.432  0.00  0.00    +0.024 C 
ENDBRANCH   4  13
BRANCH  12  16
ATOM     16  C   UNL     1      -3.753 -11.369  16.277  0.00  0.00    +0.029 C 
BRANCH  16  20
ATOM     20  C   UNL     1      -2.373 -10.741  16.316  0.00  0.00    +0.097 C 
BRANCH  20  21
ATOM      3  O   UNL     1      -1.063  -9.571  14.649  0.00  0.00    -0.276 OA
ATOM      7  N   UNL     1      -2.321 -11.413  14.007  0.00  0.00    -0.311 N 
ATOM     21  C   UNL     1      -1.834 -10.487  14.919  0.00  0.00    +0.213 C 
ATOM     28  H   UNL     1      -2.944 -12.150  14.325  0.00  0.00    +0.149 HD
BRANCH   7  22
ATOM     22  C   UNL     1      -1.957 -11.385  12.611  0.00  0.00    +0.146 C 
BRANCH  22  23
ATOM      1  S   UNL     1      -4.545 -10.476  12.173  0.00  0.00    -0.100 S 
ATOM     23  C   UNL     1      -2.873 -10.506  11.809  0.00  0.00    +0.007 A 
ATOM     24  C   UNL     1      -2.556  -9.669  10.761  0.00  0.00    +0.013 A 
ATOM     25  C   UNL     1      -3.703  -8.995  10.250  0.00  0.00    +0.008 A 
ATOM     26  C   UNL     1      -4.851  -9.341  10.927  0.00  0.00    +0.045 A 
ENDBRANCH  22  23
ENDBRANCH   7  22
ENDBRANCH  20  21
ENDBRANCH  16  20
ENDBRANCH  12  16
TORSDOF 6
ENDMDL
MODEL 3
REMARK VINA RESULT:      -6.0      2.310      7.588
REMARK  Name = 45361025
REMARK  9 active torsions:
REMARK  status: ('A' for Active; 'I' for Inactive)
REMARK    1  A    between atoms: N_4  and  C_13
REMARK    2  A    between atoms: N_5  and  C_17
REMARK    3  A    between atoms: N_7  and  C_22
REMARK    4  A    between atoms: C_12  and  C_16
REMARK    5  A    between atoms: C_13  and  C_18
REMARK    6  A    between atoms: C_13  and  C_19
REMARK    7  A    between atoms: C_16  and  C_20
REMARK    8  A    between atoms: C_20  and  C_21
REMARK    9  A    between atoms: C_22  and  C_23
REMARK                            x       y       z     vdW  Elec       q    Type
REMARK                         _______ _______ _______ _____ _____    ______ ____
ROOT
ATOM      2  O   UNL     1      -6.499 -10.360  20.338  0.00  0.00    -0.274 OA
ATOM      4  N   UNL     1      -8.598 -11.369  18.973  0.00  0.00    -0.288 NA
ATOM      5  N   UNL     1      -6.075 -10.443  16.490  0.00  0.00    -0.296 NA
ATOM      6  N   UNL     1      -4.909 -11.301  18.986  0.00  0.00    -0.312 N 
ATOM      8  C   UNL     1      -7.240 -11.221  16.967  0.00  0.00    +0.084 C 
ATOM      9  C   UNL     1      -7.258 -11.695  18.450  0.00  0.00    +0.161 C 
ATOM     10  C   UNL     1      -8.580 -10.469  16.854  0.00  0.00    +0.036 C 
ATOM     11  C   UNL     1      -9.480 -11.207  17.823  0.00  0.00    +0.087 C 
ATOM     12  C   UNL     1      -4.785 -11.189  16.515  0.00  0.00    +0.074 C 
ATOM     14  C   UNL     1      -6.216 -11.039  19.351  0.00  0.00    +0.232 C 
ATOM     15  C   UNL     1      -4.544 -12.027  17.786  0.00  0.00    +0.123 C 
ATOM     17  C   UNL     1      -6.323  -9.898  15.145  0.00  0.00    +0.105 C 
ATOM     27  H   UNL     1      -4.167 -10.944  19.581  0.00  0.00    +0.149 HD
ENDROOT
BRANCH   4  13
ATOM     13  C   UNL     1      -9.105 -12.355  19.917  0.00  0.00    +0.051 C 
ATOM     18  C   UNL     1      -8.901 -13.766  19.371  0.00  0.00    +0.024 C 
ATOM     19  C   UNL     1     -10.581 -12.083  20.194  0.00  0.00    +0.024 C 
ENDBRANCH   4  13
BRANCH  12  16
ATOM     16  C   UNL     1      -3.596 -10.216  16.369  0.00  0.00    +0.029 C 
BRANCH  16  20
ATOM     20  C   UNL     1      -2.333 -10.965  15.989  0.00  0.00    +0.097 C 
BRANCH  20  21
ATOM      3  O   UNL     1      -1.171  -9.564  14.392  0.00  0.00    -0.276 OA
ATOM      7  N   UNL     1      -2.245 -11.481  13.642  0.00  0.00    -0.311 N 
ATOM     21  C   UNL     1      -1.841 -10.570  14.608  0.00  0.00    +0.213 C 
ATOM     28  H   UNL     1      -2.786 -12.296  13.916  0.00  0.00    +0.149 HD
BRANCH   7  22
ATOM     22  C   UNL     1      -1.905 -11.327  12.248  0.00  0.00    +0.146 C 
BRANCH  22  23
ATOM      1  S   UNL     1      -4.572 -10.695  11.795  0.00  0.00    -0.100 S 
ATOM     23  C   UNL     1      -2.898 -10.469  11.518  0.00  0.00    +0.007 A 
ATOM     24  C   UNL     1      -2.655  -9.467  10.603  0.00  0.00    +0.013 A 
ATOM     25  C   UNL     1      -3.861  -8.878  10.124  0.00  0.00    +0.008 A 
ATOM     26  C   UNL     1      -4.978  -9.452  10.691  0.00  0.00    +0.045 A 
ENDBRANCH  22  23
ENDBRANCH   7  22
ENDBRANCH  20  21
ENDBRANCH  16  20
ENDBRANCH  12  16
TORSDOF 6
ENDMDL
MODEL 4
REMARK VINA RESULT:      -5.7     27.977     30.375
REMARK  Name = 45361025
REMARK  9 active torsions:
REMARK  status: ('A' for Active; 'I' for Inactive)
REMARK    1  A    between atoms: N_4  and  C_13
REMARK    2  A    between atoms: N_5  and  C_17
REMARK    3  A    between atoms: N_7  and  C_22
REMARK    4  A    between atoms: C_12  and  C_16
REMARK    5  A    between atoms: C_13  and  C_18
REMARK    6  A    between atoms: C_13  and  C_19
REMARK    7  A    between atoms: C_16  and  C_20
REMARK    8  A    between atoms: C_20  and  C_21
REMARK    9  A    between atoms: C_22  and  C_23
REMARK                            x       y       z     vdW  Elec       q    Type
REMARK                         _______ _______ _______ _____ _____    ______ ____
ROOT
ATOM      2  O   UNL     1      20.448   6.242  24.195  0.00  0.00    -0.274 OA
ATOM      4  N   UNL     1      21.878   5.430  22.054  0.00  0.00    -0.288 NA
ATOM      5  N   UNL     1      18.636   6.562  20.789  0.00  0.00    -0.296 NA
ATOM      6  N   UNL     1      19.482   8.022  23.129  0.00  0.00    -0.312 N 
ATOM      8  C   UNL     1      20.083   6.276  20.657  0.00  0.00    +0.084 C 
ATOM      9  C   UNL     1      21.016   6.610  21.858  0.00  0.00    +0.161 C 
ATOM     10  C   UNL     1      20.405   4.792  20.404  0.00  0.00    +0.036 C 
ATOM     11  C   UNL     1      21.860   4.673  20.807  0.00  0.00    +0.087 C 
ATOM     12  C   UNL     1      18.306   8.006  20.949  0.00  0.00    +0.074 C 
ATOM     14  C   UNL     1      20.298   6.908  23.171  0.00  0.00    +0.232 C 
ATOM     15  C   UNL     1      19.222   8.777  21.920  0.00  0.00    +0.123 C 
ATOM     17  C   UNL     1      17.884   5.989  19.659  0.00  0.00    +0.105 C 
ATOM     27  H   UNL     1      19.023   8.310  23.988  0.00  0.00    +0.149 HD
ENDROOT
BRANCH   4  13
ATOM     13  C   UNL     1      23.232   5.766  22.471  0.00  0.00    +0.051 C 
ATOM     18  C   UNL     1      24.154   5.851  21.258  0.00  0.00    +0.024 C 
ATOM     19  C   UNL     1      23.732   4.724  23.467  0.00  0.00    +0.024 C 
ENDBRANCH   4  13
BRANCH  12  16
ATOM     16  C   UNL     1      16.855   8.175  21.447  0.00  0.00    +0.029 C 
BRANCH  16  20
ATOM     20  C   UNL     1      16.506   9.644  21.595  0.00  0.00    +0.097 C 
BRANCH  20  21
ATOM      3  O   UNL     1      14.333  10.669  21.893  0.00  0.00    -0.276 OA
ATOM      7  N   UNL     1      14.654   9.197  20.128  0.00  0.00    -0.311 N 
ATOM     21  C   UNL     1      15.052   9.911  21.249  0.00  0.00    +0.213 C 
ATOM     28  H   UNL     1      15.324   8.604  19.646  0.00  0.00    +0.149 HD
BRANCH   7  22
ATOM     22  C   UNL     1      13.314   9.279  19.597  0.00  0.00    +0.146 C 
BRANCH  22  23
ATOM      1  S   UNL     1      12.461   6.789  20.486  0.00  0.00    -0.100 S 
ATOM     23  C   UNL     1      12.334   8.495  20.421  0.00  0.00    +0.007 A 
ATOM     24  C   UNL     1      11.283   8.965  21.179  0.00  0.00    +0.013 A 
ATOM     25  C   UNL     1      10.573   7.909  21.821  0.00  0.00    +0.008 A 
ATOM     26  C   UNL     1      11.109   6.674  21.530  0.00  0.00    +0.045 A 
ENDBRANCH  22  23
ENDBRANCH   7  22
ENDBRANCH  20  21
ENDBRANCH  16  20
ENDBRANCH  12  16
TORSDOF 6
ENDMDL
MODEL 5
REMARK VINA RESULT:      -5.5     28.661     31.035
REMARK  Name = 45361025
REMARK  9 active torsions:
REMARK  status: ('A' for Active; 'I' for Inactive)
REMARK    1  A    between atoms: N_4  and  C_13
REMARK    2  A    between atoms: N_5  and  C_17
REMARK    3  A    between atoms: N_7  and  C_22
REMARK    4  A    between atoms: C_12  and  C_16
REMARK    5  A    between atoms: C_13  and  C_18
REMARK    6  A    between atoms: C_13  and  C_19
REMARK    7  A    between atoms: C_16  and  C_20
REMARK    8  A    between atoms: C_20  and  C_21
REMARK    9  A    between atoms: C_22  and  C_23
REMARK                            x       y       z     vdW  Elec       q    Type
REMARK                         _______ _______ _______ _____ _____    ______ ____
ROOT
ATOM      2  O   UNL     1      22.446   7.989  19.719  0.00  0.00    -0.274 OA
ATOM      4  N   UNL     1      22.529   9.273  22.092  0.00  0.00    -0.288 NA
ATOM      5  N   UNL     1      19.002   8.621  21.368  0.00  0.00    -0.296 NA
ATOM      6  N   UNL     1      20.744   6.579  20.311  0.00  0.00    -0.312 N 
ATOM      8  C   UNL     1      20.141   8.879  22.277  0.00  0.00    +0.084 C 
ATOM      9  C   UNL     1      21.512   8.214  21.954  0.00  0.00    +0.161 C 
ATOM     10  C   UNL     1      20.525  10.366  22.390  0.00  0.00    +0.036 C 
ATOM     11  C   UNL     1      21.944  10.325  22.916  0.00  0.00    +0.087 C 
ATOM     12  C   UNL     1      18.566   7.197  21.315  0.00  0.00    +0.074 C 
ATOM     14  C   UNL     1      21.625   7.615  20.555  0.00  0.00    +0.232 C 
ATOM     15  C   UNL     1      19.713   6.170  21.244  0.00  0.00    +0.123 C 
ATOM     17  C   UNL     1      17.861   9.492  21.699  0.00  0.00    +0.105 C 
ATOM     27  H   UNL     1      20.810   6.096  19.420  0.00  0.00    +0.149 HD
ENDROOT
BRANCH   4  13
ATOM     13  C   UNL     1      23.793   8.792  22.633  0.00  0.00    +0.051 C 
ATOM     18  C   UNL     1      23.541   7.805  23.769  0.00  0.00    +0.024 C 
ATOM     19  C   UNL     1      24.625   9.978  23.112  0.00  0.00    +0.024 C 
ENDBRANCH   4  13
BRANCH  12  16
ATOM     16  C   UNL     1      17.651   6.958  20.095  0.00  0.00    +0.029 C 
BRANCH  16  20
ATOM     20  C   UNL     1      16.311   6.396  20.531  0.00  0.00    +0.097 C 
BRANCH  20  21
ATOM      3  O   UNL     1      15.235   8.420  19.751  0.00  0.00    -0.276 OA
ATOM      7  N   UNL     1      14.023   6.441  19.793  0.00  0.00    -0.311 N 
ATOM     21  C   UNL     1      15.156   7.218  19.986  0.00  0.00    +0.213 C 
ATOM     28  H   UNL     1      14.055   5.446  19.999  0.00  0.00    +0.149 HD
BRANCH   7  22
ATOM     22  C   UNL     1      12.790   6.991  19.283  0.00  0.00    +0.146 C 
BRANCH  22  23
ATOM      1  S   UNL     1      11.263   6.716  21.587  0.00  0.00    -0.100 S 
ATOM     23  C   UNL     1      11.987   7.663  20.358  0.00  0.00    +0.007 A 
ATOM     24  C   UNL     1      11.725   9.007  20.519  0.00  0.00    +0.013 A 
ATOM     25  C   UNL     1      10.920   9.261  21.666  0.00  0.00    +0.008 A 
ATOM     26  C   UNL     1      10.597   8.103  22.339  0.00  0.00    +0.045 A 
ENDBRANCH  22  23
ENDBRANCH   7  22
ENDBRANCH  20  21
ENDBRANCH  16  20
ENDBRANCH  12  16
TORSDOF 6
ENDMDL
MODEL 6
REMARK VINA RESULT:      -5.4     24.711     27.493
REMARK  Name = 45361025
REMARK  9 active torsions:
REMARK  status: ('A' for Active; 'I' for Inactive)
REMARK    1  A    between atoms: N_4  and  C_13
REMARK    2  A    between atoms: N_5  and  C_17
REMARK    3  A    between atoms: N_7  and  C_22
REMARK    4  A    between atoms: C_12  and  C_16
REMARK    5  A    between atoms: C_13  and  C_18
REMARK    6  A    between atoms: C_13  and  C_19
REMARK    7  A    between atoms: C_16  and  C_20
REMARK    8  A    between atoms: C_20  and  C_21
REMARK    9  A    between atoms: C_22  and  C_23
REMARK                            x       y       z     vdW  Elec       q    Type
REMARK                         _______ _______ _______ _____ _____    ______ ____
ROOT
ATOM      2  O   UNL     1      14.645   3.200   1.767  0.00  0.00    -0.274 OA
ATOM      4  N   UNL     1      12.584   3.672   0.087  0.00  0.00    -0.288 NA
ATOM      5  N   UNL     1      12.302   6.100   2.810  0.00  0.00    -0.296 NA
ATOM      6  N   UNL     1      15.041   5.407   2.226  0.00  0.00    -0.312 N 
ATOM      8  C   UNL     1      12.070   5.630   1.427  0.00  0.00    +0.084 C 
ATOM      9  C   UNL     1      13.212   4.855   0.705  0.00  0.00    +0.161 C 
ATOM     10  C   UNL     1      10.885   4.655   1.290  0.00  0.00    +0.036 C 
ATOM     11  C   UNL     1      11.158   3.952  -0.024  0.00  0.00    +0.087 C 
ATOM     12  C   UNL     1      13.391   7.109   2.943  0.00  0.00    +0.074 C 
ATOM     14  C   UNL     1      14.345   4.383   1.612  0.00  0.00    +0.232 C 
ATOM     15  C   UNL     1      14.662   6.802   2.128  0.00  0.00    +0.123 C 
ATOM     17  C   UNL     1      11.057   6.612   3.406  0.00  0.00    +0.105 C 
ATOM     27  H   UNL     1      15.846   5.163   2.794  0.00  0.00    +0.149 HD
ENDROOT
BRANCH   4  13
ATOM     13  C   UNL     1      13.173   3.310  -1.195  0.00  0.00    +0.051 C 
ATOM     18  C   UNL     1      13.622   4.562  -1.944  0.00  0.00    +0.024 C 
ATOM     19  C   UNL     1      12.160   2.516  -2.014  0.00  0.00    +0.024 C 
ENDBRANCH   4  13
BRANCH  12  16
ATOM     16  C   UNL     1      13.812   7.257   4.421  0.00  0.00    +0.029 C 
BRANCH  16  20
ATOM     20  C   UNL     1      13.970   8.720   4.789  0.00  0.00    +0.097 C 
BRANCH  20  21
ATOM      3  O   UNL     1      13.561   9.702   6.965  0.00  0.00    -0.276 OA
ATOM      7  N   UNL     1      11.816   8.644   5.858  0.00  0.00    -0.311 N 
ATOM     21  C   UNL     1      13.124   9.088   5.996  0.00  0.00    +0.213 C 
ATOM     28  H   UNL     1      11.539   8.156   5.010  0.00  0.00    +0.149 HD
BRANCH   7  22
ATOM     22  C   UNL     1      10.815   8.869   6.873  0.00  0.00    +0.146 C 
BRANCH  22  23
ATOM      1  S   UNL     1      11.347   6.205   7.457  0.00  0.00    -0.100 S 
ATOM     23  C   UNL     1      10.331   7.583   7.479  0.00  0.00    +0.007 A 
ATOM     24  C   UNL     1       9.122   7.325   8.088  0.00  0.00    +0.013 A 
ATOM     25  C   UNL     1       9.030   5.977   8.542  0.00  0.00    +0.008 A 
ATOM     26  C   UNL     1      10.170   5.258   8.263  0.00  0.00    +0.045 A 
ENDBRANCH  22  23
ENDBRANCH   7  22
ENDBRANCH  20  21
ENDBRANCH  16  20
ENDBRANCH  12  16
TORSDOF 6
ENDMDL
MODEL 7
REMARK VINA RESULT:      -5.3     19.442     20.682
REMARK  Name = 45361025
REMARK  9 active torsions:
REMARK  status: ('A' for Active; 'I' for Inactive)
REMARK    1  A    between atoms: N_4  and  C_13
REMARK    2  A    between atoms: N_5  and  C_17
REMARK    3  A    between atoms: N_7  and  C_22
REMARK    4  A    between atoms: C_12  and  C_16
REMARK    5  A    between atoms: C_13  and  C_18
REMARK    6  A    between atoms: C_13  and  C_19
REMARK    7  A    between atoms: C_16  and  C_20
REMARK    8  A    between atoms: C_20  and  C_21
REMARK    9  A    between atoms: C_22  and  C_23
REMARK                            x       y       z     vdW  Elec       q    Type
REMARK                         _______ _______ _______ _____ _____    ______ ____
ROOT
ATOM      2  O   UNL     1     -10.602   7.702  14.201  0.00  0.00    -0.274 OA
ATOM      4  N   UNL     1     -12.524   9.560  13.821  0.00  0.00    -0.288 NA
ATOM      5  N   UNL     1     -12.985   8.243  17.204  0.00  0.00    -0.296 NA
ATOM      6  N   UNL     1     -10.217   8.254  16.389  0.00  0.00    -0.312 N 
ATOM      8  C   UNL     1     -13.117   9.282  16.158  0.00  0.00    +0.084 C 
ATOM      9  C   UNL     1     -11.932   9.494  15.170  0.00  0.00    +0.161 C 
ATOM     10  C   UNL     1     -14.299   9.052  15.196  0.00  0.00    +0.036 C 
ATOM     11  C   UNL     1     -13.935   9.887  13.986  0.00  0.00    +0.087 C 
ATOM     12  C   UNL     1     -11.898   8.499  18.191  0.00  0.00    +0.074 C 
ATOM     14  C   UNL     1     -10.876   8.393  15.182  0.00  0.00    +0.232 C 
ATOM     15  C   UNL     1     -10.572   8.995  17.582  0.00  0.00    +0.123 C 
ATOM     17  C   UNL     1     -14.266   8.033  17.898  0.00  0.00    +0.105 C 
ATOM     27  H   UNL     1      -9.460   7.580  16.445  0.00  0.00    +0.149 HD
ENDROOT
BRANCH   4  13
ATOM     13  C   UNL     1     -11.844  10.497  12.937  0.00  0.00    +0.051 C 
ATOM     18  C   UNL     1     -12.389  11.908  13.141  0.00  0.00    +0.024 C 
ATOM     19  C   UNL     1     -12.016  10.047  11.489  0.00  0.00    +0.024 C 
ENDBRANCH   4  13
BRANCH  12  16
ATOM     16  C   UNL     1     -11.589   7.219  18.996  0.00  0.00    +0.029 C 
BRANCH  16  20
ATOM     20  C   UNL     1     -11.285   7.555  20.443  0.00  0.00    +0.097 C 
BRANCH  20  21
ATOM      3  O   UNL     1     -12.628   9.228  21.567  0.00  0.00    -0.276 OA
ATOM      7  N   UNL     1     -13.475   7.081  21.317  0.00  0.00    -0.311 N 
ATOM     21  C   UNL     1     -12.515   8.072  21.168  0.00  0.00    +0.213 C 
ATOM     28  H   UNL     1     -13.301   6.153  20.939  0.00  0.00    +0.149 HD
BRANCH   7  22
ATOM     22  C   UNL     1     -14.736   7.322  21.975  0.00  0.00    +0.146 C 
BRANCH  22  23
ATOM      1  S   UNL     1     -16.646   6.209  23.658  0.00  0.00    -0.100 S 
ATOM     23  C   UNL     1     -15.112   6.199  22.898  0.00  0.00    +0.007 A 
ATOM     24  C   UNL     1     -14.368   5.094  23.250  0.00  0.00    +0.013 A 
ATOM     25  C   UNL     1     -15.067   4.245  24.156  0.00  0.00    +0.008 A 
ATOM     26  C   UNL     1     -16.318   4.733  24.461  0.00  0.00    +0.045 A 
ENDBRANCH  22  23
ENDBRANCH   7  22
ENDBRANCH  20  21
ENDBRANCH  16  20
ENDBRANCH  12  16
TORSDOF 6
ENDMDL
MODEL 8
REMARK VINA RESULT:      -5.3      2.734      7.623
REMARK  Name = 45361025
REMARK  9 active torsions:
REMARK  status: ('A' for Active; 'I' for Inactive)
REMARK    1  A    between atoms: N_4  and  C_13
REMARK    2  A    between atoms: N_5  and  C_17
REMARK    3  A    between atoms: N_7  and  C_22
REMARK    4  A    between atoms: C_12  and  C_16
REMARK    5  A    between atoms: C_13  and  C_18
REMARK    6  A    between atoms: C_13  and  C_19
REMARK    7  A    between atoms: C_16  and  C_20
REMARK    8  A    between atoms: C_20  and  C_21
REMARK    9  A    between atoms: C_22  and  C_23
REMARK                            x       y       z     vdW  Elec       q    Type
REMARK                         _______ _______ _______ _____ _____    ______ ____
ROOT
ATOM      2  O   UNL     1      -9.254  -8.966  17.206  0.00  0.00    -0.274 OA
ATOM      4  N   UNL     1     -10.274 -11.426  17.652  0.00  0.00    -0.288 NA
ATOM      5  N   UNL     1      -6.823 -11.902  16.531  0.00  0.00    -0.296 NA
ATOM      6  N   UNL     1      -7.174  -9.458  18.024  0.00  0.00    -0.312 N 
ATOM      8  C   UNL     1      -8.051 -12.313  17.249  0.00  0.00    +0.084 C 
ATOM      9  C   UNL     1      -8.859 -11.226  18.017  0.00  0.00    +0.161 C 
ATOM     10  C   UNL     1      -9.129 -12.930  16.338  0.00  0.00    +0.036 C 
ATOM     11  C   UNL     1     -10.399 -12.790  17.151  0.00  0.00    +0.087 C 
ATOM     12  C   UNL     1      -5.740 -11.383  17.412  0.00  0.00    +0.074 C 
ATOM     14  C   UNL     1      -8.475  -9.786  17.692  0.00  0.00    +0.232 C 
ATOM     15  C   UNL     1      -6.210 -10.420  18.520  0.00  0.00    +0.123 C 
ATOM     17  C   UNL     1      -6.315 -13.000  15.691  0.00  0.00    +0.105 C 
ATOM     27  H   UNL     1      -6.874  -8.498  17.890  0.00  0.00    +0.149 HD
ENDROOT
BRANCH   4  13
ATOM     13  C   UNL     1     -11.196 -11.158  18.748  0.00  0.00    +0.051 C 
ATOM     18  C   UNL     1     -12.110  -9.988  18.396  0.00  0.00    +0.024 C 
ATOM     19  C   UNL     1     -10.404 -10.872  20.020  0.00  0.00    +0.024 C 
ENDBRANCH   4  13
BRANCH  12  16
ATOM     16  C   UNL     1      -4.673 -10.644  16.577  0.00  0.00    +0.029 C 
BRANCH  16  20
ATOM     20  C   UNL     1      -3.278 -10.980  17.069  0.00  0.00    +0.097 C 
BRANCH  20  21
ATOM      3  O   UNL     1      -1.402 -10.141  15.789  0.00  0.00    -0.276 OA
ATOM      7  N   UNL     1      -2.466 -12.082  15.092  0.00  0.00    -0.311 N 
ATOM     21  C   UNL     1      -2.272 -10.995  15.932  0.00  0.00    +0.213 C 
ATOM     28  H   UNL     1      -3.204 -12.750  15.298  0.00  0.00    +0.149 HD
BRANCH   7  22
ATOM     22  C   UNL     1      -1.637 -12.319  13.935  0.00  0.00    +0.146 C 
BRANCH  22  23
ATOM      1  S   UNL     1      -3.324 -12.446  11.731  0.00  0.00    -0.100 S 
ATOM     23  C   UNL     1      -2.175 -11.639  12.709  0.00  0.00    +0.007 A 
ATOM     24  C   UNL     1      -1.866 -10.388  12.219  0.00  0.00    +0.013 A 
ATOM     25  C   UNL     1      -2.585 -10.090  11.025  0.00  0.00    +0.008 A 
ATOM     26  C   UNL     1      -3.413 -11.123  10.648  0.00  0.00    +0.045 A 
ENDBRANCH  22  23
ENDBRANCH   7  22
ENDBRANCH  20  21
ENDBRANCH  16  20
ENDBRANCH  12  16
TORSDOF 6
ENDMDL
MODEL 9
REMARK VINA RESULT:      -5.3      3.806      7.673
REMARK  Name = 45361025
REMARK  9 active torsions:
REMARK  status: ('A' for Active; 'I' for Inactive)
REMARK    1  A    between atoms: N_4  and  C_13
REMARK    2  A    between atoms: N_5  and  C_17
REMARK    3  A    between atoms: N_7  and  C_22
REMARK    4  A    between atoms: C_12  and  C_16
REMARK    5  A    between atoms: C_13  and  C_18
REMARK    6  A    between atoms: C_13  and  C_19
REMARK    7  A    between atoms: C_16  and  C_20
REMARK    8  A    between atoms: C_20  and  C_21
REMARK    9  A    between atoms: C_22  and  C_23
REMARK                            x       y       z     vdW  Elec       q    Type
REMARK                         _______ _______ _______ _____ _____    ______ ____
ROOT
ATOM      2  O   UNL     1      -6.667 -12.492  13.784  0.00  0.00    -0.274 OA
ATOM      4  N   UNL     1      -4.986 -11.644  15.719  0.00  0.00    -0.288 NA
ATOM      5  N   UNL     1      -3.368 -10.909  12.520  0.00  0.00    -0.296 NA
ATOM      6  N   UNL     1      -6.245 -10.744  12.368  0.00  0.00    -0.312 N 
ATOM      8  C   UNL     1      -3.605 -10.692  13.965  0.00  0.00    +0.084 C 
ATOM      9  C   UNL     1      -5.061 -10.812  14.503  0.00  0.00    +0.161 C 
ATOM     10  C   UNL     1      -2.844 -11.673  14.877  0.00  0.00    +0.036 C 
ATOM     11  C   UNL     1      -3.605 -11.601  16.184  0.00  0.00    +0.087 C 
ATOM     12  C   UNL     1      -4.031  -9.914  11.631  0.00  0.00    +0.074 C 
ATOM     14  C   UNL     1      -6.055 -11.453  13.540  0.00  0.00    +0.232 C 
ATOM     15  C   UNL     1      -5.481  -9.564  12.017  0.00  0.00    +0.123 C 
ATOM     17  C   UNL     1      -1.926 -10.972  12.230  0.00  0.00    +0.105 C 
ATOM     27  H   UNL     1      -6.939 -11.085  11.711  0.00  0.00    +0.149 HD
ENDROOT
BRANCH   4  13
ATOM     13  C   UNL     1      -5.927 -11.238  16.755  0.00  0.00    +0.051 C 
ATOM     18  C   UNL     1      -5.194 -10.509  17.878  0.00  0.00    +0.024 C 
ATOM     19  C   UNL     1      -6.660 -12.466  17.286  0.00  0.00    +0.024 C 
ENDBRANCH   4  13
BRANCH  12  16
ATOM     16  C   UNL     1      -4.047 -10.420  10.173  0.00  0.00    +0.029 C 
BRANCH  16  20
ATOM     20  C   UNL     1      -4.134  -9.257   9.203  0.00  0.00    +0.097 C 
BRANCH  20  21
ATOM      3  O   UNL     1      -5.124 -10.339   7.276  0.00  0.00    -0.276 OA
ATOM      7  N   UNL     1      -6.274  -8.611   8.316  0.00  0.00    -0.311 N 
ATOM     21  C   UNL     1      -5.208  -9.484   8.153  0.00  0.00    +0.213 C 
ATOM     28  H   UNL     1      -6.264  -7.944   9.083  0.00  0.00    +0.149 HD
BRANCH   7  22
ATOM     22  C   UNL     1      -7.422  -8.625   7.441  0.00  0.00    +0.146 C 
BRANCH  22  23
ATOM      1  S   UNL     1     -10.078  -7.911   7.834  0.00  0.00    -0.100 S 
ATOM     23  C   UNL     1      -8.406  -7.546   7.788  0.00  0.00    +0.007 A 
ATOM     24  C   UNL     1      -8.157  -6.225   8.094  0.00  0.00    +0.013 A 
ATOM     25  C   UNL     1      -9.356  -5.505   8.369  0.00  0.00    +0.008 A 
ATOM     26  C   UNL     1     -10.474  -6.302   8.264  0.00  0.00    +0.045 A 
ENDBRANCH  22  23
ENDBRANCH   7  22
ENDBRANCH  20  21
ENDBRANCH  16  20
ENDBRANCH  12  16
TORSDOF 6
ENDMDL
MODEL 10
REMARK VINA RESULT:      -5.2     25.918     28.921
REMARK  Name = 45361025
REMARK  9 active torsions:
REMARK  status: ('A' for Active; 'I' for Inactive)
REMARK    1  A    between atoms: N_4  and  C_13
REMARK    2  A    between atoms: N_5  and  C_17
REMARK    3  A    between atoms: N_7  and  C_22
REMARK    4  A    between atoms: C_12  and  C_16
REMARK    5  A    between atoms: C_13  and  C_18
REMARK    6  A    between atoms: C_13  and  C_19
REMARK    7  A    between atoms: C_16  and  C_20
REMARK    8  A    between atoms: C_20  and  C_21
REMARK    9  A    between atoms: C_22  and  C_23
REMARK                            x       y       z     vdW  Elec       q    Type
REMARK                         _______ _______ _______ _____ _____    ______ ____
ROOT
ATOM      2  O   UNL     1      15.929   7.489   3.644  0.00  0.00    -0.274 OA
ATOM      4  N   UNL     1      17.396   9.212   5.117  0.00  0.00    -0.288 NA
ATOM      5  N   UNL     1      13.936   9.529   6.262  0.00  0.00    -0.296 NA
ATOM      6  N   UNL     1      14.565   6.858   5.370  0.00  0.00    -0.312 N 
ATOM      8  C   UNL     1      15.402   9.631   6.435  0.00  0.00    +0.084 C 
ATOM      9  C   UNL     1      16.300   8.518   5.818  0.00  0.00    +0.161 C 
ATOM     10  C   UNL     1      16.014  10.909   5.831  0.00  0.00    +0.036 C 
ATOM     11  C   UNL     1      17.479  10.557   5.674  0.00  0.00    +0.087 C 
ATOM     12  C   UNL     1      13.319   8.340   6.915  0.00  0.00    +0.074 C 
ATOM     14  C   UNL     1      15.597   7.598   4.824  0.00  0.00    +0.232 C 
ATOM     15  C   UNL     1      14.098   7.023   6.732  0.00  0.00    +0.123 C 
ATOM     17  C   UNL     1      13.268  10.762   6.713  0.00  0.00    +0.105 C 
ATOM     27  H   UNL     1      14.096   6.181   4.776  0.00  0.00    +0.149 HD
ENDROOT
BRANCH   4  13
ATOM     13  C   UNL     1      18.669   8.507   5.196  0.00  0.00    +0.051 C 
ATOM     18  C   UNL     1      19.243   8.607   6.607  0.00  0.00    +0.024 C 
ATOM     19  C   UNL     1      19.636   9.087   4.169  0.00  0.00    +0.024 C 
ENDBRANCH   4  13
BRANCH  12  16
ATOM     16  C   UNL     1      11.889   8.112   6.381  0.00  0.00    +0.029 C 
BRANCH  16  20
ATOM     20  C   UNL     1      11.127   7.157   7.280  0.00  0.00    +0.097 C 
BRANCH  20  21
ATOM      3  O   UNL     1       8.982   6.232   6.643  0.00  0.00    -0.276 OA
ATOM      7  N   UNL     1      10.897   5.487   5.564  0.00  0.00    -0.311 N 
ATOM     21  C   UNL     1      10.198   6.258   6.482  0.00  0.00    +0.213 C 
ATOM     28  H   UNL     1      11.906   5.588   5.488  0.00  0.00    +0.149 HD
BRANCH   7  22
ATOM     22  C   UNL     1      10.240   4.550   4.685  0.00  0.00    +0.146 C 
BRANCH  22  23
ATOM      1  S   UNL     1      10.290   6.094   2.376  0.00  0.00    -0.100 S 
ATOM     23  C   UNL     1      10.704   4.690   3.265  0.00  0.00    +0.007 A 
ATOM     24  C   UNL     1      11.458   3.810   2.519  0.00  0.00    +0.013 A 
ATOM     25  C   UNL     1      11.698   4.296   1.201  0.00  0.00    +0.008 A 
ATOM     26  C   UNL     1      11.120   5.527   0.990  0.00  0.00    +0.045 A 
ENDBRANCH  22  23
ENDBRANCH   7  22
ENDBRANCH  20  21
ENDBRANCH  16  20
ENDBRANCH  12  16
TORSDOF 6
ENDMDL
