MODEL 1
REMARK VINA RESULT:      -8.4      0.000      0.000
REMARK  Name = 11879867
REMARK  6 active torsions:
REMARK  status: ('A' for Active; 'I' for Inactive)
REMARK    1  A    between atoms: S_1  and  N_10
REMARK    2  A    between atoms: S_1  and  C_27
REMARK    3  A    between atoms: N_10  and  C_22
REMARK    4  A    between atoms: N_11  and  C_35
REMARK    5  A    between atoms: C_21  and  C_24
REMARK    6  A    between atoms: C_36  and  C_37
REMARK                            x       y       z     vdW  Elec       q    Type
REMARK                         _______ _______ _______ _____ _____    ______ ____
ROOT
ATOM      3  O   UNL     1      14.814  11.756  19.042  0.00  0.00    -0.266 OA
ATOM      4  O   UNL     1      15.732   6.266  19.007  0.00  0.00    -0.270 OA
ATOM      8  N   UNL     1      14.464   7.088  20.793  0.00  0.00    -0.297 N 
ATOM      9  N   UNL     1      13.524   9.916  19.706  0.00  0.00    -0.310 N 
ATOM     12  C   UNL     1      13.534   8.994  22.096  0.00  0.00    +0.027 C 
ATOM     13  C   UNL     1      12.158   7.904  20.369  0.00  0.00    +0.054 C 
ATOM     14  C   UNL     1      12.122   8.520  21.767  0.00  0.00    +0.018 C 
ATOM     15  C   UNL     1      14.520   7.813  22.063  0.00  0.00    +0.113 C 
ATOM     16  C   UNL     1      13.925  10.101  21.108  0.00  0.00    +0.130 C 
ATOM     17  C   UNL     1      13.114   6.694  20.362  0.00  0.00    +0.117 C 
ATOM     18  C   UNL     1      12.611   8.919  19.335  0.00  0.00    +0.027 A 
ATOM     19  C   UNL     1      12.168   8.838  18.068  0.00  0.00    +0.024 A 
ATOM     20  C   UNL     1      14.024  10.851  18.776  0.00  0.00    +0.274 A 
ATOM     21  C   UNL     1      15.645   6.844  20.089  0.00  0.00    +0.247 C 
ATOM     22  C   UNL     1      13.518  10.695  17.389  0.00  0.00    +0.112 A 
ATOM     23  C   UNL     1      12.635   9.751  17.060  0.00  0.00    +0.031 A 
ENDROOT
BRANCH  21  24
ATOM      2  F   UNL     1      20.457   8.557  22.363  0.00  0.00    -0.205 F 
ATOM     24  C   UNL     1      16.907   7.294  20.686  0.00  0.00    +0.037 A 
ATOM     25  C   UNL     1      17.818   6.357  21.168  0.00  0.00    +0.016 A 
ATOM     26  C   UNL     1      17.190   8.655  20.768  0.00  0.00    +0.016 A 
ATOM     28  C   UNL     1      19.019   6.784  21.734  0.00  0.00    +0.039 A 
ATOM     29  C   UNL     1      18.390   9.082  21.335  0.00  0.00    +0.039 A 
ATOM     30  C   UNL     1      19.304   8.147  21.819  0.00  0.00    +0.123 A 
ENDBRANCH  21  24
BRANCH  22  10
ATOM     10  N   UNL     1      13.959  11.560  16.373  0.00  0.00    -0.211 N 
ATOM     38  H   UNL     1      14.733  12.175  16.654  0.00  0.00    +0.174 HD
BRANCH  10   1
ATOM      1  S   UNL     1      14.128  10.857  14.828  0.00  0.00    +0.072 S 
ATOM      5  O   UNL     1      14.375   9.434  14.957  0.00  0.00    -0.150 OA
ATOM      6  O   UNL     1      13.087  11.372  13.960  0.00  0.00    -0.150 OA
BRANCH   1  27
ATOM     27  C   UNL     1      15.658  11.484  14.134  0.00  0.00    +0.109 A 
ATOM     31  C   UNL     1      16.733  11.647  14.970  0.00  0.00    +0.030 A 
ATOM     32  C   UNL     1      15.691  11.775  12.794  0.00  0.00    +0.030 A 
ATOM     33  C   UNL     1      17.923  12.134  14.430  0.00  0.00    +0.025 A 
ATOM     34  C   UNL     1      16.882  12.261  12.254  0.00  0.00    +0.025 A 
ATOM     35  C   UNL     1      17.997  12.441  13.071  0.00  0.00    +0.033 A 
BRANCH  35  11
ATOM      7  O   UNL     1      20.491  10.989  12.213  0.00  0.00    -0.276 OA
ATOM     11  N   UNL     1      19.188  12.927  12.531  0.00  0.00    -0.286 N 
ATOM     36  C   UNL     1      20.324  12.202  12.148  0.00  0.00    +0.214 C 
ATOM     37  C   UNL     1      21.406  13.103  11.605  0.00  0.00    +0.109 C 
ATOM     39  H   UNL     1      19.226  13.936  12.402  0.00  0.00    +0.155 HD
ENDBRANCH  35  11
ENDBRANCH   1  27
ENDBRANCH  10   1
ENDBRANCH  22  10
TORSDOF 5
ENDMDL
MODEL 2
REMARK VINA RESULT:      -8.1     29.380     31.500
REMARK  Name = 11879867
REMARK  6 active torsions:
REMARK  status: ('A' for Active; 'I' for Inactive)
REMARK    1  A    between atoms: S_1  and  N_10
REMARK    2  A    between atoms: S_1  and  C_27
REMARK    3  A    between atoms: N_10  and  C_22
REMARK    4  A    between atoms: N_11  and  C_35
REMARK    5  A    between atoms: C_21  and  C_24
REMARK    6  A    between atoms: C_36  and  C_37
REMARK                            x       y       z     vdW  Elec       q    Type
REMARK                         _______ _______ _______ _____ _____    ______ ____
ROOT
ATOM      3  O   UNL     1      -8.108  -9.227  15.928  0.00  0.00    -0.266 OA
ATOM      4  O   UNL     1      -5.577 -13.927  14.354  0.00  0.00    -0.270 OA
ATOM      8  N   UNL     1      -4.492 -12.676  16.007  0.00  0.00    -0.297 N 
ATOM      9  N   UNL     1      -6.825 -10.813  17.080  0.00  0.00    -0.310 N 
ATOM     12  C   UNL     1      -4.290 -10.608  17.378  0.00  0.00    +0.027 C 
ATOM     13  C   UNL     1      -5.474 -12.567  18.285  0.00  0.00    +0.054 C 
ATOM     14  C   UNL     1      -4.515 -11.433  18.641  0.00  0.00    +0.018 C 
ATOM     15  C   UNL     1      -3.686 -11.483  16.265  0.00  0.00    +0.113 C 
ATOM     16  C   UNL     1      -5.624  -9.977  16.957  0.00  0.00    +0.130 C 
ATOM     17  C   UNL     1      -4.838 -13.462  17.202  0.00  0.00    +0.117 C 
ATOM     18  C   UNL     1      -6.801 -12.025  17.785  0.00  0.00    +0.027 A 
ATOM     19  C   UNL     1      -7.935 -12.721  17.984  0.00  0.00    +0.024 A 
ATOM     20  C   UNL     1      -8.019 -10.289  16.542  0.00  0.00    +0.274 A 
ATOM     21  C   UNL     1      -4.885 -12.971  14.700  0.00  0.00    +0.247 C 
ATOM     22  C   UNL     1      -9.232 -11.114  16.773  0.00  0.00    +0.112 A 
ATOM     23  C   UNL     1      -9.191 -12.255  17.463  0.00  0.00    +0.031 A 
ENDROOT
BRANCH  21  24
ATOM      2  F   UNL     1      -3.137  -9.576  10.616  0.00  0.00    -0.205 F 
ATOM     24  C   UNL     1      -4.427 -12.081  13.627  0.00  0.00    +0.037 A 
ATOM     25  C   UNL     1      -5.191 -10.972  13.273  0.00  0.00    +0.016 A 
ATOM     26  C   UNL     1      -3.229 -12.348  12.969  0.00  0.00    +0.016 A 
ATOM     28  C   UNL     1      -4.755 -10.125  12.255  0.00  0.00    +0.039 A 
ATOM     29  C   UNL     1      -2.793 -11.501  11.951  0.00  0.00    +0.039 A 
ATOM     30  C   UNL     1      -3.556 -10.390  11.593  0.00  0.00    +0.123 A 
ENDBRANCH  21  24
BRANCH  22  10
ATOM     10  N   UNL     1     -10.477 -10.699  16.270  0.00  0.00    -0.211 N 
ATOM     38  H   UNL     1     -11.052 -11.464  15.893  0.00  0.00    +0.174 HD
BRANCH  10   1
ATOM      1  S   UNL     1     -11.323  -9.573  17.231  0.00  0.00    +0.072 S 
ATOM      5  O   UNL     1     -12.668 -10.054  17.487  0.00  0.00    -0.150 OA
ATOM      6  O   UNL     1     -10.458  -9.128  18.306  0.00  0.00    -0.150 OA
BRANCH   1  27
ATOM     27  C   UNL     1     -11.588  -8.117  16.220  0.00  0.00    +0.109 A 
ATOM     31  C   UNL     1     -12.736  -8.044  15.472  0.00  0.00    +0.030 A 
ATOM     32  C   UNL     1     -10.631  -7.134  16.233  0.00  0.00    +0.030 A 
ATOM     33  C   UNL     1     -12.942  -6.911  14.686  0.00  0.00    +0.025 A 
ATOM     34  C   UNL     1     -10.838  -6.000  15.447  0.00  0.00    +0.025 A 
ATOM     35  C   UNL     1     -11.993  -5.889  14.673  0.00  0.00    +0.033 A 
BRANCH  35  11
ATOM      7  O   UNL     1     -12.194  -5.593  11.683  0.00  0.00    -0.276 OA
ATOM     11  N   UNL     1     -12.200  -4.755  13.887  0.00  0.00    -0.286 N 
ATOM     36  C   UNL     1     -12.284  -4.674  12.491  0.00  0.00    +0.214 C 
ATOM     37  C   UNL     1     -12.516  -3.257  12.026  0.00  0.00    +0.109 C 
ATOM     39  H   UNL     1     -12.300  -3.883  14.402  0.00  0.00    +0.155 HD
ENDBRANCH  35  11
ENDBRANCH   1  27
ENDBRANCH  10   1
ENDBRANCH  22  10
TORSDOF 5
ENDMDL
MODEL 3
REMARK VINA RESULT:      -7.9     28.780     30.972
REMARK  Name = 11879867
REMARK  6 active torsions:
REMARK  status: ('A' for Active; 'I' for Inactive)
REMARK    1  A    between atoms: S_1  and  N_10
REMARK    2  A    between atoms: S_1  and  C_27
REMARK    3  A    between atoms: N_10  and  C_22
REMARK    4  A    between atoms: N_11  and  C_35
REMARK    5  A    between atoms: C_21  and  C_24
REMARK    6  A    between atoms: C_36  and  C_37
REMARK                            x       y       z     vdW  Elec       q    Type
REMARK                         _______ _______ _______ _____ _____    ______ ____
ROOT
ATOM      3  O   UNL     1      -7.847  -9.414  10.963  0.00  0.00    -0.266 OA
ATOM      4  O   UNL     1      -2.567 -10.156  12.562  0.00  0.00    -0.270 OA
ATOM      8  N   UNL     1      -3.834 -12.099  12.253  0.00  0.00    -0.297 N 
ATOM      9  N   UNL     1      -6.246 -11.054  10.478  0.00  0.00    -0.310 N 
ATOM     12  C   UNL     1      -6.014 -13.221  11.824  0.00  0.00    +0.027 C 
ATOM     13  C   UNL     1      -4.478 -12.773   9.952  0.00  0.00    +0.054 C 
ATOM     14  C   UNL     1      -5.453 -13.798  10.529  0.00  0.00    +0.018 C 
ATOM     15  C   UNL     1      -4.879 -12.946  12.827  0.00  0.00    +0.113 C 
ATOM     16  C   UNL     1      -6.812 -11.952  11.494  0.00  0.00    +0.130 C 
ATOM     17  C   UNL     1      -3.322 -12.542  10.946  0.00  0.00    +0.117 C 
ATOM     18  C   UNL     1      -5.177 -11.456   9.665  0.00  0.00    +0.027 A 
ATOM     19  C   UNL     1      -4.746 -10.666   8.665  0.00  0.00    +0.024 A 
ATOM     20  C   UNL     1      -6.895  -9.816  10.295  0.00  0.00    +0.274 A 
ATOM     21  C   UNL     1      -3.418 -10.957  12.942  0.00  0.00    +0.247 C 
ATOM     22  C   UNL     1      -6.360  -8.978   9.192  0.00  0.00    +0.112 A 
ATOM     23  C   UNL     1      -5.354  -9.386   8.418  0.00  0.00    +0.031 A 
ENDROOT
BRANCH  21  24
ATOM      2  F   UNL     1      -5.744  -9.920  17.920  0.00  0.00    -0.205 F 
ATOM     24  C   UNL     1      -4.027 -10.684  14.248  0.00  0.00    +0.037 A 
ATOM     25  C   UNL     1      -5.315 -10.159  14.315  0.00  0.00    +0.016 A 
ATOM     26  C   UNL     1      -3.317 -10.953  15.416  0.00  0.00    +0.016 A 
ATOM     28  C   UNL     1      -5.896  -9.901  15.557  0.00  0.00    +0.039 A 
ATOM     29  C   UNL     1      -3.896 -10.694  16.657  0.00  0.00    +0.039 A 
ATOM     30  C   UNL     1      -5.186 -10.168  16.728  0.00  0.00    +0.123 A 
ENDBRANCH  21  24
BRANCH  22  10
ATOM     10  N   UNL     1      -6.919  -7.716   8.926  0.00  0.00    -0.211 N 
ATOM     38  H   UNL     1      -6.223  -6.976   8.768  0.00  0.00    +0.174 HD
BRANCH  10   1
ATOM      1  S   UNL     1      -8.234  -7.706   7.842  0.00  0.00    +0.072 S 
ATOM      5  O   UNL     1      -7.890  -6.946   6.655  0.00  0.00    -0.150 OA
ATOM      6  O   UNL     1      -8.784  -9.044   7.755  0.00  0.00    -0.150 OA
BRANCH   1  27
ATOM     27  C   UNL     1      -9.529  -6.724   8.600  0.00  0.00    +0.109 A 
ATOM     31  C   UNL     1      -9.467  -5.359   8.479  0.00  0.00    +0.030 A 
ATOM     32  C   UNL     1     -10.530  -7.378   9.272  0.00  0.00    +0.030 A 
ATOM     33  C   UNL     1     -10.474  -4.596   9.069  0.00  0.00    +0.025 A 
ATOM     34  C   UNL     1     -11.538  -6.615   9.861  0.00  0.00    +0.025 A 
ATOM     35  C   UNL     1     -11.510  -5.224   9.760  0.00  0.00    +0.033 A 
BRANCH  35  11
ATOM      7  O   UNL     1     -11.974  -4.490  12.643  0.00  0.00    -0.276 OA
ATOM     11  N   UNL     1     -12.518  -4.461  10.350  0.00  0.00    -0.286 N 
ATOM     36  C   UNL     1     -12.687  -4.150  11.705  0.00  0.00    +0.214 C 
ATOM     37  C   UNL     1     -13.910  -3.295  11.935  0.00  0.00    +0.109 C 
ATOM     39  H   UNL     1     -13.213  -4.088   9.706  0.00  0.00    +0.155 HD
ENDBRANCH  35  11
ENDBRANCH   1  27
ENDBRANCH  10   1
ENDBRANCH  22  10
TORSDOF 5
ENDMDL
MODEL 4
REMARK VINA RESULT:      -7.9     12.248     14.289
REMARK  Name = 11879867
REMARK  6 active torsions:
REMARK  status: ('A' for Active; 'I' for Inactive)
REMARK    1  A    between atoms: S_1  and  N_10
REMARK    2  A    between atoms: S_1  and  C_27
REMARK    3  A    between atoms: N_10  and  C_22
REMARK    4  A    between atoms: N_11  and  C_35
REMARK    5  A    between atoms: C_21  and  C_24
REMARK    6  A    between atoms: C_36  and  C_37
REMARK                            x       y       z     vdW  Elec       q    Type
REMARK                         _______ _______ _______ _____ _____    ______ ____
ROOT
ATOM      3  O   UNL     1      13.952   7.452   6.852  0.00  0.00    -0.266 OA
ATOM      4  O   UNL     1       9.893   8.151   3.108  0.00  0.00    -0.270 OA
ATOM      8  N   UNL     1       9.402   6.741   4.910  0.00  0.00    -0.297 N 
ATOM      9  N   UNL     1      11.618   7.559   7.027  0.00  0.00    -0.310 N 
ATOM     12  C   UNL     1      10.115   5.487   6.938  0.00  0.00    +0.027 C 
ATOM     13  C   UNL     1       9.107   7.722   7.171  0.00  0.00    +0.054 C 
ATOM     14  C   UNL     1       9.156   6.322   7.781  0.00  0.00    +0.018 C 
ATOM     15  C   UNL     1       9.625   5.413   5.481  0.00  0.00    +0.113 C 
ATOM     16  C   UNL     1      11.520   6.093   7.045  0.00  0.00    +0.130 C 
ATOM     17  C   UNL     1       8.571   7.638   5.728  0.00  0.00    +0.117 C 
ATOM     18  C   UNL     1      10.481   8.367   7.170  0.00  0.00    +0.027 A 
ATOM     19  C   UNL     1      10.601   9.703   7.266  0.00  0.00    +0.024 A 
ATOM     20  C   UNL     1      12.916   8.107   6.961  0.00  0.00    +0.274 A 
ATOM     21  C   UNL     1       9.986   7.069   3.684  0.00  0.00    +0.247 C 
ATOM     22  C   UNL     1      12.982   9.588   7.048  0.00  0.00    +0.112 A 
ATOM     23  C   UNL     1      11.890  10.337   7.202  0.00  0.00    +0.031 A 
ENDROOT
BRANCH  21  24
ATOM      2  F   UNL     1      12.968   3.132   1.064  0.00  0.00    -0.205 F 
ATOM     24  C   UNL     1      10.768   6.036   2.998  0.00  0.00    +0.037 A 
ATOM     25  C   UNL     1      10.116   4.996   2.339  0.00  0.00    +0.016 A 
ATOM     26  C   UNL     1      12.160   6.099   3.006  0.00  0.00    +0.016 A 
ATOM     28  C   UNL     1      10.860   4.014   1.684  0.00  0.00    +0.039 A 
ATOM     29  C   UNL     1      12.903   5.117   2.353  0.00  0.00    +0.039 A 
ATOM     30  C   UNL     1      12.254   4.075   1.692  0.00  0.00    +0.123 A 
ENDBRANCH  21  24
BRANCH  22  10
ATOM     10  N   UNL     1      14.222  10.246   6.977  0.00  0.00    -0.211 N 
ATOM     38  H   UNL     1      14.946   9.840   7.585  0.00  0.00    +0.174 HD
BRANCH  10   1
ATOM      1  S   UNL     1      14.750  10.657   5.409  0.00  0.00    +0.072 S 
ATOM      5  O   UNL     1      13.782  10.208   4.428  0.00  0.00    -0.150 OA
ATOM      6  O   UNL     1      15.245  12.021   5.421  0.00  0.00    -0.150 OA
BRANCH   1  27
ATOM     27  C   UNL     1      16.192   9.648   5.062  0.00  0.00    +0.109 A 
ATOM     31  C   UNL     1      16.211   8.919   3.900  0.00  0.00    +0.030 A 
ATOM     32  C   UNL     1      17.217   9.646   5.973  0.00  0.00    +0.030 A 
ATOM     33  C   UNL     1      17.332   8.135   3.631  0.00  0.00    +0.025 A 
ATOM     34  C   UNL     1      18.339   8.862   5.703  0.00  0.00    +0.025 A 
ATOM     35  C   UNL     1      18.396   8.106   4.532  0.00  0.00    +0.033 A 
BRANCH  35  11
ATOM      7  O   UNL     1      21.031   8.832   3.269  0.00  0.00    -0.276 OA
ATOM     11  N   UNL     1      19.518   7.322   4.261  0.00  0.00    -0.286 N 
ATOM     36  C   UNL     1      20.724   7.714   3.668  0.00  0.00    +0.214 C 
ATOM     37  C   UNL     1      21.691   6.561   3.552  0.00  0.00    +0.109 C 
ATOM     39  H   UNL     1      19.439   6.344   4.533  0.00  0.00    +0.155 HD
ENDBRANCH  35  11
ENDBRANCH   1  27
ENDBRANCH  10   1
ENDBRANCH  22  10
TORSDOF 5
ENDMDL
MODEL 5
REMARK VINA RESULT:      -7.8     28.216     31.401
REMARK  Name = 11879867
REMARK  6 active torsions:
REMARK  status: ('A' for Active; 'I' for Inactive)
REMARK    1  A    between atoms: S_1  and  N_10
REMARK    2  A    between atoms: S_1  and  C_27
REMARK    3  A    between atoms: N_10  and  C_22
REMARK    4  A    between atoms: N_11  and  C_35
REMARK    5  A    between atoms: C_21  and  C_24
REMARK    6  A    between atoms: C_36  and  C_37
REMARK                            x       y       z     vdW  Elec       q    Type
REMARK                         _______ _______ _______ _____ _____    ______ ____
ROOT
ATOM      3  O   UNL     1      -3.273 -14.030  15.363  0.00  0.00    -0.266 OA
ATOM      4  O   UNL     1      -6.391  -9.946  13.225  0.00  0.00    -0.270 OA
ATOM      8  N   UNL     1      -6.311 -11.934  11.994  0.00  0.00    -0.297 N 
ATOM      9  N   UNL     1      -5.276 -14.019  14.149  0.00  0.00    -0.310 N 
ATOM     12  C   UNL     1      -5.364 -14.201  11.596  0.00  0.00    +0.027 C 
ATOM     13  C   UNL     1      -7.452 -13.954  12.877  0.00  0.00    +0.054 C 
ATOM     14  C   UNL     1      -6.742 -14.810  11.828  0.00  0.00    +0.018 C 
ATOM     15  C   UNL     1      -5.493 -12.751  11.098  0.00  0.00    +0.113 C 
ATOM     16  C   UNL     1      -4.557 -14.295  12.898  0.00  0.00    +0.130 C 
ATOM     17  C   UNL     1      -7.616 -12.516  12.346  0.00  0.00    +0.117 C 
ATOM     18  C   UNL     1      -6.675 -13.933  14.182  0.00  0.00    +0.027 A 
ATOM     19  C   UNL     1      -7.323 -13.794  15.352  0.00  0.00    +0.024 A 
ATOM     20  C   UNL     1      -4.499 -13.947  15.324  0.00  0.00    +0.274 A 
ATOM     21  C   UNL     1      -5.815 -10.713  12.456  0.00  0.00    +0.247 C 
ATOM     22  C   UNL     1      -5.269 -13.768  16.581  0.00  0.00    +0.112 A 
ATOM     23  C   UNL     1      -6.601 -13.707  16.593  0.00  0.00    +0.031 A 
ENDROOT
BRANCH  21  24
ATOM      2  F   UNL     1      -0.791  -9.066  10.638  0.00  0.00    -0.205 F 
ATOM     24  C   UNL     1      -4.496 -10.282  11.979  0.00  0.00    +0.037 A 
ATOM     25  C   UNL     1      -4.393  -9.547  10.801  0.00  0.00    +0.016 A 
ATOM     26  C   UNL     1      -3.354 -10.608  12.706  0.00  0.00    +0.016 A 
ATOM     28  C   UNL     1      -3.140  -9.135  10.347  0.00  0.00    +0.039 A 
ATOM     29  C   UNL     1      -2.101 -10.198  12.253  0.00  0.00    +0.039 A 
ATOM     30  C   UNL     1      -1.994  -9.461  11.073  0.00  0.00    +0.123 A 
ENDBRANCH  21  24
BRANCH  22  10
ATOM     10  N   UNL     1      -4.599 -13.667  17.813  0.00  0.00    -0.211 N 
ATOM     38  H   UNL     1      -3.860 -14.369  17.945  0.00  0.00    +0.174 HD
BRANCH  10   1
ATOM      1  S   UNL     1      -4.182 -12.086  18.297  0.00  0.00    +0.072 S 
ATOM      5  O   UNL     1      -3.960 -12.051  19.730  0.00  0.00    -0.150 OA
ATOM      6  O   UNL     1      -3.211 -11.548  17.364  0.00  0.00    -0.150 OA
BRANCH   1  27
ATOM     27  C   UNL     1      -5.643 -11.070  18.079  0.00  0.00    +0.109 A 
ATOM     31  C   UNL     1      -6.639 -11.152  19.019  0.00  0.00    +0.030 A 
ATOM     32  C   UNL     1      -5.706 -10.251  16.981  0.00  0.00    +0.030 A 
ATOM     33  C   UNL     1      -7.775 -10.361  18.849  0.00  0.00    +0.025 A 
ATOM     34  C   UNL     1      -6.842  -9.459  16.812  0.00  0.00    +0.025 A 
ATOM     35  C   UNL     1      -7.876  -9.515  17.746  0.00  0.00    +0.033 A 
BRANCH  35  11
ATOM      7  O   UNL     1     -10.453 -10.077  16.291  0.00  0.00    -0.276 OA
ATOM     11  N   UNL     1      -9.013  -8.723  17.576  0.00  0.00    -0.286 N 
ATOM     36  C   UNL     1     -10.190  -9.036  16.885  0.00  0.00    +0.214 C 
ATOM     37  C   UNL     1     -11.187  -7.904  16.936  0.00  0.00    +0.109 C 
ATOM     39  H   UNL     1      -8.971  -7.805  18.014  0.00  0.00    +0.155 HD
ENDBRANCH  35  11
ENDBRANCH   1  27
ENDBRANCH  10   1
ENDBRANCH  22  10
TORSDOF 5
ENDMDL
MODEL 6
REMARK VINA RESULT:      -7.8     28.867     31.307
REMARK  Name = 11879867
REMARK  6 active torsions:
REMARK  status: ('A' for Active; 'I' for Inactive)
REMARK    1  A    between atoms: S_1  and  N_10
REMARK    2  A    between atoms: S_1  and  C_27
REMARK    3  A    between atoms: N_10  and  C_22
REMARK    4  A    between atoms: N_11  and  C_35
REMARK    5  A    between atoms: C_21  and  C_24
REMARK    6  A    between atoms: C_36  and  C_37
REMARK                            x       y       z     vdW  Elec       q    Type
REMARK                         _______ _______ _______ _____ _____    ______ ____
ROOT
ATOM      3  O   UNL     1      -6.084 -13.165  15.641  0.00  0.00    -0.266 OA
ATOM      4  O   UNL     1      -8.641  -8.584  17.500  0.00  0.00    -0.270 OA
ATOM      8  N   UNL     1      -9.735 -10.613  17.906  0.00  0.00    -0.297 N 
ATOM      9  N   UNL     1      -7.399 -12.725  17.529  0.00  0.00    -0.310 N 
ATOM     12  C   UNL     1      -9.936 -13.072  17.577  0.00  0.00    +0.027 C 
ATOM     13  C   UNL     1      -8.783 -12.192  19.567  0.00  0.00    +0.054 C 
ATOM     14  C   UNL     1      -9.737 -13.280  19.074  0.00  0.00    +0.018 C 
ATOM     15  C   UNL     1     -10.533 -11.680  17.302  0.00  0.00    +0.113 C 
ATOM     16  C   UNL     1      -8.590 -13.273  16.867  0.00  0.00    +0.130 C 
ATOM     17  C   UNL     1      -9.414 -10.806  19.328  0.00  0.00    +0.117 C 
ATOM     18  C   UNL     1      -7.445 -12.275  18.856  0.00  0.00    +0.027 A 
ATOM     19  C   UNL     1      -6.321 -11.883  19.483  0.00  0.00    +0.024 A 
ATOM     20  C   UNL     1      -6.192 -12.768  16.800  0.00  0.00    +0.274 A 
ATOM     21  C   UNL     1      -9.327  -9.532  17.121  0.00  0.00    +0.247 C 
ATOM     22  C   UNL     1      -4.991 -12.300  17.536  0.00  0.00    +0.112 A 
ATOM     23  C   UNL     1      -5.053 -11.893  18.805  0.00  0.00    +0.031 A 
ENDROOT
BRANCH  21  24
ATOM      2  F   UNL     1     -10.986  -9.404  11.783  0.00  0.00    -0.205 F 
ATOM     24  C   UNL     1      -9.762  -9.497  15.720  0.00  0.00    +0.037 A 
ATOM     25  C   UNL     1      -8.955 -10.051  14.730  0.00  0.00    +0.016 A 
ATOM     26  C   UNL     1     -10.982  -8.912  15.386  0.00  0.00    +0.016 A 
ATOM     28  C   UNL     1      -9.368 -10.020  13.398  0.00  0.00    +0.039 A 
ATOM     29  C   UNL     1     -11.395  -8.880  14.055  0.00  0.00    +0.039 A 
ATOM     30  C   UNL     1     -10.588  -9.434  13.061  0.00  0.00    +0.123 A 
ENDBRANCH  21  24
BRANCH  22  10
ATOM     10  N   UNL     1      -3.735 -12.284  16.905  0.00  0.00    -0.211 N 
ATOM     38  H   UNL     1      -3.561 -13.097  16.301  0.00  0.00    +0.174 HD
BRANCH  10   1
ATOM      1  S   UNL     1      -3.262 -10.785  16.244  0.00  0.00    +0.072 S 
ATOM      5  O   UNL     1      -4.128  -9.731  16.738  0.00  0.00    -0.150 OA
ATOM      6  O   UNL     1      -1.818 -10.675  16.310  0.00  0.00    -0.150 OA
BRANCH   1  27
ATOM     27  C   UNL     1      -3.640 -10.845  14.492  0.00  0.00    +0.109 A 
ATOM     31  C   UNL     1      -2.660 -11.268  13.629  0.00  0.00    +0.030 A 
ATOM     32  C   UNL     1      -4.893 -10.464  14.084  0.00  0.00    +0.030 A 
ATOM     33  C   UNL     1      -2.954 -11.315  12.267  0.00  0.00    +0.025 A 
ATOM     34  C   UNL     1      -5.187 -10.512  12.721  0.00  0.00    +0.025 A 
ATOM     35  C   UNL     1      -4.217 -10.936  11.813  0.00  0.00    +0.033 A 
BRANCH  35  11
ATOM      7  O   UNL     1      -3.545  -9.009   9.599  0.00  0.00    -0.276 OA
ATOM     11  N   UNL     1      -4.511 -10.984  10.449  0.00  0.00    -0.286 N 
ATOM     36  C   UNL     1      -4.173 -10.054   9.459  0.00  0.00    +0.214 C 
ATOM     37  C   UNL     1      -4.679 -10.474   8.101  0.00  0.00    +0.109 C 
ATOM     39  H   UNL     1      -5.038 -11.801  10.148  0.00  0.00    +0.155 HD
ENDBRANCH  35  11
ENDBRANCH   1  27
ENDBRANCH  10   1
ENDBRANCH  22  10
TORSDOF 5
ENDMDL
MODEL 7
REMARK VINA RESULT:      -7.8     14.467     19.030
REMARK  Name = 11879867
REMARK  6 active torsions:
REMARK  status: ('A' for Active; 'I' for Inactive)
REMARK    1  A    between atoms: S_1  and  N_10
REMARK    2  A    between atoms: S_1  and  C_27
REMARK    3  A    between atoms: N_10  and  C_22
REMARK    4  A    between atoms: N_11  and  C_35
REMARK    5  A    between atoms: C_21  and  C_24
REMARK    6  A    between atoms: C_36  and  C_37
REMARK                            x       y       z     vdW  Elec       q    Type
REMARK                         _______ _______ _______ _____ _____    ______ ____
ROOT
ATOM      3  O   UNL     1      11.947   8.345   0.216  0.00  0.00    -0.266 OA
ATOM      4  O   UNL     1      12.736   2.860   0.733  0.00  0.00    -0.270 OA
ATOM      8  N   UNL     1      14.263   3.998  -0.628  0.00  0.00    -0.297 N 
ATOM      9  N   UNL     1      13.869   7.008   0.291  0.00  0.00    -0.310 N 
ATOM     12  C   UNL     1      14.996   6.064  -1.806  0.00  0.00    +0.027 C 
ATOM     13  C   UNL     1      15.909   5.533   0.419  0.00  0.00    +0.054 C 
ATOM     14  C   UNL     1      16.265   6.086  -0.961  0.00  0.00    +0.018 C 
ATOM     15  C   UNL     1      14.460   4.627  -1.933  0.00  0.00    +0.113 C 
ATOM     16  C   UNL     1      13.967   7.011  -1.175  0.00  0.00    +0.130 C 
ATOM     17  C   UNL     1      15.417   4.079   0.281  0.00  0.00    +0.117 C 
ATOM     18  C   UNL     1      14.836   6.375   1.085  0.00  0.00    +0.027 A 
ATOM     19  C   UNL     1      14.793   6.480   2.425  0.00  0.00    +0.024 A 
ATOM     20  C   UNL     1      12.816   7.756   0.857  0.00  0.00    +0.274 A 
ATOM     21  C   UNL     1      13.035   3.402  -0.330  0.00  0.00    +0.247 C 
ATOM     22  C   UNL     1      12.807   7.814   2.341  0.00  0.00    +0.112 A 
ATOM     23  C   UNL     1      13.747   7.220   3.077  0.00  0.00    +0.031 A 
ENDROOT
BRANCH  21  24
ATOM      2  F   UNL     1       9.098   3.383  -4.299  0.00  0.00    -0.205 F 
ATOM     24  C   UNL     1      12.003   3.398  -1.372  0.00  0.00    +0.037 A 
ATOM     25  C   UNL     1      11.922   2.331  -2.262  0.00  0.00    +0.016 A 
ATOM     26  C   UNL     1      11.106   4.460  -1.465  0.00  0.00    +0.016 A 
ATOM     28  C   UNL     1      10.939   2.325  -3.253  0.00  0.00    +0.039 A 
ATOM     29  C   UNL     1      10.125   4.455  -2.455  0.00  0.00    +0.039 A 
ATOM     30  C   UNL     1      10.041   3.388  -3.349  0.00  0.00    +0.123 A 
ENDBRANCH  21  24
BRANCH  22  10
ATOM     10  N   UNL     1      11.795   8.517   3.016  0.00  0.00    -0.211 N 
ATOM     38  H   UNL     1      11.804   9.531   2.843  0.00  0.00    +0.174 HD
BRANCH  10   1
ATOM      1  S   UNL     1      10.249   7.798   2.983  0.00  0.00    +0.072 S 
ATOM      5  O   UNL     1       9.238   8.811   2.748  0.00  0.00    -0.150 OA
ATOM      6  O   UNL     1      10.310   6.586   2.189  0.00  0.00    -0.150 OA
BRANCH   1  27
ATOM     27  C   UNL     1       9.897   7.239   4.650  0.00  0.00    +0.109 A 
ATOM     31  C   UNL     1       8.664   7.517   5.183  0.00  0.00    +0.030 A 
ATOM     32  C   UNL     1      10.876   6.556   5.326  0.00  0.00    +0.030 A 
ATOM     33  C   UNL     1       8.390   7.082   6.479  0.00  0.00    +0.025 A 
ATOM     34  C   UNL     1      10.601   6.120   6.622  0.00  0.00    +0.025 A 
ATOM     35  C   UNL     1       9.359   6.384   7.199  0.00  0.00    +0.033 A 
BRANCH  35  11
ATOM      7  O   UNL     1      10.065   3.806   8.585  0.00  0.00    -0.276 OA
ATOM     11  N   UNL     1       9.085   5.948   8.496  0.00  0.00    -0.286 N 
ATOM     36  C   UNL     1       9.438   4.730   9.092  0.00  0.00    +0.214 C 
ATOM     37  C   UNL     1       8.952   4.644  10.518  0.00  0.00    +0.109 C 
ATOM     39  H   UNL     1       8.562   6.603   9.072  0.00  0.00    +0.155 HD
ENDBRANCH  35  11
ENDBRANCH   1  27
ENDBRANCH  10   1
ENDBRANCH  22  10
TORSDOF 5
ENDMDL
MODEL 8
REMARK VINA RESULT:      -7.7     13.533     16.648
REMARK  Name = 11879867
REMARK  6 active torsions:
REMARK  status: ('A' for Active; 'I' for Inactive)
REMARK    1  A    between atoms: S_1  and  N_10
REMARK    2  A    between atoms: S_1  and  C_27
REMARK    3  A    between atoms: N_10  and  C_22
REMARK    4  A    between atoms: N_11  and  C_35
REMARK    5  A    between atoms: C_21  and  C_24
REMARK    6  A    between atoms: C_36  and  C_37
REMARK                            x       y       z     vdW  Elec       q    Type
REMARK                         _______ _______ _______ _____ _____    ______ ____
ROOT
ATOM      3  O   UNL     1      12.165   4.423   2.579  0.00  0.00    -0.266 OA
ATOM      4  O   UNL     1       7.809   7.296   4.515  0.00  0.00    -0.270 OA
ATOM      8  N   UNL     1       9.901   8.322   4.734  0.00  0.00    -0.297 N 
ATOM      9  N   UNL     1      11.663   6.711   2.646  0.00  0.00    -0.310 N 
ATOM     12  C   UNL     1      12.383   8.242   4.568  0.00  0.00    +0.027 C 
ATOM     13  C   UNL     1      11.060   9.157   2.704  0.00  0.00    +0.054 C 
ATOM     14  C   UNL     1      12.340   9.346   3.516  0.00  0.00    +0.018 C 
ATOM     15  C   UNL     1      11.153   8.330   5.490  0.00  0.00    +0.113 C 
ATOM     16  C   UNL     1      12.476   6.886   3.857  0.00  0.00    +0.130 C 
ATOM     17  C   UNL     1       9.835   9.294   3.630  0.00  0.00    +0.117 C 
ATOM     18  C   UNL     1      11.039   7.800   2.024  0.00  0.00    +0.027 A 
ATOM     19  C   UNL     1      10.393   7.640   0.854  0.00  0.00    +0.024 A 
ATOM     20  C   UNL     1      11.626   5.415   2.090  0.00  0.00    +0.274 A 
ATOM     21  C   UNL     1       8.895   7.417   5.080  0.00  0.00    +0.247 C 
ATOM     22  C   UNL     1      10.879   5.296   0.813  0.00  0.00    +0.112 A 
ATOM     23  C   UNL     1      10.307   6.349   0.226  0.00  0.00    +0.031 A 
ENDROOT
BRANCH  21  24
ATOM      2  F   UNL     1       9.783   4.055   9.458  0.00  0.00    -0.205 F 
ATOM     24  C   UNL     1       9.129   6.535   6.228  0.00  0.00    +0.037 A 
ATOM     25  C   UNL     1       8.823   6.976   7.513  0.00  0.00    +0.016 A 
ATOM     26  C   UNL     1       9.654   5.261   6.029  0.00  0.00    +0.016 A 
ATOM     28  C   UNL     1       9.044   6.137   8.606  0.00  0.00    +0.039 A 
ATOM     29  C   UNL     1       9.876   4.422   7.120  0.00  0.00    +0.039 A 
ATOM     30  C   UNL     1       9.571   4.861   8.409  0.00  0.00    +0.123 A 
ENDBRANCH  21  24
BRANCH  22  10
ATOM     10  N   UNL     1      10.762   4.050   0.174  0.00  0.00    -0.211 N 
ATOM     38  H   UNL     1       9.791   3.741   0.035  0.00  0.00    +0.174 HD
BRANCH  10   1
ATOM      1  S   UNL     1      11.789   3.809  -1.166  0.00  0.00    +0.072 S 
ATOM      5  O   UNL     1      12.129   2.404  -1.282  0.00  0.00    -0.150 OA
ATOM      6  O   UNL     1      11.276   4.563  -2.294  0.00  0.00    -0.150 OA
BRANCH   1  27
ATOM     27  C   UNL     1      13.356   4.585  -0.769  0.00  0.00    +0.109 A 
ATOM     31  C   UNL     1      13.629   5.815  -1.310  0.00  0.00    +0.030 A 
ATOM     32  C   UNL     1      14.220   3.915   0.060  0.00  0.00    +0.030 A 
ATOM     33  C   UNL     1      14.848   6.418  -1.002  0.00  0.00    +0.025 A 
ATOM     34  C   UNL     1      15.439   4.519   0.369  0.00  0.00    +0.025 A 
ATOM     35  C   UNL     1      15.753   5.769  -0.162  0.00  0.00    +0.033 A 
BRANCH  35  11
ATOM      7  O   UNL     1      16.366   8.186   1.527  0.00  0.00    -0.276 OA
ATOM     11  N   UNL     1      16.973   6.373   0.148  0.00  0.00    -0.286 N 
ATOM     36  C   UNL     1      17.201   7.504   0.943  0.00  0.00    +0.214 C 
ATOM     37  C   UNL     1      18.670   7.838   1.031  0.00  0.00    +0.109 C 
ATOM     39  H   UNL     1      17.792   5.929  -0.260  0.00  0.00    +0.155 HD
ENDBRANCH  35  11
ENDBRANCH   1  27
ENDBRANCH  10   1
ENDBRANCH  22  10
TORSDOF 5
ENDMDL
MODEL 9
REMARK VINA RESULT:      -7.5      4.231      6.331
REMARK  Name = 11879867
REMARK  6 active torsions:
REMARK  status: ('A' for Active; 'I' for Inactive)
REMARK    1  A    between atoms: S_1  and  N_10
REMARK    2  A    between atoms: S_1  and  C_27
REMARK    3  A    between atoms: N_10  and  C_22
REMARK    4  A    between atoms: N_11  and  C_35
REMARK    5  A    between atoms: C_21  and  C_24
REMARK    6  A    between atoms: C_36  and  C_37
REMARK                            x       y       z     vdW  Elec       q    Type
REMARK                         _______ _______ _______ _____ _____    ______ ____
ROOT
ATOM      3  O   UNL     1      13.462  11.004  20.672  0.00  0.00    -0.266 OA
ATOM      4  O   UNL     1      13.918  11.453  26.201  0.00  0.00    -0.270 OA
ATOM      8  N   UNL     1      12.631  13.092  25.136  0.00  0.00    -0.297 N 
ATOM      9  N   UNL     1      11.990  11.734  22.342  0.00  0.00    -0.310 N 
ATOM     12  C   UNL     1      11.797  14.184  23.060  0.00  0.00    +0.027 C 
ATOM     13  C   UNL     1      10.427  12.470  24.178  0.00  0.00    +0.054 C 
ATOM     14  C   UNL     1      10.371  13.811  23.447  0.00  0.00    +0.018 C 
ATOM     15  C   UNL     1      12.681  14.302  24.315  0.00  0.00    +0.113 C 
ATOM     16  C   UNL     1      12.331  13.137  22.074  0.00  0.00    +0.130 C 
ATOM     17  C   UNL     1      11.277  12.614  25.456  0.00  0.00    +0.117 C 
ATOM     18  C   UNL     1      11.017  11.389  23.290  0.00  0.00    +0.027 A 
ATOM     19  C   UNL     1      10.636  10.108  23.442  0.00  0.00    +0.024 A 
ATOM     20  C   UNL     1      12.614  10.764  21.531  0.00  0.00    +0.274 A 
ATOM     21  C   UNL     1      13.823  12.480  25.531  0.00  0.00    +0.247 C 
ATOM     22  C   UNL     1      12.170   9.366  21.761  0.00  0.00    +0.112 A 
ATOM     23  C   UNL     1      11.229   9.060  22.655  0.00  0.00    +0.031 A 
ENDROOT
BRANCH  21  24
ATOM      2  F   UNL     1      18.631  14.897  24.017  0.00  0.00    -0.205 F 
ATOM     24  C   UNL     1      15.085  13.113  25.134  0.00  0.00    +0.037 A 
ATOM     25  C   UNL     1      15.655  12.810  23.900  0.00  0.00    +0.016 A 
ATOM     26  C   UNL     1      15.708  14.017  25.992  0.00  0.00    +0.016 A 
ATOM     28  C   UNL     1      16.854  13.414  23.522  0.00  0.00    +0.039 A 
ATOM     29  C   UNL     1      16.907  14.619  25.615  0.00  0.00    +0.039 A 
ATOM     30  C   UNL     1      17.480  14.318  24.380  0.00  0.00    +0.123 A 
ENDBRANCH  21  24
BRANCH  22  10
ATOM     10  N   UNL     1      12.734   8.313  21.021  0.00  0.00    -0.211 N 
ATOM     38  H   UNL     1      13.079   7.534  21.597  0.00  0.00    +0.174 HD
BRANCH  10   1
ATOM      1  S   UNL     1      11.869   7.844  19.628  0.00  0.00    +0.072 S 
ATOM      5  O   UNL     1      12.043   6.423  19.393  0.00  0.00    -0.150 OA
ATOM      6  O   UNL     1      10.554   8.453  19.663  0.00  0.00    -0.150 OA
BRANCH   1  27
ATOM     27  C   UNL     1      12.689   8.600  18.224  0.00  0.00    +0.109 A 
ATOM     31  C   UNL     1      11.954   8.831  17.089  0.00  0.00    +0.030 A 
ATOM     32  C   UNL     1      14.018   8.916  18.341  0.00  0.00    +0.030 A 
ATOM     33  C   UNL     1      12.592   9.419  15.997  0.00  0.00    +0.025 A 
ATOM     34  C   UNL     1      14.656   9.505  17.250  0.00  0.00    +0.025 A 
ATOM     35  C   UNL     1      13.943   9.756  16.077  0.00  0.00    +0.033 A 
BRANCH  35  11
ATOM      7  O   UNL     1      13.927  12.606  15.107  0.00  0.00    -0.276 OA
ATOM     11  N   UNL     1      14.581  10.345  14.985  0.00  0.00    -0.286 N 
ATOM     36  C   UNL     1      14.537  11.684  14.577  0.00  0.00    +0.214 C 
ATOM     37  C   UNL     1      15.369  11.919  13.340  0.00  0.00    +0.109 C 
ATOM     39  H   UNL     1      15.146   9.714  14.420  0.00  0.00    +0.155 HD
ENDBRANCH  35  11
ENDBRANCH   1  27
ENDBRANCH  10   1
ENDBRANCH  22  10
TORSDOF 5
ENDMDL
MODEL 10
REMARK VINA RESULT:      -7.5     14.458     17.943
REMARK  Name = 11879867
REMARK  6 active torsions:
REMARK  status: ('A' for Active; 'I' for Inactive)
REMARK    1  A    between atoms: S_1  and  N_10
REMARK    2  A    between atoms: S_1  and  C_27
REMARK    3  A    between atoms: N_10  and  C_22
REMARK    4  A    between atoms: N_11  and  C_35
REMARK    5  A    between atoms: C_21  and  C_24
REMARK    6  A    between atoms: C_36  and  C_37
REMARK                            x       y       z     vdW  Elec       q    Type
REMARK                         _______ _______ _______ _____ _____    ______ ____
ROOT
ATOM      3  O   UNL     1      10.302   5.850   2.237  0.00  0.00    -0.266 OA
ATOM      4  O   UNL     1      10.058  10.707   4.944  0.00  0.00    -0.270 OA
ATOM      8  N   UNL     1       9.350   8.823   6.139  0.00  0.00    -0.297 N 
ATOM      9  N   UNL     1      10.638   6.449   4.477  0.00  0.00    -0.310 N 
ATOM     12  C   UNL     1       8.771   6.404   6.229  0.00  0.00    +0.027 C 
ATOM     13  C   UNL     1      11.030   7.147   6.867  0.00  0.00    +0.054 C 
ATOM     14  C   UNL     1       9.904   6.179   7.224  0.00  0.00    +0.018 C 
ATOM     15  C   UNL     1       8.266   7.856   6.309  0.00  0.00    +0.113 C 
ATOM     16  C   UNL     1       9.269   6.043   4.824  0.00  0.00    +0.130 C 
ATOM     17  C   UNL     1      10.524   8.598   6.996  0.00  0.00    +0.117 C 
ATOM     18  C   UNL     1      11.533   6.905   5.455  0.00  0.00    +0.027 A 
ATOM     19  C   UNL     1      12.815   7.163   5.140  0.00  0.00    +0.024 A 
ATOM     20  C   UNL     1      11.035   6.260   3.137  0.00  0.00    +0.274 A 
ATOM     21  C   UNL     1       9.217   9.846   5.197  0.00  0.00    +0.247 C 
ATOM     22  C   UNL     1      12.453   6.585   2.845  0.00  0.00    +0.112 A 
ATOM     23  C   UNL     1      13.294   7.000   3.794  0.00  0.00    +0.031 A 
ENDROOT
BRANCH  21  24
ATOM      2  F   UNL     1       4.428  10.163   2.329  0.00  0.00    -0.205 F 
ATOM     24  C   UNL     1       7.960   9.928   4.445  0.00  0.00    +0.037 A 
ATOM     25  C   UNL     1       6.907  10.694   4.938  0.00  0.00    +0.016 A 
ATOM     26  C   UNL     1       7.826   9.241   3.241  0.00  0.00    +0.016 A 
ATOM     28  C   UNL     1       5.712  10.774   4.222  0.00  0.00    +0.039 A 
ATOM     29  C   UNL     1       6.632   9.320   2.526  0.00  0.00    +0.039 A 
ATOM     30  C   UNL     1       5.575  10.087   3.016  0.00  0.00    +0.123 A 
ENDBRANCH  21  24
BRANCH  22  10
ATOM     10  N   UNL     1      12.957   6.451   1.540  0.00  0.00    -0.211 N 
ATOM     38  H   UNL     1      13.542   7.239   1.234  0.00  0.00    +0.174 HD
BRANCH  10   1
ATOM      1  S   UNL     1      13.565   4.910   1.139  0.00  0.00    +0.072 S 
ATOM      5  O   UNL     1      14.986   4.996   0.860  0.00  0.00    -0.150 OA
ATOM      6  O   UNL     1      13.032   3.936   2.071  0.00  0.00    -0.150 OA
BRANCH   1  27
ATOM     27  C   UNL     1      12.857   4.464  -0.447  0.00  0.00    +0.109 A 
ATOM     31  C   UNL     1      12.903   3.149  -0.834  0.00  0.00    +0.030 A 
ATOM     32  C   UNL     1      12.299   5.457  -1.211  0.00  0.00    +0.030 A 
ATOM     33  C   UNL     1      12.353   2.803  -2.067  0.00  0.00    +0.025 A 
ATOM     34  C   UNL     1      11.747   5.110  -2.444  0.00  0.00    +0.025 A 
ATOM     35  C   UNL     1      11.775   3.784  -2.872  0.00  0.00    +0.033 A 
BRANCH  35  11
ATOM      7  O   UNL     1       9.116   2.541  -3.546  0.00  0.00    -0.276 OA
ATOM     11  N   UNL     1      11.223   3.437  -4.107  0.00  0.00    -0.286 N 
ATOM     36  C   UNL     1       9.974   2.857  -4.363  0.00  0.00    +0.214 C 
ATOM     37  C   UNL     1       9.752   2.638  -5.840  0.00  0.00    +0.109 C 
ATOM     39  H   UNL     1      11.810   3.634  -4.915  0.00  0.00    +0.155 HD
ENDBRANCH  35  11
ENDBRANCH   1  27
ENDBRANCH  10   1
ENDBRANCH  22  10
TORSDOF 5
ENDMDL
