MODEL 1
REMARK VINA RESULT:      -6.1      0.000      0.000
REMARK  Name = 7161627
REMARK  7 active torsions:
REMARK  status: ('A' for Active; 'I' for Inactive)
REMARK    1  A    between atoms: O_2  and  C_19
REMARK    2  A    between atoms: O_2  and  C_22
REMARK    3  A    between atoms: O_5  and  C_21
REMARK    4  A    between atoms: O_5  and  C_23
REMARK    5  A    between atoms: C_8  and  C_15
REMARK    6  A    between atoms: C_13  and  C_19
REMARK    7  A    between atoms: C_20  and  C_21
REMARK                            x       y       z     vdW  Elec       q    Type
REMARK                         _______ _______ _______ _____ _____    ______ ____
ROOT
ATOM      1  O   UNL     1      17.828   9.381  20.873  0.00  0.00    -0.275 OA
ATOM      4  O   UNL     1      11.219   6.586  20.759  0.00  0.00    -0.273 OA
ATOM      6  N   UNL     1      15.876   8.116  20.833  0.00  0.00    -0.285 N 
ATOM      7  N   UNL     1      13.042   7.982  21.102  0.00  0.00    -0.296 N 
ATOM     13  C   UNL     1      15.053   9.253  20.399  0.00  0.00    +0.202 C 
ATOM     15  C   UNL     1      17.258   8.291  20.957  0.00  0.00    +0.219 C 
ATOM     16  C   UNL     1      15.193   6.815  20.934  0.00  0.00    +0.127 C 
ATOM     17  C   UNL     1      13.682   9.301  21.074  0.00  0.00    +0.141 C 
ATOM     18  C   UNL     1      13.871   6.928  21.680  0.00  0.00    +0.127 C 
ATOM     20  C   UNL     1      11.745   7.699  20.680  0.00  0.00    +0.241 C 
ENDROOT
BRANCH  15   8
ATOM      8  C   UNL     1      18.071   7.057  21.214  0.00  0.00    +0.075 C 
ATOM      9  C   UNL     1      19.344   7.421  21.982  0.00  0.00    +0.013 C 
ATOM     10  C   UNL     1      18.396   6.361  19.890  0.00  0.00    +0.013 C 
ATOM     11  C   UNL     1      20.250   6.209  22.182  0.00  0.00    +0.001 C 
ATOM     12  C   UNL     1      19.303   5.151  20.096  0.00  0.00    +0.001 C 
ATOM     14  C   UNL     1      20.571   5.521  20.859  0.00  0.00    +0.000 C 
ENDBRANCH  15   8
BRANCH  13  19
ATOM      3  O   UNL     1      14.852   8.089  18.298  0.00  0.00    -0.249 OA
ATOM     19  C   UNL     1      14.931   9.148  18.906  0.00  0.00    +0.329 C 
BRANCH  19   2
ATOM      2  O   UNL     1      14.925  10.397  18.361  0.00  0.00    -0.467 OA
ATOM     22  C   UNL     1      14.517  10.468  16.991  0.00  0.00    +0.280 C 
ENDBRANCH  19   2
ENDBRANCH  13  19
BRANCH  20  21
ATOM     21  C   UNL     1      10.962   8.845  20.091  0.00  0.00    +0.255 C 
BRANCH  21   5
ATOM      5  O   UNL     1      10.475   8.404  18.847  0.00  0.00    -0.374 OA
ATOM     23  C   UNL     1      11.440   8.555  17.809  0.00  0.00    +0.194 C 
ENDBRANCH  21   5
ENDBRANCH  20  21
TORSDOF 5
ENDMDL
MODEL 2
REMARK VINA RESULT:      -5.5     25.760     28.601
REMARK  Name = 7161627
REMARK  7 active torsions:
REMARK  status: ('A' for Active; 'I' for Inactive)
REMARK    1  A    between atoms: O_2  and  C_19
REMARK    2  A    between atoms: O_2  and  C_22
REMARK    3  A    between atoms: O_5  and  C_21
REMARK    4  A    between atoms: O_5  and  C_23
REMARK    5  A    between atoms: C_8  and  C_15
REMARK    6  A    between atoms: C_13  and  C_19
REMARK    7  A    between atoms: C_20  and  C_21
REMARK                            x       y       z     vdW  Elec       q    Type
REMARK                         _______ _______ _______ _____ _____    ______ ____
ROOT
ATOM      1  O   UNL     1      -3.295 -12.259  12.835  0.00  0.00    -0.275 OA
ATOM      4  O   UNL     1      -7.594  -9.553  17.905  0.00  0.00    -0.273 OA
ATOM      6  N   UNL     1      -4.749 -11.078  14.215  0.00  0.00    -0.285 N 
ATOM      7  N   UNL     1      -6.378 -10.996  16.552  0.00  0.00    -0.296 N 
ATOM     13  C   UNL     1      -4.326 -11.807  15.419  0.00  0.00    +0.202 C 
ATOM     15  C   UNL     1      -4.103 -11.342  13.003  0.00  0.00    +0.219 C 
ATOM     16  C   UNL     1      -5.715  -9.984  14.418  0.00  0.00    +0.127 C 
ATOM     17  C   UNL     1      -5.481 -12.140  16.363  0.00  0.00    +0.141 C 
ATOM     18  C   UNL     1      -6.873 -10.412  15.308  0.00  0.00    +0.127 C 
ATOM     20  C   UNL     1      -6.802 -10.490  17.779  0.00  0.00    +0.241 C 
ENDROOT
BRANCH  15   8
ATOM      8  C   UNL     1      -4.437 -10.440  11.852  0.00  0.00    +0.075 C 
ATOM      9  C   UNL     1      -5.380 -11.158  10.884  0.00  0.00    +0.013 C 
ATOM     10  C   UNL     1      -3.153  -9.990  11.152  0.00  0.00    +0.013 C 
ATOM     11  C   UNL     1      -5.673 -10.311   9.648  0.00  0.00    +0.001 C 
ATOM     12  C   UNL     1      -3.451  -9.145   9.916  0.00  0.00    +0.001 C 
ATOM     14  C   UNL     1      -4.389  -9.866   8.954  0.00  0.00    +0.000 C 
ENDBRANCH  15   8
BRANCH  13  19
ATOM      3  O   UNL     1      -3.548 -10.074  16.903  0.00  0.00    -0.249 OA
ATOM     19  C   UNL     1      -3.289 -10.954  16.092  0.00  0.00    +0.329 C 
BRANCH  19   2
ATOM      2  O   UNL     1      -2.049 -11.317  15.659  0.00  0.00    -0.467 OA
ATOM     22  C   UNL     1      -1.094 -10.255  15.568  0.00  0.00    +0.280 C 
ENDBRANCH  19   2
ENDBRANCH  13  19
BRANCH  20  21
ATOM     21  C   UNL     1      -6.237 -11.149  19.012  0.00  0.00    +0.255 C 
BRANCH  21   5
ATOM      5  O   UNL     1      -7.309 -11.315  19.907  0.00  0.00    -0.374 OA
ATOM     23  C   UNL     1      -7.930 -12.591  19.769  0.00  0.00    +0.194 C 
ENDBRANCH  21   5
ENDBRANCH  20  21
TORSDOF 5
ENDMDL
MODEL 3
REMARK VINA RESULT:      -5.4      1.574      2.311
REMARK  Name = 7161627
REMARK  7 active torsions:
REMARK  status: ('A' for Active; 'I' for Inactive)
REMARK    1  A    between atoms: O_2  and  C_19
REMARK    2  A    between atoms: O_2  and  C_22
REMARK    3  A    between atoms: O_5  and  C_21
REMARK    4  A    between atoms: O_5  and  C_23
REMARK    5  A    between atoms: C_8  and  C_15
REMARK    6  A    between atoms: C_13  and  C_19
REMARK    7  A    between atoms: C_20  and  C_21
REMARK                            x       y       z     vdW  Elec       q    Type
REMARK                         _______ _______ _______ _____ _____    ______ ____
ROOT
ATOM      1  O   UNL     1      18.289   9.250  22.353  0.00  0.00    -0.275 OA
ATOM      4  O   UNL     1      12.511   6.725  18.926  0.00  0.00    -0.273 OA
ATOM      6  N   UNL     1      16.685   8.255  20.993  0.00  0.00    -0.285 N 
ATOM      7  N   UNL     1      13.965   7.531  20.547  0.00  0.00    -0.296 N 
ATOM     13  C   UNL     1      15.612   9.134  21.480  0.00  0.00    +0.202 C 
ATOM     15  C   UNL     1      17.990   8.467  21.449  0.00  0.00    +0.219 C 
ATOM     16  C   UNL     1      16.325   7.321  19.913  0.00  0.00    +0.127 C 
ATOM     17  C   UNL     1      14.279   8.411  21.677  0.00  0.00    +0.141 C 
ATOM     18  C   UNL     1      15.026   6.585  20.212  0.00  0.00    +0.127 C 
ATOM     20  C   UNL     1      12.762   7.509  19.844  0.00  0.00    +0.241 C 
ENDROOT
BRANCH  15   8
ATOM      8  C   UNL     1      19.073   7.673  20.778  0.00  0.00    +0.075 C 
ATOM      9  C   UNL     1      19.072   6.238  21.309  0.00  0.00    +0.013 C 
ATOM     10  C   UNL     1      20.428   8.351  20.998  0.00  0.00    +0.013 C 
ATOM     11  C   UNL     1      20.220   5.419  20.723  0.00  0.00    +0.001 C 
ATOM     12  C   UNL     1      21.572   7.527  20.412  0.00  0.00    +0.001 C 
ATOM     14  C   UNL     1      21.567   6.098  20.946  0.00  0.00    +0.000 C 
ENDBRANCH  15   8
BRANCH  13  19
ATOM      3  O   UNL     1      14.963  10.142  19.390  0.00  0.00    -0.249 OA
ATOM     19  C   UNL     1      15.492  10.254  20.487  0.00  0.00    +0.329 C 
BRANCH  19   2
ATOM      2  O   UNL     1      16.057  11.382  21.003  0.00  0.00    -0.467 OA
ATOM     22  C   UNL     1      15.715  11.675  22.361  0.00  0.00    +0.280 C 
ENDBRANCH  19   2
ENDBRANCH  13  19
BRANCH  20  21
ATOM     21  C   UNL     1      11.723   8.524  20.253  0.00  0.00    +0.255 C 
BRANCH  21   5
ATOM      5  O   UNL     1      10.561   7.802  20.577  0.00  0.00    -0.374 OA
ATOM     23  C   UNL     1      10.559   7.369  21.936  0.00  0.00    +0.194 C 
ENDBRANCH  21   5
ENDBRANCH  20  21
TORSDOF 5
ENDMDL
MODEL 4
REMARK VINA RESULT:      -5.3     26.500     29.372
REMARK  Name = 7161627
REMARK  7 active torsions:
REMARK  status: ('A' for Active; 'I' for Inactive)
REMARK    1  A    between atoms: O_2  and  C_19
REMARK    2  A    between atoms: O_2  and  C_22
REMARK    3  A    between atoms: O_5  and  C_21
REMARK    4  A    between atoms: O_5  and  C_23
REMARK    5  A    between atoms: C_8  and  C_15
REMARK    6  A    between atoms: C_13  and  C_19
REMARK    7  A    between atoms: C_20  and  C_21
REMARK                            x       y       z     vdW  Elec       q    Type
REMARK                         _______ _______ _______ _____ _____    ______ ____
ROOT
ATOM      1  O   UNL     1      -4.990 -12.760  16.875  0.00  0.00    -0.275 OA
ATOM      4  O   UNL     1     -10.219  -7.872  17.390  0.00  0.00    -0.273 OA
ATOM      6  N   UNL     1      -6.404 -10.913  16.911  0.00  0.00    -0.285 N 
ATOM      7  N   UNL     1      -9.041  -9.856  17.126  0.00  0.00    -0.296 N 
ATOM     13  C   UNL     1      -7.382 -11.579  17.781  0.00  0.00    +0.202 C 
ATOM     15  C   UNL     1      -5.216 -11.581  16.595  0.00  0.00    +0.219 C 
ATOM     16  C   UNL     1      -6.676  -9.505  16.579  0.00  0.00    +0.127 C 
ATOM     17  C   UNL     1      -8.833 -11.281  17.402  0.00  0.00    +0.141 C 
ATOM     18  C   UNL     1      -8.119  -9.297  16.141  0.00  0.00    +0.127 C 
ATOM     20  C   UNL     1     -10.042  -9.058  17.678  0.00  0.00    +0.241 C 
ENDROOT
BRANCH  15   8
ATOM      8  C   UNL     1      -4.171 -10.787  15.868  0.00  0.00    +0.075 C 
ATOM      9  C   UNL     1      -4.123 -11.212  14.398  0.00  0.00    +0.013 C 
ATOM     10  C   UNL     1      -2.812 -10.967  16.547  0.00  0.00    +0.013 C 
ATOM     11  C   UNL     1      -3.008 -10.497  13.640  0.00  0.00    +0.001 C 
ATOM     12  C   UNL     1      -1.700 -10.252  15.784  0.00  0.00    +0.001 C 
ATOM     14  C   UNL     1      -1.656 -10.681  14.321  0.00  0.00    +0.000 C 
ENDBRANCH  15   8
BRANCH  13  19
ATOM      3  O   UNL     1      -6.082 -10.500  19.500  0.00  0.00    -0.249 OA
ATOM     19  C   UNL     1      -7.076 -11.141  19.184  0.00  0.00    +0.329 C 
BRANCH  19   2
ATOM      2  O   UNL     1      -8.065 -11.565  20.021  0.00  0.00    -0.467 OA
ATOM     22  C   UNL     1      -8.176 -12.983  20.173  0.00  0.00    +0.280 C 
ENDBRANCH  19   2
ENDBRANCH  13  19
BRANCH  20  21
ATOM     21  C   UNL     1     -10.946  -9.716  18.690  0.00  0.00    +0.255 C 
BRANCH  21   5
ATOM      5  O   UNL     1     -12.266  -9.442  18.289  0.00  0.00    -0.374 OA
ATOM     23  C   UNL     1     -13.216  -9.803  19.288  0.00  0.00    +0.194 C 
ENDBRANCH  21   5
ENDBRANCH  20  21
TORSDOF 5
ENDMDL
MODEL 5
REMARK VINA RESULT:      -5.3     18.014     20.667
REMARK  Name = 7161627
REMARK  7 active torsions:
REMARK  status: ('A' for Active; 'I' for Inactive)
REMARK    1  A    between atoms: O_2  and  C_19
REMARK    2  A    between atoms: O_2  and  C_22
REMARK    3  A    between atoms: O_5  and  C_21
REMARK    4  A    between atoms: O_5  and  C_23
REMARK    5  A    between atoms: C_8  and  C_15
REMARK    6  A    between atoms: C_13  and  C_19
REMARK    7  A    between atoms: C_20  and  C_21
REMARK                            x       y       z     vdW  Elec       q    Type
REMARK                         _______ _______ _______ _____ _____    ______ ____
ROOT
ATOM      1  O   UNL     1      12.412   6.441   3.290  0.00  0.00    -0.275 OA
ATOM      4  O   UNL     1      10.202   3.358  -2.803  0.00  0.00    -0.273 OA
ATOM      6  N   UNL     1      11.363   5.344   1.527  0.00  0.00    -0.285 N 
ATOM      7  N   UNL     1      11.247   4.738  -1.255  0.00  0.00    -0.296 N 
ATOM     13  C   UNL     1      12.610   5.210   0.763  0.00  0.00    +0.202 C 
ATOM     15  C   UNL     1      11.411   5.906   2.807  0.00  0.00    +0.219 C 
ATOM     16  C   UNL     1      10.169   4.704   0.948  0.00  0.00    +0.127 C 
ATOM     17  C   UNL     1      12.429   5.436  -0.738  0.00  0.00    +0.141 C 
ATOM     18  C   UNL     1      10.014   5.033  -0.530  0.00  0.00    +0.127 C 
ATOM     20  C   UNL     1      11.222   3.896  -2.365  0.00  0.00    +0.241 C 
ENDROOT
BRANCH  15   8
ATOM      8  C   UNL     1      10.150   5.843   3.617  0.00  0.00    +0.075 C 
ATOM      9  C   UNL     1       9.508   7.230   3.692  0.00  0.00    +0.013 C 
ATOM     10  C   UNL     1      10.454   5.291   5.013  0.00  0.00    +0.013 C 
ATOM     11  C   UNL     1       8.271   7.232   4.587  0.00  0.00    +0.001 C 
ATOM     12  C   UNL     1       9.215   5.298   5.904  0.00  0.00    +0.001 C 
ATOM     14  C   UNL     1       8.580   6.683   5.976  0.00  0.00    +0.000 C 
ENDBRANCH  15   8
BRANCH  13  19
ATOM      3  O   UNL     1      12.720   3.110   1.941  0.00  0.00    -0.249 OA
ATOM     19  C   UNL     1      13.146   3.839   1.055  0.00  0.00    +0.329 C 
BRANCH  19   2
ATOM      2  O   UNL     1      14.160   3.552   0.189  0.00  0.00    -0.467 OA
ATOM     22  C   UNL     1      15.475   3.866   0.656  0.00  0.00    +0.280 C 
ENDBRANCH  19   2
ENDBRANCH  13  19
BRANCH  20  21
ATOM     21  C   UNL     1      12.541   3.643  -3.050  0.00  0.00    +0.255 C 
BRANCH  21   5
ATOM      5  O   UNL     1      12.329   2.590  -3.957  0.00  0.00    -0.374 OA
ATOM     23  C   UNL     1      12.763   2.920  -5.274  0.00  0.00    +0.194 C 
ENDBRANCH  21   5
ENDBRANCH  20  21
TORSDOF 5
ENDMDL
MODEL 6
REMARK VINA RESULT:      -5.1     26.274     29.621
REMARK  Name = 7161627
REMARK  7 active torsions:
REMARK  status: ('A' for Active; 'I' for Inactive)
REMARK    1  A    between atoms: O_2  and  C_19
REMARK    2  A    between atoms: O_2  and  C_22
REMARK    3  A    between atoms: O_5  and  C_21
REMARK    4  A    between atoms: O_5  and  C_23
REMARK    5  A    between atoms: C_8  and  C_15
REMARK    6  A    between atoms: C_13  and  C_19
REMARK    7  A    between atoms: C_20  and  C_21
REMARK                            x       y       z     vdW  Elec       q    Type
REMARK                         _______ _______ _______ _____ _____    ______ ____
ROOT
ATOM      1  O   UNL     1      -7.304 -10.767  19.707  0.00  0.00    -0.275 OA
ATOM      4  O   UNL     1      -4.466 -10.805  13.115  0.00  0.00    -0.273 OA
ATOM      6  N   UNL     1      -6.768 -10.820  17.443  0.00  0.00    -0.285 N 
ATOM      7  N   UNL     1      -4.846 -10.434  15.376  0.00  0.00    -0.296 N 
ATOM     13  C   UNL     1      -5.354 -11.122  17.703  0.00  0.00    +0.202 C 
ATOM     15  C   UNL     1      -7.653 -10.745  18.524  0.00  0.00    +0.219 C 
ATOM     16  C   UNL     1      -7.182 -10.793  16.030  0.00  0.00    +0.127 C 
ATOM     17  C   UNL     1      -4.394 -10.384  16.770  0.00  0.00    +0.141 C 
ATOM     18  C   UNL     1      -6.220  -9.980  15.176  0.00  0.00    +0.127 C 
ATOM     20  C   UNL     1      -4.070 -10.818  14.283  0.00  0.00    +0.241 C 
ENDROOT
BRANCH  15   8
ATOM      8  C   UNL     1      -9.111 -10.626  18.193  0.00  0.00    +0.075 C 
ATOM      9  C   UNL     1      -9.483  -9.154  17.996  0.00  0.00    +0.013 C 
ATOM     10  C   UNL     1      -9.951 -11.273  19.296  0.00  0.00    +0.013 C 
ATOM     11  C   UNL     1     -10.979  -8.978  17.750  0.00  0.00    +0.001 C 
ATOM     12  C   UNL     1     -11.446 -11.092  19.046  0.00  0.00    +0.001 C 
ATOM     14  C   UNL     1     -11.811  -9.623  18.853  0.00  0.00    +0.000 C 
ENDBRANCH  15   8
BRANCH  13  19
ATOM      3  O   UNL     1      -5.687 -13.277  16.675  0.00  0.00    -0.249 OA
ATOM     19  C   UNL     1      -5.206 -12.612  17.583  0.00  0.00    +0.329 C 
BRANCH  19   2
ATOM      2  O   UNL     1      -4.468 -13.082  18.628  0.00  0.00    -0.467 OA
ATOM     22  C   UNL     1      -3.936 -12.084  19.505  0.00  0.00    +0.280 C 
ENDBRANCH  19   2
ENDBRANCH  13  19
BRANCH  20  21
ATOM     21  C   UNL     1      -2.665 -11.276  14.582  0.00  0.00    +0.255 C 
BRANCH  21   5
ATOM      5  O   UNL     1      -1.833 -10.153  14.425  0.00  0.00    -0.374 OA
ATOM     23  C   UNL     1      -0.947  -9.984  15.529  0.00  0.00    +0.194 C 
ENDBRANCH  21   5
ENDBRANCH  20  21
TORSDOF 5
ENDMDL
MODEL 7
REMARK VINA RESULT:      -5.0     27.570     29.360
REMARK  Name = 7161627
REMARK  7 active torsions:
REMARK  status: ('A' for Active; 'I' for Inactive)
REMARK    1  A    between atoms: O_2  and  C_19
REMARK    2  A    between atoms: O_2  and  C_22
REMARK    3  A    between atoms: O_5  and  C_21
REMARK    4  A    between atoms: O_5  and  C_23
REMARK    5  A    between atoms: C_8  and  C_15
REMARK    6  A    between atoms: C_13  and  C_19
REMARK    7  A    between atoms: C_20  and  C_21
REMARK                            x       y       z     vdW  Elec       q    Type
REMARK                         _______ _______ _______ _____ _____    ______ ____
ROOT
ATOM      1  O   UNL     1      -7.124  -9.284  12.618  0.00  0.00    -0.275 OA
ATOM      4  O   UNL     1      -4.573 -11.371  18.993  0.00  0.00    -0.273 OA
ATOM      6  N   UNL     1      -6.010 -10.149  14.467  0.00  0.00    -0.285 N 
ATOM      7  N   UNL     1      -5.620 -10.189  17.290  0.00  0.00    -0.296 N 
ATOM     13  C   UNL     1      -7.156  -9.932  15.360  0.00  0.00    +0.202 C 
ATOM     15  C   UNL     1      -6.148  -9.857  13.107  0.00  0.00    +0.219 C 
ATOM     16  C   UNL     1      -4.845 -10.834  15.054  0.00  0.00    +0.127 C 
ATOM     17  C   UNL     1      -6.757  -9.437  16.750  0.00  0.00    +0.141 C 
ATOM     18  C   UNL     1      -4.462 -10.240  16.402  0.00  0.00    +0.127 C 
ATOM     20  C   UNL     1      -5.562 -10.783  18.549  0.00  0.00    +0.241 C 
ENDROOT
BRANCH  15   8
ATOM      8  C   UNL     1      -5.019 -10.275  12.211  0.00  0.00    +0.075 C 
ATOM      9  C   UNL     1      -4.733  -9.177  11.185  0.00  0.00    +0.013 C 
ATOM     10  C   UNL     1      -5.360 -11.603  11.529  0.00  0.00    +0.013 C 
ATOM     11  C   UNL     1      -3.654  -9.599  10.192  0.00  0.00    +0.001 C 
ATOM     12  C   UNL     1      -4.279 -12.020  10.535  0.00  0.00    +0.001 C 
ATOM     14  C   UNL     1      -3.999 -10.922   9.514  0.00  0.00    +0.000 C 
ENDBRANCH  15   8
BRANCH  13  19
ATOM      3  O   UNL     1      -7.800 -12.124  14.593  0.00  0.00    -0.249 OA
ATOM     19  C   UNL     1      -7.898 -11.235  15.429  0.00  0.00    +0.329 C 
BRANCH  19   2
ATOM      2  O   UNL     1      -8.677 -11.258  16.547  0.00  0.00    -0.467 OA
ATOM     22  C   UNL     1     -10.031 -11.674  16.346  0.00  0.00    +0.280 C 
ENDBRANCH  19   2
ENDBRANCH  13  19
BRANCH  20  21
ATOM     21  C   UNL     1      -6.805 -10.687  19.398  0.00  0.00    +0.255 C 
BRANCH  21   5
ATOM      5  O   UNL     1      -6.847 -11.851  20.186  0.00  0.00    -0.374 OA
ATOM     23  C   UNL     1      -7.922 -12.711  19.816  0.00  0.00    +0.194 C 
ENDBRANCH  21   5
ENDBRANCH  20  21
TORSDOF 5
ENDMDL
MODEL 8
REMARK VINA RESULT:      -5.0     27.097     28.723
REMARK  Name = 7161627
REMARK  7 active torsions:
REMARK  status: ('A' for Active; 'I' for Inactive)
REMARK    1  A    between atoms: O_2  and  C_19
REMARK    2  A    between atoms: O_2  and  C_22
REMARK    3  A    between atoms: O_5  and  C_21
REMARK    4  A    between atoms: O_5  and  C_23
REMARK    5  A    between atoms: C_8  and  C_15
REMARK    6  A    between atoms: C_13  and  C_19
REMARK    7  A    between atoms: C_20  and  C_21
REMARK                            x       y       z     vdW  Elec       q    Type
REMARK                         _______ _______ _______ _____ _____    ______ ____
ROOT
ATOM      1  O   UNL     1      -2.333 -10.821  14.699  0.00  0.00    -0.275 OA
ATOM      4  O   UNL     1      -6.920  -9.625   9.311  0.00  0.00    -0.273 OA
ATOM      6  N   UNL     1      -4.101 -10.581  13.207  0.00  0.00    -0.285 N 
ATOM      7  N   UNL     1      -5.113  -9.515  10.765  0.00  0.00    -0.296 N 
ATOM     13  C   UNL     1      -3.209 -10.456  12.046  0.00  0.00    +0.202 C 
ATOM     15  C   UNL     1      -3.544 -10.838  14.463  0.00  0.00    +0.219 C 
ATOM     16  C   UNL     1      -5.546 -10.600  12.922  0.00  0.00    +0.127 C 
ATOM     17  C   UNL     1      -3.675  -9.411  11.032  0.00  0.00    +0.141 C 
ATOM     18  C   UNL     1      -5.948  -9.488  11.963  0.00  0.00    +0.127 C 
ATOM     20  C   UNL     1      -5.702  -9.584   9.504  0.00  0.00    +0.241 C 
ENDROOT
BRANCH  15   8
ATOM      8  C   UNL     1      -4.503 -11.147  15.574  0.00  0.00    +0.075 C 
ATOM      9  C   UNL     1      -4.185 -10.279  16.794  0.00  0.00    +0.013 C 
ATOM     10  C   UNL     1      -4.442 -12.638  15.917  0.00  0.00    +0.013 C 
ATOM     11  C   UNL     1      -5.078 -10.627  17.983  0.00  0.00    +0.001 C 
ATOM     12  C   UNL     1      -5.335 -12.980  17.107  0.00  0.00    +0.001 C 
ATOM     14  C   UNL     1      -5.012 -12.113  18.320  0.00  0.00    +0.000 C 
ENDBRANCH  15   8
BRANCH  13  19
ATOM      3  O   UNL     1      -3.678 -12.144  10.391  0.00  0.00    -0.249 OA
ATOM     19  C   UNL     1      -3.116 -11.822  11.429  0.00  0.00    +0.329 C 
BRANCH  19   2
ATOM      2  O   UNL     1      -2.322 -12.618  12.200  0.00  0.00    -0.467 OA
ATOM     22  C   UNL     1      -2.769 -13.968  12.354  0.00  0.00    +0.280 C 
ENDBRANCH  19   2
ENDBRANCH  13  19
BRANCH  20  21
ATOM     21  C   UNL     1      -4.766  -9.613   8.323  0.00  0.00    +0.255 C 
BRANCH  21   5
ATOM      5  O   UNL     1      -5.556  -9.873   7.189  0.00  0.00    -0.374 OA
ATOM     23  C   UNL     1      -5.128 -11.042   6.494  0.00  0.00    +0.194 C 
ENDBRANCH  21   5
ENDBRANCH  20  21
TORSDOF 5
ENDMDL
MODEL 9
REMARK VINA RESULT:      -5.0     24.819     27.577
REMARK  Name = 7161627
REMARK  7 active torsions:
REMARK  status: ('A' for Active; 'I' for Inactive)
REMARK    1  A    between atoms: O_2  and  C_19
REMARK    2  A    between atoms: O_2  and  C_22
REMARK    3  A    between atoms: O_5  and  C_21
REMARK    4  A    between atoms: O_5  and  C_23
REMARK    5  A    between atoms: C_8  and  C_15
REMARK    6  A    between atoms: C_13  and  C_19
REMARK    7  A    between atoms: C_20  and  C_21
REMARK                            x       y       z     vdW  Elec       q    Type
REMARK                         _______ _______ _______ _____ _____    ______ ____
ROOT
ATOM      1  O   UNL     1     -11.305   6.444  18.978  0.00  0.00    -0.275 OA
ATOM      4  O   UNL     1     -10.926  13.467  17.552  0.00  0.00    -0.273 OA
ATOM      6  N   UNL     1     -11.530   8.745  18.723  0.00  0.00    -0.285 N 
ATOM      7  N   UNL     1     -10.393  11.245  17.965  0.00  0.00    -0.296 N 
ATOM     13  C   UNL     1     -10.571   8.796  17.612  0.00  0.00    +0.202 C 
ATOM     15  C   UNL     1     -11.869   7.501  19.266  0.00  0.00    +0.219 C 
ATOM     16  C   UNL     1     -12.203  10.009  19.066  0.00  0.00    +0.127 C 
ATOM     17  C   UNL     1      -9.651  10.017  17.660  0.00  0.00    +0.141 C 
ATOM     18  C   UNL     1     -11.215  11.164  19.168  0.00  0.00    +0.127 C 
ATOM     20  C   UNL     1     -10.324  12.435  17.244  0.00  0.00    +0.241 C 
ENDROOT
BRANCH  15   8
ATOM      8  C   UNL     1     -12.990   7.485  20.263  0.00  0.00    +0.075 C 
ATOM      9  C   UNL     1     -12.811   6.314  21.231  0.00  0.00    +0.013 C 
ATOM     10  C   UNL     1     -14.335   7.409  19.534  0.00  0.00    +0.013 C 
ATOM     11  C   UNL     1     -13.981   6.202  22.205  0.00  0.00    +0.001 C 
ATOM     12  C   UNL     1     -15.501   7.296  20.513  0.00  0.00    +0.001 C 
ATOM     14  C   UNL     1     -15.318   6.125  21.473  0.00  0.00    +0.000 C 
ENDBRANCH  15   8
BRANCH  13  19
ATOM      3  O   UNL     1     -12.576   8.508  16.305  0.00  0.00    -0.249 OA
ATOM     19  C   UNL     1     -11.380   8.764  16.347  0.00  0.00    +0.329 C 
BRANCH  19   2
ATOM      2  O   UNL     1     -10.578   9.059  15.285  0.00  0.00    -0.467 OA
ATOM     22  C   UNL     1     -10.658   8.151  14.182  0.00  0.00    +0.280 C 
ENDBRANCH  19   2
ENDBRANCH  13  19
BRANCH  20  21
ATOM     21  C   UNL     1      -9.454  12.429  16.012  0.00  0.00    +0.255 C 
BRANCH  21   5
ATOM      5  O   UNL     1      -8.197  12.923  16.403  0.00  0.00    -0.374 OA
ATOM     23  C   UNL     1      -7.860  14.130  15.724  0.00  0.00    +0.194 C 
ENDBRANCH  21   5
ENDBRANCH  20  21
TORSDOF 5
ENDMDL
MODEL 10
REMARK VINA RESULT:      -4.9     27.385     28.738
REMARK  Name = 7161627
REMARK  7 active torsions:
REMARK  status: ('A' for Active; 'I' for Inactive)
REMARK    1  A    between atoms: O_2  and  C_19
REMARK    2  A    between atoms: O_2  and  C_22
REMARK    3  A    between atoms: O_5  and  C_21
REMARK    4  A    between atoms: O_5  and  C_23
REMARK    5  A    between atoms: C_8  and  C_15
REMARK    6  A    between atoms: C_13  and  C_19
REMARK    7  A    between atoms: C_20  and  C_21
REMARK                            x       y       z     vdW  Elec       q    Type
REMARK                         _______ _______ _______ _____ _____    ______ ____
ROOT
ATOM      1  O   UNL     1      -2.844 -10.671  16.421  0.00  0.00    -0.275 OA
ATOM      4  O   UNL     1      -6.712 -11.415  10.422  0.00  0.00    -0.273 OA
ATOM      6  N   UNL     1      -4.390 -11.050  14.724  0.00  0.00    -0.285 N 
ATOM      7  N   UNL     1      -5.174 -10.699  12.007  0.00  0.00    -0.296 N 
ATOM     13  C   UNL     1      -3.364 -11.016  13.673  0.00  0.00    +0.202 C 
ATOM     15  C   UNL     1      -3.992 -10.944  16.061  0.00  0.00    +0.219 C 
ATOM     16  C   UNL     1      -5.759 -11.375  14.291  0.00  0.00    +0.127 C 
ATOM     17  C   UNL     1      -3.820 -10.297  12.403  0.00  0.00    +0.141 C 
ATOM     18  C   UNL     1      -6.170 -10.569  13.067  0.00  0.00    +0.127 C 
ATOM     20  C   UNL     1      -5.555 -11.126  10.737  0.00  0.00    +0.241 C 
ENDROOT
BRANCH  15   8
ATOM      8  C   UNL     1      -5.050 -11.177  17.098  0.00  0.00    +0.075 C 
ATOM      9  C   UNL     1      -5.909  -9.921  17.259  0.00  0.00    +0.013 C 
ATOM     10  C   UNL     1      -4.401 -11.584  18.423  0.00  0.00    +0.013 C 
ATOM     11  C   UNL     1      -6.941 -10.081  18.373  0.00  0.00    +0.001 C 
ATOM     12  C   UNL     1      -5.436 -11.741  19.534  0.00  0.00    +0.001 C 
ATOM     14  C   UNL     1      -6.288 -10.485  19.691  0.00  0.00    +0.000 C 
ENDBRANCH  15   8
BRANCH  13  19
ATOM      3  O   UNL     1      -2.955 -13.320  14.248  0.00  0.00    -0.249 OA
ATOM     19  C   UNL     1      -2.987 -12.442  13.396  0.00  0.00    +0.329 C 
BRANCH  19   2
ATOM      2  O   UNL     1      -2.696 -12.588  12.073  0.00  0.00    -0.467 OA
ATOM     22  C   UNL     1      -2.958 -13.884  11.524  0.00  0.00    +0.280 C 
ENDBRANCH  19   2
ENDBRANCH  13  19
BRANCH  20  21
ATOM     21  C   UNL     1      -4.461 -11.236   9.705  0.00  0.00    +0.255 C 
BRANCH  21   5
ATOM      5  O   UNL     1      -4.735 -10.269   8.722  0.00  0.00    -0.374 OA
ATOM     23  C   UNL     1      -4.084  -9.030   8.991  0.00  0.00    +0.194 C 
ENDBRANCH  21   5
ENDBRANCH  20  21
TORSDOF 5
ENDMDL
