MODEL 1
REMARK VINA RESULT:      -7.0      0.000      0.000
REMARK  Name = 7673840
REMARK  6 active torsions:
REMARK  status: ('A' for Active; 'I' for Inactive)
REMARK    1  A    between atoms: O_2  and  C_26
REMARK    2  A    between atoms: O_2  and  C_31
REMARK    3  A    between atoms: N_3  and  C_13
REMARK    4  A    between atoms: C_13  and  C_18
REMARK    5  A    between atoms: C_16  and  C_19
REMARK    6  A    between atoms: C_27  and  C_30
REMARK                            x       y       z     vdW  Elec       q    Type
REMARK                         _______ _______ _______ _____ _____    ______ ____
ROOT
ATOM      1  O   UNL     1      -6.050 -11.721  11.029  0.00  0.00    -0.267 OA
ATOM      3  N   UNL     1      -3.152 -10.992  15.056  0.00  0.00    -0.297 NA
ATOM      4  N   UNL     1      -3.946 -11.614  12.030  0.00  0.00    -0.311 N 
ATOM      6  C   UNL     1      -3.218 -13.214  13.895  0.00  0.00    +0.024 C 
ATOM      7  C   UNL     1      -1.674 -11.487  13.104  0.00  0.00    +0.050 C 
ATOM      8  C   UNL     1      -1.818 -12.988  13.340  0.00  0.00    +0.017 C 
ATOM      9  C   UNL     1      -3.397 -12.431  15.214  0.00  0.00    +0.090 C 
ATOM     10  C   UNL     1      -1.840 -10.736  14.444  0.00  0.00    +0.094 C 
ATOM     11  C   UNL     1      -4.244 -12.812  12.827  0.00  0.00    +0.130 C 
ATOM     12  C   UNL     1      -2.694 -11.000  12.092  0.00  0.00    +0.026 A 
ATOM     14  C   UNL     1      -2.405  -9.976  11.273  0.00  0.00    +0.022 A 
ATOM     15  C   UNL     1      -4.946 -11.184  11.135  0.00  0.00    +0.259 A 
ATOM     16  C   UNL     1      -4.604 -10.012  10.255  0.00  0.00    +0.047 A 
ATOM     17  C   UNL     1      -3.380  -9.473  10.348  0.00  0.00    +0.015 A 
ENDROOT
BRANCH  16  19
ATOM     19  C   UNL     1      -5.590  -9.452   9.313  0.00  0.00    -0.011 A 
ATOM     22  C   UNL     1      -5.661  -9.933   8.005  0.00  0.00    +0.027 A 
ATOM     23  C   UNL     1      -6.454  -8.438   9.730  0.00  0.00    +0.009 A 
ATOM     27  C   UNL     1      -6.594  -9.401   7.115  0.00  0.00    +0.052 A 
ATOM     28  C   UNL     1      -7.388  -7.907   8.839  0.00  0.00    +0.002 A 
ATOM     29  C   UNL     1      -7.457  -8.388   7.531  0.00  0.00    +0.019 A 
BRANCH  27  30
ATOM      5  N   UNL     1      -6.722 -10.294   4.686  0.00  0.00    -0.191 NA
ATOM     30  C   UNL     1      -6.664  -9.894   5.776  0.00  0.00    +0.099 C 
ENDBRANCH  27  30
ENDBRANCH  16  19
BRANCH   3  13
ATOM     13  C   UNL     1      -3.278 -10.297  16.334  0.00  0.00    +0.119 C 
BRANCH  13  18
ATOM     18  C   UNL     1      -4.707 -10.207  16.786  0.00  0.00    -0.033 A 
ATOM     20  C   UNL     1      -5.065 -10.703  18.034  0.00  0.00    +0.008 A 
ATOM     21  C   UNL     1      -5.658  -9.630  15.953  0.00  0.00    +0.008 A 
ATOM     24  C   UNL     1      -6.392 -10.620  18.455  0.00  0.00    +0.046 A 
ATOM     25  C   UNL     1      -6.985  -9.547  16.374  0.00  0.00    +0.046 A 
ATOM     26  C   UNL     1      -7.352 -10.043  17.625  0.00  0.00    +0.120 A 
BRANCH  26   2
ATOM      2  O   UNL     1      -8.648  -9.962  18.035  0.00  0.00    -0.495 OA
ATOM     31  C   UNL     1      -9.447  -8.927  17.463  0.00  0.00    +0.277 C 
ENDBRANCH  26   2
ENDBRANCH  13  18
ENDBRANCH   3  13
TORSDOF 5
ENDMDL
MODEL 2
REMARK VINA RESULT:      -6.8      1.208      1.862
REMARK  Name = 7673840
REMARK  6 active torsions:
REMARK  status: ('A' for Active; 'I' for Inactive)
REMARK    1  A    between atoms: O_2  and  C_26
REMARK    2  A    between atoms: O_2  and  C_31
REMARK    3  A    between atoms: N_3  and  C_13
REMARK    4  A    between atoms: C_13  and  C_18
REMARK    5  A    between atoms: C_16  and  C_19
REMARK    6  A    between atoms: C_27  and  C_30
REMARK                            x       y       z     vdW  Elec       q    Type
REMARK                         _______ _______ _______ _____ _____    ______ ____
ROOT
ATOM      1  O   UNL     1      -5.940 -11.917  10.696  0.00  0.00    -0.267 OA
ATOM      3  N   UNL     1      -3.323 -10.909  14.854  0.00  0.00    -0.297 NA
ATOM      4  N   UNL     1      -3.906 -11.656  11.808  0.00  0.00    -0.311 N 
ATOM      6  C   UNL     1      -3.191 -13.160  13.756  0.00  0.00    +0.024 C 
ATOM      7  C   UNL     1      -1.710 -11.363  13.001  0.00  0.00    +0.050 C 
ATOM      8  C   UNL     1      -1.778 -12.863  13.273  0.00  0.00    +0.017 C 
ATOM      9  C   UNL     1      -3.491 -12.356  15.039  0.00  0.00    +0.090 C 
ATOM     10  C   UNL     1      -1.996 -10.589  14.307  0.00  0.00    +0.094 C 
ATOM     11  C   UNL     1      -4.177 -12.849  12.622  0.00  0.00    +0.130 C 
ATOM     12  C   UNL     1      -2.698 -10.965  11.921  0.00  0.00    +0.026 A 
ATOM     14  C   UNL     1      -2.424  -9.947  11.090  0.00  0.00    +0.022 A 
ATOM     15  C   UNL     1      -4.877 -11.310  10.847  0.00  0.00    +0.259 A 
ATOM     16  C   UNL     1      -4.557 -10.143   9.953  0.00  0.00    +0.047 A 
ATOM     17  C   UNL     1      -3.373  -9.529  10.098  0.00  0.00    +0.015 A 
ENDROOT
BRANCH  16  19
ATOM     19  C   UNL     1      -5.519  -9.668   8.943  0.00  0.00    -0.011 A 
ATOM     22  C   UNL     1      -6.589  -8.857   9.322  0.00  0.00    +0.027 A 
ATOM     23  C   UNL     1      -5.360 -10.030   7.605  0.00  0.00    +0.009 A 
ATOM     27  C   UNL     1      -7.499  -8.408   8.365  0.00  0.00    +0.052 A 
ATOM     28  C   UNL     1      -6.270  -9.580   6.647  0.00  0.00    +0.002 A 
ATOM     29  C   UNL     1      -7.340  -8.770   7.027  0.00  0.00    +0.019 A 
BRANCH  27  30
ATOM      5  N   UNL     1      -9.488  -6.905   9.071  0.00  0.00    -0.191 NA
ATOM     30  C   UNL     1      -8.596  -7.579   8.754  0.00  0.00    +0.099 C 
ENDBRANCH  27  30
ENDBRANCH  16  19
BRANCH   3  13
ATOM     13  C   UNL     1      -3.563 -10.190  16.102  0.00  0.00    +0.119 C 
BRANCH  13  18
ATOM     18  C   UNL     1      -5.016 -10.192  16.482  0.00  0.00    -0.033 A 
ATOM     20  C   UNL     1      -5.970  -9.809  15.546  0.00  0.00    +0.008 A 
ATOM     21  C   UNL     1      -5.391 -10.575  17.763  0.00  0.00    +0.008 A 
ATOM     24  C   UNL     1      -7.320  -9.811  15.899  0.00  0.00    +0.046 A 
ATOM     25  C   UNL     1      -6.741 -10.577  18.115  0.00  0.00    +0.046 A 
ATOM     26  C   UNL     1      -7.705 -10.194  17.183  0.00  0.00    +0.120 A 
BRANCH  26   2
ATOM      2  O   UNL     1      -9.023 -10.196  17.527  0.00  0.00    -0.495 OA
ATOM     31  C   UNL     1      -9.708  -8.945  17.477  0.00  0.00    +0.277 C 
ENDBRANCH  26   2
ENDBRANCH  13  18
ENDBRANCH   3  13
TORSDOF 5
ENDMDL
MODEL 3
REMARK VINA RESULT:      -6.7     23.757     26.074
REMARK  Name = 7673840
REMARK  6 active torsions:
REMARK  status: ('A' for Active; 'I' for Inactive)
REMARK    1  A    between atoms: O_2  and  C_26
REMARK    2  A    between atoms: O_2  and  C_31
REMARK    3  A    between atoms: N_3  and  C_13
REMARK    4  A    between atoms: C_13  and  C_18
REMARK    5  A    between atoms: C_16  and  C_19
REMARK    6  A    between atoms: C_27  and  C_30
REMARK                            x       y       z     vdW  Elec       q    Type
REMARK                         _______ _______ _______ _____ _____    ______ ____
ROOT
ATOM      1  O   UNL     1      10.647   7.076   1.515  0.00  0.00    -0.267 OA
ATOM      3  N   UNL     1      10.539   8.213   6.398  0.00  0.00    -0.297 NA
ATOM      4  N   UNL     1       9.804   6.745   3.664  0.00  0.00    -0.311 N 
ATOM      6  C   UNL     1       8.526   8.560   4.944  0.00  0.00    +0.024 C 
ATOM      7  C   UNL     1       8.899   6.375   5.982  0.00  0.00    +0.050 C 
ATOM      8  C   UNL     1       7.819   7.386   5.608  0.00  0.00    +0.017 C 
ATOM      9  C   UNL     1       9.547   9.183   5.919  0.00  0.00    +0.090 C 
ATOM     10  C   UNL     1       9.892   7.024   6.972  0.00  0.00    +0.094 C 
ATOM     11  C   UNL     1       9.176   8.073   3.642  0.00  0.00    +0.130 C 
ATOM     12  C   UNL     1       9.627   5.881   4.746  0.00  0.00    +0.026 A 
ATOM     14  C   UNL     1      10.115   4.631   4.698  0.00  0.00    +0.022 A 
ATOM     15  C   UNL     1      10.501   6.354   2.502  0.00  0.00    +0.259 A 
ATOM     16  C   UNL     1      11.065   4.959   2.492  0.00  0.00    +0.047 A 
ATOM     17  C   UNL     1      10.850   4.170   3.554  0.00  0.00    +0.015 A 
ENDROOT
BRANCH  16  19
ATOM     19  C   UNL     1      11.849   4.462   1.347  0.00  0.00    -0.011 A 
ATOM     22  C   UNL     1      11.200   4.025   0.191  0.00  0.00    +0.027 A 
ATOM     23  C   UNL     1      13.242   4.426   1.419  0.00  0.00    +0.009 A 
ATOM     27  C   UNL     1      11.944   3.555  -0.892  0.00  0.00    +0.052 A 
ATOM     28  C   UNL     1      13.985   3.956   0.335  0.00  0.00    +0.002 A 
ATOM     29  C   UNL     1      13.336   3.520  -0.819  0.00  0.00    +0.019 A 
BRANCH  27  30
ATOM      5  N   UNL     1      10.738   2.742  -3.036  0.00  0.00    -0.191 NA
ATOM     30  C   UNL     1      11.278   3.107  -2.074  0.00  0.00    +0.099 C 
ENDBRANCH  27  30
ENDBRANCH  16  19
BRANCH   3  13
ATOM     13  C   UNL     1      11.452   8.828   7.358  0.00  0.00    +0.119 C 
BRANCH  13  18
ATOM     18  C   UNL     1      12.884   8.720   6.920  0.00  0.00    -0.033 A 
ATOM     20  C   UNL     1      13.594   9.873   6.606  0.00  0.00    +0.008 A 
ATOM     21  C   UNL     1      13.484   7.470   6.832  0.00  0.00    +0.008 A 
ATOM     24  C   UNL     1      14.925   9.773   6.199  0.00  0.00    +0.046 A 
ATOM     25  C   UNL     1      14.815   7.370   6.425  0.00  0.00    +0.046 A 
ATOM     26  C   UNL     1      15.535   8.522   6.108  0.00  0.00    +0.120 A 
BRANCH  26   2
ATOM      2  O   UNL     1      16.834   8.425   5.711  0.00  0.00    -0.495 OA
ATOM     31  C   UNL     1      17.073   8.224   4.318  0.00  0.00    +0.277 C 
ENDBRANCH  26   2
ENDBRANCH  13  18
ENDBRANCH   3  13
TORSDOF 5
ENDMDL
MODEL 4
REMARK VINA RESULT:      -6.7     23.925     26.553
REMARK  Name = 7673840
REMARK  6 active torsions:
REMARK  status: ('A' for Active; 'I' for Inactive)
REMARK    1  A    between atoms: O_2  and  C_26
REMARK    2  A    between atoms: O_2  and  C_31
REMARK    3  A    between atoms: N_3  and  C_13
REMARK    4  A    between atoms: C_13  and  C_18
REMARK    5  A    between atoms: C_16  and  C_19
REMARK    6  A    between atoms: C_27  and  C_30
REMARK                            x       y       z     vdW  Elec       q    Type
REMARK                         _______ _______ _______ _____ _____    ______ ____
ROOT
ATOM      1  O   UNL     1      12.339   7.587   2.829  0.00  0.00    -0.267 OA
ATOM      3  N   UNL     1      13.350   4.477  -0.973  0.00  0.00    -0.297 NA
ATOM      4  N   UNL     1      12.900   5.471   2.024  0.00  0.00    -0.311 N 
ATOM      6  C   UNL     1      15.081   5.004   0.763  0.00  0.00    +0.024 C 
ATOM      7  C   UNL     1      13.493   3.184   1.160  0.00  0.00    +0.050 C 
ATOM      8  C   UNL     1      14.948   3.605   1.349  0.00  0.00    +0.017 C 
ATOM      9  C   UNL     1      14.705   4.988  -0.735  0.00  0.00    +0.090 C 
ATOM     10  C   UNL     1      13.155   3.161  -0.348  0.00  0.00    +0.094 C 
ATOM     11  C   UNL     1      14.210   5.968   1.579  0.00  0.00    +0.130 C 
ATOM     12  C   UNL     1      12.559   4.123   1.899  0.00  0.00    +0.026 A 
ATOM     14  C   UNL     1      11.405   3.670   2.413  0.00  0.00    +0.022 A 
ATOM     15  C   UNL     1      12.057   6.398   2.670  0.00  0.00    +0.259 A 
ATOM     16  C   UNL     1      10.755   5.867   3.206  0.00  0.00    +0.047 A 
ATOM     17  C   UNL     1      10.490   4.559   3.070  0.00  0.00    +0.015 A 
ENDROOT
BRANCH  16  19
ATOM     19  C   UNL     1       9.779   6.756   3.860  0.00  0.00    -0.011 A 
ATOM     22  C   UNL     1       9.694   6.798   5.253  0.00  0.00    +0.027 A 
ATOM     23  C   UNL     1       8.939   7.557   3.087  0.00  0.00    +0.009 A 
ATOM     27  C   UNL     1       8.769   7.640   5.870  0.00  0.00    +0.052 A 
ATOM     28  C   UNL     1       8.014   8.400   3.705  0.00  0.00    +0.002 A 
ATOM     29  C   UNL     1       7.929   8.441   5.097  0.00  0.00    +0.019 A 
BRANCH  27  30
ATOM      5  N   UNL     1       8.610   7.714   8.455  0.00  0.00    -0.191 NA
ATOM     30  C   UNL     1       8.682   7.682   7.296  0.00  0.00    +0.099 C 
ENDBRANCH  27  30
ENDBRANCH  16  19
BRANCH   3  13
ATOM     13  C   UNL     1      13.053   4.428  -2.402  0.00  0.00    +0.119 C 
BRANCH  13  18
ATOM     18  C   UNL     1      11.621   4.775  -2.691  0.00  0.00    -0.033 A 
ATOM     20  C   UNL     1      11.112   4.581  -3.970  0.00  0.00    +0.008 A 
ATOM     21  C   UNL     1      10.819   5.286  -1.678  0.00  0.00    +0.008 A 
ATOM     24  C   UNL     1       9.781   4.903  -4.238  0.00  0.00    +0.046 A 
ATOM     25  C   UNL     1       9.488   5.607  -1.946  0.00  0.00    +0.046 A 
ATOM     26  C   UNL     1       8.970   5.416  -3.227  0.00  0.00    +0.120 A 
BRANCH  26   2
ATOM      2  O   UNL     1       7.672   5.731  -3.490  0.00  0.00    -0.495 OA
ATOM     31  C   UNL     1       7.167   6.936  -2.916  0.00  0.00    +0.277 C 
ENDBRANCH  26   2
ENDBRANCH  13  18
ENDBRANCH   3  13
TORSDOF 5
ENDMDL
MODEL 5
REMARK VINA RESULT:      -6.5     19.065     22.363
REMARK  Name = 7673840
REMARK  6 active torsions:
REMARK  status: ('A' for Active; 'I' for Inactive)
REMARK    1  A    between atoms: O_2  and  C_26
REMARK    2  A    between atoms: O_2  and  C_31
REMARK    3  A    between atoms: N_3  and  C_13
REMARK    4  A    between atoms: C_13  and  C_18
REMARK    5  A    between atoms: C_16  and  C_19
REMARK    6  A    between atoms: C_27  and  C_30
REMARK                            x       y       z     vdW  Elec       q    Type
REMARK                         _______ _______ _______ _____ _____    ______ ____
ROOT
ATOM      1  O   UNL     1      -6.575   9.637   5.189  0.00  0.00    -0.267 OA
ATOM      3  N   UNL     1      -1.823  10.326   3.742  0.00  0.00    -0.297 NA
ATOM      4  N   UNL     1      -4.290   9.259   5.460  0.00  0.00    -0.311 N 
ATOM      6  C   UNL     1      -2.627  11.140   5.973  0.00  0.00    +0.024 C 
ATOM      7  C   UNL     1      -1.826   8.838   5.749  0.00  0.00    +0.050 C 
ATOM      8  C   UNL     1      -1.835  10.048   6.680  0.00  0.00    +0.017 C 
ATOM      9  C   UNL     1      -1.960  11.490   4.626  0.00  0.00    +0.090 C 
ATOM     10  C   UNL     1      -1.135   9.217   4.419  0.00  0.00    +0.094 C 
ATOM     11  C   UNL     1      -4.079  10.672   5.808  0.00  0.00    +0.130 C 
ATOM     12  C   UNL     1      -3.236   8.343   5.493  0.00  0.00    +0.026 A 
ATOM     14  C   UNL     1      -3.472   7.038   5.283  0.00  0.00    +0.022 A 
ATOM     15  C   UNL     1      -5.616   8.863   5.194  0.00  0.00    +0.259 A 
ATOM     16  C   UNL     1      -5.842   7.400   4.927  0.00  0.00    +0.047 A 
ATOM     17  C   UNL     1      -4.794   6.565   4.989  0.00  0.00    +0.015 A 
ENDROOT
BRANCH  16  19
ATOM     19  C   UNL     1      -7.182   6.883   4.595  0.00  0.00    -0.011 A 
ATOM     22  C   UNL     1      -7.860   7.366   3.475  0.00  0.00    +0.027 A 
ATOM     23  C   UNL     1      -7.773   5.909   5.400  0.00  0.00    +0.009 A 
ATOM     27  C   UNL     1      -9.128   6.876   3.161  0.00  0.00    +0.052 A 
ATOM     28  C   UNL     1      -9.041   5.418   5.086  0.00  0.00    +0.002 A 
ATOM     29  C   UNL     1      -9.719   5.902   3.967  0.00  0.00    +0.019 A 
BRANCH  27  30
ATOM      5  N   UNL     1     -10.388   7.776   1.084  0.00  0.00    -0.191 NA
ATOM     30  C   UNL     1      -9.823   7.372   2.016  0.00  0.00    +0.099 C 
ENDBRANCH  27  30
ENDBRANCH  16  19
BRANCH   3  13
ATOM     13  C   UNL     1      -1.140  10.687   2.503  0.00  0.00    +0.119 C 
BRANCH  13  18
ATOM     18  C   UNL     1      -1.972  10.378   1.292  0.00  0.00    -0.033 A 
ATOM     20  C   UNL     1      -3.282  10.839   1.223  0.00  0.00    +0.008 A 
ATOM     21  C   UNL     1      -1.427   9.634   0.254  0.00  0.00    +0.008 A 
ATOM     24  C   UNL     1      -4.056  10.552   0.099  0.00  0.00    +0.046 A 
ATOM     25  C   UNL     1      -2.200   9.347  -0.871  0.00  0.00    +0.046 A 
ATOM     26  C   UNL     1      -3.515   9.805  -0.948  0.00  0.00    +0.120 A 
BRANCH  26   2
ATOM      2  O   UNL     1      -4.271   9.525  -2.046  0.00  0.00    -0.495 OA
ATOM     31  C   UNL     1      -5.680   9.416  -1.853  0.00  0.00    +0.277 C 
ENDBRANCH  26   2
ENDBRANCH  13  18
ENDBRANCH   3  13
TORSDOF 5
ENDMDL
MODEL 6
REMARK VINA RESULT:      -6.4     21.852     25.990
REMARK  Name = 7673840
REMARK  6 active torsions:
REMARK  status: ('A' for Active; 'I' for Inactive)
REMARK    1  A    between atoms: O_2  and  C_26
REMARK    2  A    between atoms: O_2  and  C_31
REMARK    3  A    between atoms: N_3  and  C_13
REMARK    4  A    between atoms: C_13  and  C_18
REMARK    5  A    between atoms: C_16  and  C_19
REMARK    6  A    between atoms: C_27  and  C_30
REMARK                            x       y       z     vdW  Elec       q    Type
REMARK                         _______ _______ _______ _____ _____    ______ ____
ROOT
ATOM      1  O   UNL     1      12.410  -7.668  33.198  0.00  0.00    -0.267 OA
ATOM      3  N   UNL     1       7.475  -6.903  33.661  0.00  0.00    -0.297 NA
ATOM      4  N   UNL     1      10.610  -6.372  33.920  0.00  0.00    -0.311 N 
ATOM      6  C   UNL     1       8.935  -7.189  35.679  0.00  0.00    +0.024 C 
ATOM      7  C   UNL     1       8.671  -4.965  34.690  0.00  0.00    +0.050 C 
ATOM      8  C   UNL     1       8.793  -5.710  36.016  0.00  0.00    +0.017 C 
ATOM      9  C   UNL     1       7.700  -7.672  34.890  0.00  0.00    +0.090 C 
ATOM     10  C   UNL     1       7.416  -5.459  33.934  0.00  0.00    +0.094 C 
ATOM     11  C   UNL     1      10.245  -7.397  34.908  0.00  0.00    +0.130 C 
ATOM     12  C   UNL     1       9.913  -5.165  33.842  0.00  0.00    +0.026 A 
ATOM     14  C   UNL     1      10.333  -4.198  33.011  0.00  0.00    +0.022 A 
ATOM     15  C   UNL     1      11.751  -6.628  33.133  0.00  0.00    +0.259 A 
ATOM     16  C   UNL     1      12.176  -5.539  32.185  0.00  0.00    +0.047 A 
ATOM     17  C   UNL     1      11.477  -4.394  32.167  0.00  0.00    +0.015 A 
ENDROOT
BRANCH  16  19
ATOM     19  C   UNL     1      13.328  -5.717  31.285  0.00  0.00    -0.011 A 
ATOM     22  C   UNL     1      14.483  -4.956  31.467  0.00  0.00    +0.027 A 
ATOM     23  C   UNL     1      13.264  -6.648  30.247  0.00  0.00    +0.009 A 
ATOM     27  C   UNL     1      15.574  -5.126  30.613  0.00  0.00    +0.052 A 
ATOM     28  C   UNL     1      14.355  -6.818  29.393  0.00  0.00    +0.002 A 
ATOM     29  C   UNL     1      15.509  -6.057  29.576  0.00  0.00    +0.019 A 
BRANCH  27  30
ATOM      5  N   UNL     1      17.717  -3.710  30.950  0.00  0.00    -0.191 NA
ATOM     30  C   UNL     1      16.755  -4.345  30.799  0.00  0.00    +0.099 C 
ENDBRANCH  27  30
ENDBRANCH  16  19
BRANCH   3  13
ATOM     13  C   UNL     1       6.270  -7.355  32.972  0.00  0.00    +0.119 C 
BRANCH  13  18
ATOM     18  C   UNL     1       6.505  -8.619  32.198  0.00  0.00    -0.033 A 
ATOM     20  C   UNL     1       6.459  -9.844  32.853  0.00  0.00    +0.008 A 
ATOM     21  C   UNL     1       6.768  -8.553  30.835  0.00  0.00    +0.008 A 
ATOM     24  C   UNL     1       6.677 -11.020  32.134  0.00  0.00    +0.046 A 
ATOM     25  C   UNL     1       6.986  -9.728  30.116  0.00  0.00    +0.046 A 
ATOM     26  C   UNL     1       6.942 -10.962  30.766  0.00  0.00    +0.120 A 
BRANCH  26   2
ATOM      2  O   UNL     1       7.156 -12.109  30.064  0.00  0.00    -0.495 OA
ATOM     31  C   UNL     1       6.073 -13.035  29.988  0.00  0.00    +0.277 C 
ENDBRANCH  26   2
ENDBRANCH  13  18
ENDBRANCH   3  13
TORSDOF 5
ENDMDL
MODEL 7
REMARK VINA RESULT:      -6.2     23.727     26.422
REMARK  Name = 7673840
REMARK  6 active torsions:
REMARK  status: ('A' for Active; 'I' for Inactive)
REMARK    1  A    between atoms: O_2  and  C_26
REMARK    2  A    between atoms: O_2  and  C_31
REMARK    3  A    between atoms: N_3  and  C_13
REMARK    4  A    between atoms: C_13  and  C_18
REMARK    5  A    between atoms: C_16  and  C_19
REMARK    6  A    between atoms: C_27  and  C_30
REMARK                            x       y       z     vdW  Elec       q    Type
REMARK                         _______ _______ _______ _____ _____    ______ ____
ROOT
ATOM      1  O   UNL     1     -10.171 -12.150  39.273  0.00  0.00    -0.267 OA
ATOM      3  N   UNL     1      -6.534  -8.993  40.671  0.00  0.00    -0.297 NA
ATOM      4  N   UNL     1      -7.944 -11.460  39.221  0.00  0.00    -0.311 N 
ATOM      6  C   UNL     1      -6.460 -11.416  41.310  0.00  0.00    +0.024 C 
ATOM      7  C   UNL     1      -5.542 -10.712  39.153  0.00  0.00    +0.050 C 
ATOM      8  C   UNL     1      -5.323 -11.661  40.327  0.00  0.00    +0.017 C 
ATOM      9  C   UNL     1      -6.443  -9.947  41.783  0.00  0.00    +0.090 C 
ATOM     10  C   UNL     1      -5.501  -9.251  39.656  0.00  0.00    +0.094 C 
ATOM     11  C   UNL     1      -7.785 -11.805  40.641  0.00  0.00    +0.130 C 
ATOM     12  C   UNL     1      -6.864 -10.999  38.466  0.00  0.00    +0.026 A 
ATOM     14  C   UNL     1      -7.003 -10.798  37.146  0.00  0.00    +0.022 A 
ATOM     15  C   UNL     1      -9.205 -11.712  38.645  0.00  0.00    +0.259 A 
ATOM     16  C   UNL     1      -9.339 -11.444  37.170  0.00  0.00    +0.047 A 
ATOM     17  C   UNL     1      -8.262 -11.018  36.494  0.00  0.00    +0.015 A 
ENDROOT
BRANCH  16  19
ATOM     19  C   UNL     1     -10.624 -11.631  36.474  0.00  0.00    -0.011 A 
ATOM     22  C   UNL     1     -10.840 -12.770  35.697  0.00  0.00    +0.027 A 
ATOM     23  C   UNL     1     -11.628 -10.668  36.591  0.00  0.00    +0.009 A 
ATOM     27  C   UNL     1     -12.057 -12.946  35.038  0.00  0.00    +0.052 A 
ATOM     28  C   UNL     1     -12.845 -10.845  35.933  0.00  0.00    +0.002 A 
ATOM     29  C   UNL     1     -13.060 -11.984  35.156  0.00  0.00    +0.019 A 
BRANCH  27  30
ATOM      5  N   UNL     1     -12.454 -15.060  33.593  0.00  0.00    -0.191 NA
ATOM     30  C   UNL     1     -12.276 -14.112  34.242  0.00  0.00    +0.099 C 
ENDBRANCH  27  30
ENDBRANCH  16  19
BRANCH   3  13
ATOM     13  C   UNL     1      -6.461  -7.617  41.154  0.00  0.00    +0.119 C 
BRANCH  13  18
ATOM     18  C   UNL     1      -7.573  -6.769  40.607  0.00  0.00    -0.033 A 
ATOM     20  C   UNL     1      -7.386  -5.399  40.466  0.00  0.00    +0.008 A 
ATOM     21  C   UNL     1      -8.777  -7.361  40.248  0.00  0.00    +0.008 A 
ATOM     24  C   UNL     1      -8.419  -4.611  39.958  0.00  0.00    +0.046 A 
ATOM     25  C   UNL     1      -9.810  -6.574  39.740  0.00  0.00    +0.046 A 
ATOM     26  C   UNL     1      -9.631  -5.198  39.595  0.00  0.00    +0.120 A 
BRANCH  26   2
ATOM      2  O   UNL     1     -10.639  -4.429  39.100  0.00  0.00    -0.495 OA
ATOM     31  C   UNL     1     -10.470  -3.014  39.169  0.00  0.00    +0.277 C 
ENDBRANCH  26   2
ENDBRANCH  13  18
ENDBRANCH   3  13
TORSDOF 5
ENDMDL
MODEL 8
REMARK VINA RESULT:      -6.0     20.807     24.229
REMARK  Name = 7673840
REMARK  6 active torsions:
REMARK  status: ('A' for Active; 'I' for Inactive)
REMARK    1  A    between atoms: O_2  and  C_26
REMARK    2  A    between atoms: O_2  and  C_31
REMARK    3  A    between atoms: N_3  and  C_13
REMARK    4  A    between atoms: C_13  and  C_18
REMARK    5  A    between atoms: C_16  and  C_19
REMARK    6  A    between atoms: C_27  and  C_30
REMARK                            x       y       z     vdW  Elec       q    Type
REMARK                         _______ _______ _______ _____ _____    ______ ____
ROOT
ATOM      1  O   UNL     1      -8.209 -15.039  36.836  0.00  0.00    -0.267 OA
ATOM      3  N   UNL     1     -11.739 -11.477  36.777  0.00  0.00    -0.297 NA
ATOM      4  N   UNL     1      -8.899 -12.850  37.249  0.00  0.00    -0.311 N 
ATOM      6  C   UNL     1     -10.740 -12.274  38.935  0.00  0.00    +0.024 C 
ATOM      7  C   UNL     1      -9.634 -10.483  37.684  0.00  0.00    +0.050 C 
ATOM      8  C   UNL     1      -9.982 -10.962  39.091  0.00  0.00    +0.017 C 
ATOM      9  C   UNL     1     -12.019 -12.049  38.099  0.00  0.00    +0.090 C 
ATOM     10  C   UNL     1     -10.934 -10.251  36.882  0.00  0.00    +0.094 C 
ATOM     11  C   UNL     1      -9.803 -13.315  38.310  0.00  0.00    +0.130 C 
ATOM     12  C   UNL     1      -8.746 -11.489  36.977  0.00  0.00    +0.026 A 
ATOM     14  C   UNL     1      -7.832 -11.079  36.082  0.00  0.00    +0.022 A 
ATOM     15  C   UNL     1      -8.126 -13.833  36.598  0.00  0.00    +0.259 A 
ATOM     16  C   UNL     1      -7.135 -13.346  35.577  0.00  0.00    +0.047 A 
ATOM     17  C   UNL     1      -7.022 -12.025  35.369  0.00  0.00    +0.015 A 
ENDROOT
BRANCH  16  19
ATOM     19  C   UNL     1      -6.307 -14.289  34.805  0.00  0.00    -0.011 A 
ATOM     22  C   UNL     1      -5.034 -14.639  35.261  0.00  0.00    +0.027 A 
ATOM     23  C   UNL     1      -6.794 -14.835  33.617  0.00  0.00    +0.009 A 
ATOM     27  C   UNL     1      -4.252 -15.532  34.530  0.00  0.00    +0.052 A 
ATOM     28  C   UNL     1      -6.011 -15.729  32.887  0.00  0.00    +0.002 A 
ATOM     29  C   UNL     1      -4.739 -16.077  33.343  0.00  0.00    +0.019 A 
BRANCH  27  30
ATOM      5  N   UNL     1      -1.889 -16.178  35.376  0.00  0.00    -0.191 NA
ATOM     30  C   UNL     1      -2.949 -15.888  34.997  0.00  0.00    +0.099 C 
ENDBRANCH  27  30
ENDBRANCH  16  19
BRANCH   3  13
ATOM     13  C   UNL     1     -12.975 -11.231  36.040  0.00  0.00    +0.119 C 
BRANCH  13  18
ATOM     18  C   UNL     1     -13.117 -12.146  34.858  0.00  0.00    -0.033 A 
ATOM     20  C   UNL     1     -14.131 -11.921  33.934  0.00  0.00    +0.008 A 
ATOM     21  C   UNL     1     -12.235 -13.208  34.700  0.00  0.00    +0.008 A 
ATOM     24  C   UNL     1     -14.263 -12.771  32.835  0.00  0.00    +0.046 A 
ATOM     25  C   UNL     1     -12.367 -14.057  33.601  0.00  0.00    +0.046 A 
ATOM     26  C   UNL     1     -13.382 -13.839  32.669  0.00  0.00    +0.120 A 
BRANCH  26   2
ATOM      2  O   UNL     1     -13.512 -14.669  31.598  0.00  0.00    -0.495 OA
ATOM     31  C   UNL     1     -13.366 -14.085  30.304  0.00  0.00    +0.277 C 
ENDBRANCH  26   2
ENDBRANCH  13  18
ENDBRANCH   3  13
TORSDOF 5
ENDMDL
MODEL 9
REMARK VINA RESULT:      -6.0     19.951     23.128
REMARK  Name = 7673840
REMARK  6 active torsions:
REMARK  status: ('A' for Active; 'I' for Inactive)
REMARK    1  A    between atoms: O_2  and  C_26
REMARK    2  A    between atoms: O_2  and  C_31
REMARK    3  A    between atoms: N_3  and  C_13
REMARK    4  A    between atoms: C_13  and  C_18
REMARK    5  A    between atoms: C_16  and  C_19
REMARK    6  A    between atoms: C_27  and  C_30
REMARK                            x       y       z     vdW  Elec       q    Type
REMARK                         _______ _______ _______ _____ _____    ______ ____
ROOT
ATOM      1  O   UNL     1      -2.818   9.151  -1.022  0.00  0.00    -0.267 OA
ATOM      3  N   UNL     1      -2.002   9.927   3.865  0.00  0.00    -0.297 NA
ATOM      4  N   UNL     1      -2.234  10.555   0.747  0.00  0.00    -0.311 N 
ATOM      6  C   UNL     1      -0.152  10.170   2.190  0.00  0.00    +0.024 C 
ATOM      7  C   UNL     1      -1.615  12.077   2.653  0.00  0.00    +0.050 C 
ATOM      8  C   UNL     1      -0.170  11.683   2.360  0.00  0.00    +0.017 C 
ATOM      9  C   UNL     1      -0.656   9.487   3.480  0.00  0.00    +0.090 C 
ATOM     10  C   UNL     1      -2.082  11.392   3.958  0.00  0.00    +0.094 C 
ATOM     11  C   UNL     1      -0.992   9.799   0.961  0.00  0.00    +0.130 C 
ATOM     12  C   UNL     1      -2.523  11.695   1.499  0.00  0.00    +0.026 A 
ATOM     14  C   UNL     1      -3.606  12.435   1.212  0.00  0.00    +0.022 A 
ATOM     15  C   UNL     1      -3.059  10.132  -0.315  0.00  0.00    +0.259 A 
ATOM     16  C   UNL     1      -4.283  10.961  -0.590  0.00  0.00    +0.047 A 
ATOM     17  C   UNL     1      -4.500  12.055   0.156  0.00  0.00    +0.015 A 
ENDROOT
BRANCH  16  19
ATOM     19  C   UNL     1      -5.238  10.585  -1.648  0.00  0.00    -0.011 A 
ATOM     22  C   UNL     1      -6.167   9.568  -1.423  0.00  0.00    +0.027 A 
ATOM     23  C   UNL     1      -5.213  11.247  -2.876  0.00  0.00    +0.009 A 
ATOM     27  C   UNL     1      -7.070   9.214  -2.426  0.00  0.00    +0.052 A 
ATOM     28  C   UNL     1      -6.118  10.892  -3.878  0.00  0.00    +0.002 A 
ATOM     29  C   UNL     1      -7.045   9.875  -3.653  0.00  0.00    +0.019 A 
BRANCH  27  30
ATOM      5  N   UNL     1      -8.792   7.323  -2.009  0.00  0.00    -0.191 NA
ATOM     30  C   UNL     1      -8.020   8.171  -2.196  0.00  0.00    +0.099 C 
ENDBRANCH  27  30
ENDBRANCH  16  19
BRANCH   3  13
ATOM     13  C   UNL     1      -2.420   9.300   5.116  0.00  0.00    +0.119 C 
BRANCH  13  18
ATOM     18  C   UNL     1      -3.639   8.443   4.935  0.00  0.00    -0.033 A 
ATOM     20  C   UNL     1      -4.798   9.000   4.406  0.00  0.00    +0.008 A 
ATOM     21  C   UNL     1      -3.599   7.103   5.299  0.00  0.00    +0.008 A 
ATOM     24  C   UNL     1      -5.931   8.204   4.238  0.00  0.00    +0.046 A 
ATOM     25  C   UNL     1      -4.732   6.307   5.131  0.00  0.00    +0.046 A 
ATOM     26  C   UNL     1      -5.898   6.858   4.601  0.00  0.00    +0.120 A 
BRANCH  26   2
ATOM      2  O   UNL     1      -7.005   6.081   4.437  0.00  0.00    -0.495 OA
ATOM     31  C   UNL     1      -7.822   5.865   5.587  0.00  0.00    +0.277 C 
ENDBRANCH  26   2
ENDBRANCH  13  18
ENDBRANCH   3  13
TORSDOF 5
ENDMDL
MODEL 10
REMARK VINA RESULT:      -5.8     21.862     25.766
REMARK  Name = 7673840
REMARK  6 active torsions:
REMARK  status: ('A' for Active; 'I' for Inactive)
REMARK    1  A    between atoms: O_2  and  C_26
REMARK    2  A    between atoms: O_2  and  C_31
REMARK    3  A    between atoms: N_3  and  C_13
REMARK    4  A    between atoms: C_13  and  C_18
REMARK    5  A    between atoms: C_16  and  C_19
REMARK    6  A    between atoms: C_27  and  C_30
REMARK                            x       y       z     vdW  Elec       q    Type
REMARK                         _______ _______ _______ _____ _____    ______ ____
ROOT
ATOM      1  O   UNL     1      12.451  -7.823  33.295  0.00  0.00    -0.267 OA
ATOM      3  N   UNL     1       7.525  -6.926  33.582  0.00  0.00    -0.297 NA
ATOM      4  N   UNL     1      10.663  -6.469  33.934  0.00  0.00    -0.311 N 
ATOM      6  C   UNL     1       8.912  -7.208  35.652  0.00  0.00    +0.024 C 
ATOM      7  C   UNL     1       8.737  -4.999  34.613  0.00  0.00    +0.050 C 
ATOM      8  C   UNL     1       8.797  -5.720  35.956  0.00  0.00    +0.017 C 
ATOM      9  C   UNL     1       7.690  -7.676  34.833  0.00  0.00    +0.090 C 
ATOM     10  C   UNL     1       7.495  -5.476  33.826  0.00  0.00    +0.094 C 
ATOM     11  C   UNL     1      10.240  -7.465  34.929  0.00  0.00    +0.130 C 
ATOM     12  C   UNL     1      10.000  -5.246  33.810  0.00  0.00    +0.026 A 
ATOM     14  C   UNL     1      10.470  -4.306  32.975  0.00  0.00    +0.022 A 
ATOM     15  C   UNL     1      11.821  -6.769  33.189  0.00  0.00    +0.259 A 
ATOM     16  C   UNL     1      12.304  -5.709  32.236  0.00  0.00    +0.047 A 
ATOM     17  C   UNL     1      11.635  -4.548  32.173  0.00  0.00    +0.015 A 
ENDROOT
BRANCH  16  19
ATOM     19  C   UNL     1      13.480  -5.934  31.376  0.00  0.00    -0.011 A 
ATOM     22  C   UNL     1      13.626  -7.142  30.692  0.00  0.00    +0.027 A 
ATOM     23  C   UNL     1      14.449  -4.939  31.246  0.00  0.00    +0.009 A 
ATOM     27  C   UNL     1      14.740  -7.353  29.879  0.00  0.00    +0.052 A 
ATOM     28  C   UNL     1      15.562  -5.150  30.432  0.00  0.00    +0.002 A 
ATOM     29  C   UNL     1      15.708  -6.358  29.749  0.00  0.00    +0.019 A 
BRANCH  27  30
ATOM      5  N   UNL     1      15.012  -9.597  28.613  0.00  0.00    -0.191 NA
ATOM     30  C   UNL     1      14.889  -8.590  29.180  0.00  0.00    +0.099 C 
ENDBRANCH  27  30
ENDBRANCH  16  19
BRANCH   3  13
ATOM     13  C   UNL     1       6.331  -7.361  32.863  0.00  0.00    +0.119 C 
BRANCH  13  18
ATOM     18  C   UNL     1       6.550  -8.662  32.146  0.00  0.00    -0.033 A 
ATOM     20  C   UNL     1       6.806  -8.659  30.780  0.00  0.00    +0.008 A 
ATOM     21  C   UNL     1       6.493  -9.856  32.854  0.00  0.00    +0.008 A 
ATOM     24  C   UNL     1       7.009  -9.867  30.114  0.00  0.00    +0.046 A 
ATOM     25  C   UNL     1       6.696 -11.065  32.188  0.00  0.00    +0.046 A 
ATOM     26  C   UNL     1       6.953 -11.070  30.817  0.00  0.00    +0.120 A 
BRANCH  26   2
ATOM      2  O   UNL     1       7.151 -12.250  30.166  0.00  0.00    -0.495 OA
ATOM     31  C   UNL     1       7.923 -12.208  28.967  0.00  0.00    +0.277 C 
ENDBRANCH  26   2
ENDBRANCH  13  18
ENDBRANCH   3  13
TORSDOF 5
ENDMDL
