MODEL 1
REMARK VINA RESULT:      -6.8      0.000      0.000
REMARK  Name = 45783590
REMARK  7 active torsions:
REMARK  status: ('A' for Active; 'I' for Inactive)
REMARK    1  A    between atoms: O_1  and  C_12
REMARK    2  A    between atoms: O_1  and  C_22
REMARK    3  A    between atoms: N_3  and  C_11
REMARK    4  A    between atoms: C_7  and  C_13
REMARK    5  A    between atoms: C_11  and  C_19
REMARK    6  A    between atoms: C_11  and  C_20
REMARK    7  A    between atoms: C_21  and  C_23
REMARK                            x       y       z     vdW  Elec       q    Type
REMARK                         _______ _______ _______ _____ _____    ______ ____
ROOT
ATOM      2  O   UNL     1      14.359   7.033  19.398  0.00  0.00    -0.336 OA
ATOM      4  N   UNL     1      15.967   8.423  20.110  0.00  0.00    -0.190 NA
ATOM      5  N   UNL     1      15.473   6.231  19.678  0.00  0.00    -0.056 NA
ATOM     13  C   UNL     1      14.735   8.309  19.680  0.00  0.00    +0.245 A 
ATOM     21  C   UNL     1      16.379   7.122  20.091  0.00  0.00    +0.204 A 
ENDROOT
BRANCH  21  23
ATOM      6  N   UNL     1      19.570   7.052  21.996  0.00  0.00    -0.221 NA
ATOM     22  C   UNL     1      20.220   6.087  21.309  0.00  0.00    +0.215 A 
ATOM     23  C   UNL     1      17.703   6.747  20.491  0.00  0.00    +0.041 A 
ATOM     24  C   UNL     1      19.688   5.416  20.219  0.00  0.00    +0.068 A 
ATOM     25  C   UNL     1      18.405   5.759  19.808  0.00  0.00    +0.018 A 
ATOM     26  C   UNL     1      18.325   7.357  21.568  0.00  0.00    +0.126 A 
BRANCH  22   1
ATOM      1  O   UNL     1      21.484   5.768  21.732  0.00  0.00    -0.473 OA
BRANCH   1  12
ATOM     12  C   UNL     1      22.178   4.773  20.986  0.00  0.00    +0.175 C 
ATOM     14  C   UNL     1      22.248   3.481  21.797  0.00  0.00    +0.044 C 
ATOM     15  C   UNL     1      23.569   5.285  20.619  0.00  0.00    +0.044 C 
ATOM     16  C   UNL     1      23.068   2.413  21.080  0.00  0.00    +0.004 C 
ATOM     17  C   UNL     1      24.389   4.216  19.902  0.00  0.00    +0.004 C 
ATOM     18  C   UNL     1      24.458   2.924  20.711  0.00  0.00    +0.000 C 
ENDBRANCH   1  12
ENDBRANCH  22   1
ENDBRANCH  21  23
BRANCH  13   7
ATOM      3  N   UNL     1      13.280   9.638  18.064  0.00  0.00    -0.289 NA
ATOM      7  C   UNL     1      13.686   9.390  19.457  0.00  0.00    +0.146 C 
ATOM      8  C   UNL     1      12.332   9.108  20.122  0.00  0.00    +0.030 C 
ATOM      9  C   UNL     1      12.231   8.682  17.730  0.00  0.00    +0.085 C 
ATOM     10  C   UNL     1      11.422   8.576  19.015  0.00  0.00    +0.017 C 
BRANCH   3  11
ATOM     11  C   UNL     1      14.342   9.707  17.077  0.00  0.00    +0.051 C 
ATOM     19  C   UNL     1      14.493  11.136  16.563  0.00  0.00    +0.024 C 
ATOM     20  C   UNL     1      14.037   8.744  15.935  0.00  0.00    +0.024 C 
ENDBRANCH   3  11
ENDBRANCH  13   7
TORSDOF 5
ENDMDL
MODEL 2
REMARK VINA RESULT:      -6.7      1.281      2.541
REMARK  Name = 45783590
REMARK  7 active torsions:
REMARK  status: ('A' for Active; 'I' for Inactive)
REMARK    1  A    between atoms: O_1  and  C_12
REMARK    2  A    between atoms: O_1  and  C_22
REMARK    3  A    between atoms: N_3  and  C_11
REMARK    4  A    between atoms: C_7  and  C_13
REMARK    5  A    between atoms: C_11  and  C_19
REMARK    6  A    between atoms: C_11  and  C_20
REMARK    7  A    between atoms: C_21  and  C_23
REMARK                            x       y       z     vdW  Elec       q    Type
REMARK                         _______ _______ _______ _____ _____    ______ ____
ROOT
ATOM      2  O   UNL     1      13.861   7.183  19.077  0.00  0.00    -0.336 OA
ATOM      4  N   UNL     1      15.349   8.724  19.733  0.00  0.00    -0.190 NA
ATOM      5  N   UNL     1      15.008   6.478  19.463  0.00  0.00    -0.056 NA
ATOM     13  C   UNL     1      14.146   8.498  19.267  0.00  0.00    +0.245 A 
ATOM     21  C   UNL     1      15.839   7.454  19.837  0.00  0.00    +0.204 A 
ENDROOT
BRANCH  21  23
ATOM      6  N   UNL     1      18.984   7.811  21.785  0.00  0.00    -0.221 NA
ATOM     22  C   UNL     1      19.682   6.770  21.279  0.00  0.00    +0.215 A 
ATOM     23  C   UNL     1      17.165   7.197  20.318  0.00  0.00    +0.041 A 
ATOM     24  C   UNL     1      19.197   5.912  20.305  0.00  0.00    +0.068 A 
ATOM     25  C   UNL     1      17.914   6.137  19.820  0.00  0.00    +0.018 A 
ATOM     26  C   UNL     1      17.741   7.998  21.291  0.00  0.00    +0.126 A 
BRANCH  22   1
ATOM      1  O   UNL     1      20.945   6.571  21.771  0.00  0.00    -0.473 OA
BRANCH   1  12
ATOM     12  C   UNL     1      21.640   5.418  21.305  0.00  0.00    +0.175 C 
ATOM     14  C   UNL     1      21.807   4.423  22.451  0.00  0.00    +0.044 C 
ATOM     15  C   UNL     1      22.988   5.835  20.719  0.00  0.00    +0.044 C 
ATOM     16  C   UNL     1      22.632   3.212  22.026  0.00  0.00    +0.004 C 
ATOM     17  C   UNL     1      23.813   4.624  20.294  0.00  0.00    +0.004 C 
ATOM     18  C   UNL     1      23.979   3.628  21.438  0.00  0.00    +0.000 C 
ENDBRANCH   1  12
ENDBRANCH  22   1
ENDBRANCH  21  23
BRANCH  13   7
ATOM      3  N   UNL     1      12.318  10.094  20.044  0.00  0.00    -0.289 NA
ATOM      7  C   UNL     1      13.045   9.488  18.916  0.00  0.00    +0.146 C 
ATOM      8  C   UNL     1      13.527  10.735  18.161  0.00  0.00    +0.030 C 
ATOM      9  C   UNL     1      13.084  11.249  20.496  0.00  0.00    +0.085 C 
ATOM     10  C   UNL     1      13.625  11.847  19.205  0.00  0.00    +0.017 C 
BRANCH   3  11
ATOM     11  C   UNL     1      11.919   9.202  21.116  0.00  0.00    +0.051 C 
ATOM     19  C   UNL     1      10.806   8.271  20.643  0.00  0.00    +0.024 C 
ATOM     20  C   UNL     1      11.469  10.024  22.319  0.00  0.00    +0.024 C 
ENDBRANCH   3  11
ENDBRANCH  13   7
TORSDOF 5
ENDMDL
MODEL 3
REMARK VINA RESULT:      -6.4     13.416     14.610
REMARK  Name = 45783590
REMARK  7 active torsions:
REMARK  status: ('A' for Active; 'I' for Inactive)
REMARK    1  A    between atoms: O_1  and  C_12
REMARK    2  A    between atoms: O_1  and  C_22
REMARK    3  A    between atoms: N_3  and  C_11
REMARK    4  A    between atoms: C_7  and  C_13
REMARK    5  A    between atoms: C_11  and  C_19
REMARK    6  A    between atoms: C_11  and  C_20
REMARK    7  A    between atoms: C_21  and  C_23
REMARK                            x       y       z     vdW  Elec       q    Type
REMARK                         _______ _______ _______ _____ _____    ______ ____
ROOT
ATOM      2  O   UNL     1      10.566   9.223   7.859  0.00  0.00    -0.336 OA
ATOM      4  N   UNL     1      11.822   7.748   6.734  0.00  0.00    -0.190 NA
ATOM      5  N   UNL     1      11.820   9.824   7.694  0.00  0.00    -0.056 NA
ATOM     13  C   UNL     1      10.653   8.003   7.265  0.00  0.00    +0.245 A 
ATOM     21  C   UNL     1      12.505   8.894   7.023  0.00  0.00    +0.204 A 
ENDROOT
BRANCH  21  23
ATOM      6  N   UNL     1      15.666  10.582   6.038  0.00  0.00    -0.221 NA
ATOM     22  C   UNL     1      16.457   9.499   5.871  0.00  0.00    +0.215 A 
ATOM     23  C   UNL     1      13.870   9.076   6.627  0.00  0.00    +0.041 A 
ATOM     24  C   UNL     1      16.034   8.193   6.059  0.00  0.00    +0.068 A 
ATOM     25  C   UNL     1      14.714   7.986   6.443  0.00  0.00    +0.018 A 
ATOM     26  C   UNL     1      14.391  10.342   6.414  0.00  0.00    +0.126 A 
BRANCH  22   1
ATOM      1  O   UNL     1      17.752   9.729   5.490  0.00  0.00    -0.473 OA
BRANCH   1  12
ATOM     12  C   UNL     1      18.659   8.637   5.610  0.00  0.00    +0.175 C 
ATOM     14  C   UNL     1      19.711   8.960   6.669  0.00  0.00    +0.044 C 
ATOM     15  C   UNL     1      19.296   8.349   4.252  0.00  0.00    +0.044 C 
ATOM     16  C   UNL     1      20.765   7.860   6.766  0.00  0.00    +0.004 C 
ATOM     17  C   UNL     1      20.349   7.249   4.349  0.00  0.00    +0.004 C 
ATOM     18  C   UNL     1      21.400   7.570   5.408  0.00  0.00    +0.000 C 
ENDBRANCH   1  12
ENDBRANCH  22   1
ENDBRANCH  21  23
BRANCH  13   7
ATOM      3  N   UNL     1       9.136   6.303   6.123  0.00  0.00    -0.289 NA
ATOM      7  C   UNL     1       9.401   7.138   7.306  0.00  0.00    +0.146 C 
ATOM      8  C   UNL     1       9.389   6.090   8.427  0.00  0.00    +0.030 C 
ATOM      9  C   UNL     1       9.885   5.063   6.279  0.00  0.00    +0.085 C 
ATOM     10  C   UNL     1       9.780   4.767   7.768  0.00  0.00    +0.017 C 
BRANCH   3  11
ATOM     11  C   UNL     1       9.313   6.933   4.828  0.00  0.00    +0.051 C 
ATOM     19  C   UNL     1       8.008   7.581   4.372  0.00  0.00    +0.024 C 
ATOM     20  C   UNL     1       9.788   5.893   3.819  0.00  0.00    +0.024 C 
ENDBRANCH   3  11
ENDBRANCH  13   7
TORSDOF 5
ENDMDL
MODEL 4
REMARK VINA RESULT:      -6.3     15.909     20.175
REMARK  Name = 45783590
REMARK  7 active torsions:
REMARK  status: ('A' for Active; 'I' for Inactive)
REMARK    1  A    between atoms: O_1  and  C_12
REMARK    2  A    between atoms: O_1  and  C_22
REMARK    3  A    between atoms: N_3  and  C_11
REMARK    4  A    between atoms: C_7  and  C_13
REMARK    5  A    between atoms: C_11  and  C_19
REMARK    6  A    between atoms: C_11  and  C_20
REMARK    7  A    between atoms: C_21  and  C_23
REMARK                            x       y       z     vdW  Elec       q    Type
REMARK                         _______ _______ _______ _____ _____    ______ ____
ROOT
ATOM      2  O   UNL     1      10.057   4.731   5.608  0.00  0.00    -0.336 OA
ATOM      4  N   UNL     1      11.308   5.937   4.194  0.00  0.00    -0.190 NA
ATOM      5  N   UNL     1      10.111   4.000   4.414  0.00  0.00    -0.056 NA
ATOM     13  C   UNL     1      10.787   5.857   5.393  0.00  0.00    +0.245 A 
ATOM     21  C   UNL     1      10.866   4.775   3.631  0.00  0.00    +0.204 A 
ENDROOT
BRANCH  21  23
ATOM      6  N   UNL     1      10.557   4.345  -0.048  0.00  0.00    -0.221 NA
ATOM     22  C   UNL     1      11.754   3.772  -0.309  0.00  0.00    +0.215 A 
ATOM     23  C   UNL     1      11.195   4.421   2.282  0.00  0.00    +0.041 A 
ATOM     24  C   UNL     1      12.708   3.496   0.657  0.00  0.00    +0.068 A 
ATOM     25  C   UNL     1      12.415   3.829   1.975  0.00  0.00    +0.018 A 
ATOM     26  C   UNL     1      10.309   4.656   1.243  0.00  0.00    +0.126 A 
BRANCH  22   1
ATOM      1  O   UNL     1      12.017   3.451  -1.614  0.00  0.00    -0.473 OA
BRANCH   1  12
ATOM     12  C   UNL     1      10.911   3.457  -2.511  0.00  0.00    +0.175 C 
ATOM     14  C   UNL     1      10.519   2.020  -2.848  0.00  0.00    +0.044 C 
ATOM     15  C   UNL     1      11.271   4.252  -3.765  0.00  0.00    +0.044 C 
ATOM     16  C   UNL     1       9.399   1.972  -3.884  0.00  0.00    +0.004 C 
ATOM     17  C   UNL     1      10.152   4.204  -4.800  0.00  0.00    +0.004 C 
ATOM     18  C   UNL     1       9.758   2.769  -5.136  0.00  0.00    +0.000 C 
ENDBRANCH   1  12
ENDBRANCH  22   1
ENDBRANCH  21  23
BRANCH  13   7
ATOM      3  N   UNL     1       9.880   7.908   6.604  0.00  0.00    -0.289 NA
ATOM      7  C   UNL     1      10.886   6.833   6.557  0.00  0.00    +0.146 C 
ATOM      8  C   UNL     1      10.711   6.192   7.940  0.00  0.00    +0.030 C 
ATOM      9  C   UNL     1       8.696   7.379   7.269  0.00  0.00    +0.085 C 
ATOM     10  C   UNL     1       9.269   6.483   8.358  0.00  0.00    +0.017 C 
BRANCH   3  11
ATOM     11  C   UNL     1       9.593   8.587   5.354  0.00  0.00    +0.051 C 
ATOM     19  C   UNL     1      10.160  10.004   5.380  0.00  0.00    +0.024 C 
ATOM     20  C   UNL     1       8.086   8.606   5.122  0.00  0.00    +0.024 C 
ENDBRANCH   3  11
ENDBRANCH  13   7
TORSDOF 5
ENDMDL
MODEL 5
REMARK VINA RESULT:      -6.3     27.841     30.764
REMARK  Name = 45783590
REMARK  7 active torsions:
REMARK  status: ('A' for Active; 'I' for Inactive)
REMARK    1  A    between atoms: O_1  and  C_12
REMARK    2  A    between atoms: O_1  and  C_22
REMARK    3  A    between atoms: N_3  and  C_11
REMARK    4  A    between atoms: C_7  and  C_13
REMARK    5  A    between atoms: C_11  and  C_19
REMARK    6  A    between atoms: C_11  and  C_20
REMARK    7  A    between atoms: C_21  and  C_23
REMARK                            x       y       z     vdW  Elec       q    Type
REMARK                         _______ _______ _______ _____ _____    ______ ____
ROOT
ATOM      2  O   UNL     1      -1.327 -11.143  15.408  0.00  0.00    -0.336 OA
ATOM      4  N   UNL     1      -3.454 -11.703  14.983  0.00  0.00    -0.190 NA
ATOM      5  N   UNL     1      -2.048 -10.846  16.571  0.00  0.00    -0.056 NA
ATOM     13  C   UNL     1      -2.230 -11.643  14.523  0.00  0.00    +0.245 A 
ATOM     21  C   UNL     1      -3.293 -11.202  16.243  0.00  0.00    +0.204 A 
ENDROOT
BRANCH  21  23
ATOM      6  N   UNL     1      -5.350 -11.526  19.321  0.00  0.00    -0.221 NA
ATOM     22  C   UNL     1      -6.460 -10.866  18.920  0.00  0.00    +0.215 A 
ATOM     23  C   UNL     1      -4.397 -11.072  17.147  0.00  0.00    +0.041 A 
ATOM     24  C   UNL     1      -6.611 -10.291  17.669  0.00  0.00    +0.068 A 
ATOM     25  C   UNL     1      -5.556 -10.401  16.771  0.00  0.00    +0.018 A 
ATOM     26  C   UNL     1      -4.346 -11.612  18.422  0.00  0.00    +0.126 A 
BRANCH  22   1
ATOM      1  O   UNL     1      -7.486 -10.772  19.823  0.00  0.00    -0.473 OA
BRANCH   1  12
ATOM     12  C   UNL     1      -8.694 -11.450  19.492  0.00  0.00    +0.175 C 
ATOM     14  C   UNL     1      -9.882 -10.701  20.091  0.00  0.00    +0.044 C 
ATOM     15  C   UNL     1      -8.626 -12.892  19.993  0.00  0.00    +0.044 C 
ATOM     16  C   UNL     1     -11.193 -11.442  19.846  0.00  0.00    +0.004 C 
ATOM     17  C   UNL     1      -9.937 -13.633  19.749  0.00  0.00    +0.004 C 
ATOM     18  C   UNL     1     -11.126 -12.883  20.345  0.00  0.00    +0.000 C 
ENDBRANCH   1  12
ENDBRANCH  22   1
ENDBRANCH  21  23
BRANCH  13   7
ATOM      3  N   UNL     1      -2.056 -13.391  12.677  0.00  0.00    -0.289 NA
ATOM      7  C   UNL     1      -1.688 -12.050  13.159  0.00  0.00    +0.146 C 
ATOM      8  C   UNL     1      -2.165 -11.167  11.997  0.00  0.00    +0.030 C 
ATOM      9  C   UNL     1      -3.357 -13.288  12.027  0.00  0.00    +0.085 C 
ATOM     10  C   UNL     1      -3.296 -11.941  11.320  0.00  0.00    +0.017 C 
BRANCH   3  11
ATOM     11  C   UNL     1      -1.968 -14.476  13.637  0.00  0.00    +0.051 C 
ATOM     19  C   UNL     1      -0.725 -15.319  13.369  0.00  0.00    +0.024 C 
ATOM     20  C   UNL     1      -3.232 -15.325  13.559  0.00  0.00    +0.024 C 
ENDBRANCH   3  11
ENDBRANCH  13   7
TORSDOF 5
ENDMDL
MODEL 6
REMARK VINA RESULT:      -6.3      1.851      9.595
REMARK  Name = 45783590
REMARK  7 active torsions:
REMARK  status: ('A' for Active; 'I' for Inactive)
REMARK    1  A    between atoms: O_1  and  C_12
REMARK    2  A    between atoms: O_1  and  C_22
REMARK    3  A    between atoms: N_3  and  C_11
REMARK    4  A    between atoms: C_7  and  C_13
REMARK    5  A    between atoms: C_11  and  C_19
REMARK    6  A    between atoms: C_11  and  C_20
REMARK    7  A    between atoms: C_21  and  C_23
REMARK                            x       y       z     vdW  Elec       q    Type
REMARK                         _______ _______ _______ _____ _____    ______ ____
ROOT
ATOM      2  O   UNL     1      22.213   7.145  21.007  0.00  0.00    -0.336 OA
ATOM      4  N   UNL     1      20.916   5.326  20.851  0.00  0.00    -0.190 NA
ATOM      5  N   UNL     1      20.925   7.609  20.713  0.00  0.00    -0.056 NA
ATOM     13  C   UNL     1      22.120   5.791  21.071  0.00  0.00    +0.245 A 
ATOM     21  C   UNL     1      20.217   6.479  20.635  0.00  0.00    +0.204 A 
ENDROOT
BRANCH  21  23
ATOM      6  N   UNL     1      16.978   5.540  19.073  0.00  0.00    -0.221 NA
ATOM     22  C   UNL     1      16.156   6.384  19.737  0.00  0.00    +0.215 A 
ATOM     23  C   UNL     1      18.814   6.465  20.344  0.00  0.00    +0.041 A 
ATOM     24  C   UNL     1      16.581   7.282  20.702  0.00  0.00    +0.068 A 
ATOM     25  C   UNL     1      17.937   7.318  21.005  0.00  0.00    +0.018 A 
ATOM     26  C   UNL     1      18.288   5.603  19.396  0.00  0.00    +0.126 A 
BRANCH  22   1
ATOM      1  O   UNL     1      14.824   6.331  19.419  0.00  0.00    -0.473 OA
BRANCH   1  12
ATOM     12  C   UNL     1      14.212   7.553  19.021  0.00  0.00    +0.175 C 
ATOM     14  C   UNL     1      12.750   7.561  19.464  0.00  0.00    +0.044 C 
ATOM     15  C   UNL     1      14.343   7.723  17.508  0.00  0.00    +0.044 C 
ATOM     16  C   UNL     1      12.023   8.810  18.975  0.00  0.00    +0.004 C 
ATOM     17  C   UNL     1      13.615   8.972  17.020  0.00  0.00    +0.004 C 
ATOM     18  C   UNL     1      12.155   8.982  17.464  0.00  0.00    +0.000 C 
ENDBRANCH   1  12
ENDBRANCH  22   1
ENDBRANCH  21  23
BRANCH  13   7
ATOM      3  N   UNL     1      23.483   4.384  22.701  0.00  0.00    -0.289 NA
ATOM      7  C   UNL     1      23.405   5.036  21.384  0.00  0.00    +0.146 C 
ATOM      8  C   UNL     1      23.695   3.858  20.444  0.00  0.00    +0.030 C 
ATOM      9  C   UNL     1      22.852   3.075  22.587  0.00  0.00    +0.085 C 
ATOM     10  C   UNL     1      23.261   2.602  21.199  0.00  0.00    +0.017 C 
BRANCH   3  11
ATOM     11  C   UNL     1      23.021   5.156  23.840  0.00  0.00    +0.051 C 
ATOM     19  C   UNL     1      23.991   6.298  24.133  0.00  0.00    +0.024 C 
ATOM     20  C   UNL     1      22.874   4.239  25.049  0.00  0.00    +0.024 C 
ENDBRANCH   3  11
ENDBRANCH  13   7
TORSDOF 5
ENDMDL
MODEL 7
REMARK VINA RESULT:      -6.3     31.427     34.586
REMARK  Name = 45783590
REMARK  7 active torsions:
REMARK  status: ('A' for Active; 'I' for Inactive)
REMARK    1  A    between atoms: O_1  and  C_12
REMARK    2  A    between atoms: O_1  and  C_22
REMARK    3  A    between atoms: N_3  and  C_11
REMARK    4  A    between atoms: C_7  and  C_13
REMARK    5  A    between atoms: C_11  and  C_19
REMARK    6  A    between atoms: C_11  and  C_20
REMARK    7  A    between atoms: C_21  and  C_23
REMARK                            x       y       z     vdW  Elec       q    Type
REMARK                         _______ _______ _______ _____ _____    ______ ____
ROOT
ATOM      2  O   UNL     1     -17.651   2.362  29.209  0.00  0.00    -0.336 OA
ATOM      4  N   UNL     1     -15.768   3.371  28.535  0.00  0.00    -0.190 NA
ATOM      5  N   UNL     1     -17.868   2.745  27.880  0.00  0.00    -0.056 NA
ATOM     13  C   UNL     1     -16.391   2.768  29.517  0.00  0.00    +0.245 A 
ATOM     21  C   UNL     1     -16.714   3.333  27.553  0.00  0.00    +0.204 A 
ENDROOT
BRANCH  21  23
ATOM      6  N   UNL     1     -16.829   5.699  24.688  0.00  0.00    -0.221 NA
ATOM     22  C   UNL     1     -16.061   5.021  23.806  0.00  0.00    +0.215 A 
ATOM     23  C   UNL     1     -16.474   3.894  26.256  0.00  0.00    +0.041 A 
ATOM     24  C   UNL     1     -15.475   3.794  24.070  0.00  0.00    +0.068 A 
ATOM     25  C   UNL     1     -15.691   3.226  25.321  0.00  0.00    +0.018 A 
ATOM     26  C   UNL     1     -17.016   5.116  25.893  0.00  0.00    +0.126 A 
BRANCH  22   1
ATOM      1  O   UNL     1     -15.865   5.600  22.580  0.00  0.00    -0.473 OA
BRANCH   1  12
ATOM     12  C   UNL     1     -14.666   6.349  22.410  0.00  0.00    +0.175 C 
ATOM     14  C   UNL     1     -14.984   7.675  21.723  0.00  0.00    +0.044 C 
ATOM     15  C   UNL     1     -13.658   5.527  21.609  0.00  0.00    +0.044 C 
ATOM     16  C   UNL     1     -13.717   8.473  21.430  0.00  0.00    +0.004 C 
ATOM     17  C   UNL     1     -12.391   6.325  21.316  0.00  0.00    +0.004 C 
ATOM     18  C   UNL     1     -12.708   7.651  20.631  0.00  0.00    +0.000 C 
ENDBRANCH   1  12
ENDBRANCH  22   1
ENDBRANCH  21  23
BRANCH  13   7
ATOM      3  N   UNL     1     -14.792   1.510  31.051  0.00  0.00    -0.289 NA
ATOM      7  C   UNL     1     -15.906   2.464  30.927  0.00  0.00    +0.146 C 
ATOM      8  C   UNL     1     -15.351   3.679  31.684  0.00  0.00    +0.030 C 
ATOM      9  C   UNL     1     -13.550   2.254  30.884  0.00  0.00    +0.085 C 
ATOM     10  C   UNL     1     -13.829   3.577  31.583  0.00  0.00    +0.017 C 
BRANCH   3  11
ATOM     11  C   UNL     1     -14.867   0.311  30.238  0.00  0.00    +0.051 C 
ATOM     19  C   UNL     1     -15.628  -0.784  30.980  0.00  0.00    +0.024 C 
ATOM     20  C   UNL     1     -13.458  -0.149  29.880  0.00  0.00    +0.024 C 
ENDBRANCH   3  11
ENDBRANCH  13   7
TORSDOF 5
ENDMDL
MODEL 8
REMARK VINA RESULT:      -6.2     29.842     32.253
REMARK  Name = 45783590
REMARK  7 active torsions:
REMARK  status: ('A' for Active; 'I' for Inactive)
REMARK    1  A    between atoms: O_1  and  C_12
REMARK    2  A    between atoms: O_1  and  C_22
REMARK    3  A    between atoms: N_3  and  C_11
REMARK    4  A    between atoms: C_7  and  C_13
REMARK    5  A    between atoms: C_11  and  C_19
REMARK    6  A    between atoms: C_11  and  C_20
REMARK    7  A    between atoms: C_21  and  C_23
REMARK                            x       y       z     vdW  Elec       q    Type
REMARK                         _______ _______ _______ _____ _____    ______ ____
ROOT
ATOM      2  O   UNL     1     -13.932  -5.984  13.126  0.00  0.00    -0.336 OA
ATOM      4  N   UNL     1     -11.973  -5.382  14.032  0.00  0.00    -0.190 NA
ATOM      5  N   UNL     1     -13.494  -7.083  13.875  0.00  0.00    -0.056 NA
ATOM     13  C   UNL     1     -12.978  -5.026  13.272  0.00  0.00    +0.245 A 
ATOM     21  C   UNL     1     -12.334  -6.651  14.378  0.00  0.00    +0.204 A 
ENDROOT
BRANCH  21  23
ATOM      6  N   UNL     1     -10.600  -9.637  15.754  0.00  0.00    -0.221 NA
ATOM     22  C   UNL     1      -9.966  -9.065  16.803  0.00  0.00    +0.215 A 
ATOM     23  C   UNL     1     -11.512  -7.461  15.228  0.00  0.00    +0.041 A 
ATOM     24  C   UNL     1     -10.055  -7.720  17.124  0.00  0.00    +0.068 A 
ATOM     25  C   UNL     1     -10.846  -6.910  16.317  0.00  0.00    +0.018 A 
ATOM     26  C   UNL     1     -11.357  -8.818  14.992  0.00  0.00    +0.126 A 
BRANCH  22   1
ATOM      1  O   UNL     1      -9.195  -9.885  17.584  0.00  0.00    -0.473 OA
BRANCH   1  12
ATOM     12  C   UNL     1      -7.797  -9.617  17.609  0.00  0.00    +0.175 C 
ATOM     14  C   UNL     1      -7.216  -9.798  16.208  0.00  0.00    +0.044 C 
ATOM     15  C   UNL     1      -7.117 -10.533  18.624  0.00  0.00    +0.044 C 
ATOM     16  C   UNL     1      -5.701  -9.617  16.201  0.00  0.00    +0.004 C 
ATOM     17  C   UNL     1      -5.602 -10.352  18.617  0.00  0.00    +0.004 C 
ATOM     18  C   UNL     1      -5.021 -10.531  17.217  0.00  0.00    +0.000 C 
ENDBRANCH   1  12
ENDBRANCH  22   1
ENDBRANCH  21  23
BRANCH  13   7
ATOM      3  N   UNL     1     -13.043  -3.723  11.082  0.00  0.00    -0.289 NA
ATOM      7  C   UNL     1     -13.222  -3.711  12.544  0.00  0.00    +0.146 C 
ATOM      8  C   UNL     1     -14.652  -3.169  12.671  0.00  0.00    +0.030 C 
ATOM      9  C   UNL     1     -14.294  -4.177  10.487  0.00  0.00    +0.085 C 
ATOM     10  C   UNL     1     -15.360  -3.544  11.369  0.00  0.00    +0.017 C 
BRANCH   3  11
ATOM     11  C   UNL     1     -11.872  -4.411  10.574  0.00  0.00    +0.051 C 
ATOM     19  C   UNL     1     -11.118  -3.517   9.593  0.00  0.00    +0.024 C 
ATOM     20  C   UNL     1     -12.298  -5.716   9.908  0.00  0.00    +0.024 C 
ENDBRANCH   3  11
ENDBRANCH  13   7
TORSDOF 5
ENDMDL
MODEL 9
REMARK VINA RESULT:      -6.2     27.838     30.842
REMARK  Name = 45783590
REMARK  7 active torsions:
REMARK  status: ('A' for Active; 'I' for Inactive)
REMARK    1  A    between atoms: O_1  and  C_12
REMARK    2  A    between atoms: O_1  and  C_22
REMARK    3  A    between atoms: N_3  and  C_11
REMARK    4  A    between atoms: C_7  and  C_13
REMARK    5  A    between atoms: C_11  and  C_19
REMARK    6  A    between atoms: C_11  and  C_20
REMARK    7  A    between atoms: C_21  and  C_23
REMARK                            x       y       z     vdW  Elec       q    Type
REMARK                         _______ _______ _______ _____ _____    ______ ____
ROOT
ATOM      2  O   UNL     1      -6.975 -11.519  20.267  0.00  0.00    -0.336 OA
ATOM      4  N   UNL     1      -7.276 -12.510  18.281  0.00  0.00    -0.190 NA
ATOM      5  N   UNL     1      -5.869 -11.166  19.484  0.00  0.00    -0.056 NA
ATOM     13  C   UNL     1      -7.754 -12.311  19.483  0.00  0.00    +0.245 A 
ATOM     21  C   UNL     1      -6.119 -11.789  18.328  0.00  0.00    +0.204 A 
ENDROOT
BRANCH  21  23
ATOM      6  N   UNL     1      -4.384 -12.710  15.173  0.00  0.00    -0.221 NA
ATOM     22  C   UNL     1      -3.576 -11.634  15.038  0.00  0.00    +0.215 A 
ATOM     23  C   UNL     1      -5.234 -11.712  17.203  0.00  0.00    +0.041 A 
ATOM     24  C   UNL     1      -3.540 -10.575  15.931  0.00  0.00    +0.068 A 
ATOM     25  C   UNL     1      -4.387 -10.623  17.032  0.00  0.00    +0.018 A 
ATOM     26  C   UNL     1      -5.194 -12.720  16.254  0.00  0.00    +0.126 A 
BRANCH  22   1
ATOM      1  O   UNL     1      -2.749 -11.612  13.947  0.00  0.00    -0.473 OA
BRANCH   1  12
ATOM     12  C   UNL     1      -2.915 -10.527  13.039  0.00  0.00    +0.175 C 
ATOM     14  C   UNL     1      -4.250 -10.669  12.311  0.00  0.00    +0.044 C 
ATOM     15  C   UNL     1      -1.741 -10.491  12.062  0.00  0.00    +0.044 C 
ATOM     16  C   UNL     1      -4.431  -9.582  11.255  0.00  0.00    +0.004 C 
ATOM     17  C   UNL     1      -1.922  -9.404  11.007  0.00  0.00    +0.004 C 
ATOM     18  C   UNL     1      -3.257  -9.545  10.280  0.00  0.00    +0.000 C 
ENDBRANCH   1  12
ENDBRANCH  22   1
ENDBRANCH  21  23
BRANCH  13   7
ATOM      3  N   UNL     1     -10.287 -12.160  19.719  0.00  0.00    -0.289 NA
ATOM      7  C   UNL     1      -9.038 -12.834  20.112  0.00  0.00    +0.146 C 
ATOM      8  C   UNL     1      -9.362 -14.296  19.775  0.00  0.00    +0.030 C 
ATOM      9  C   UNL     1     -10.752 -12.776  18.482  0.00  0.00    +0.085 C 
ATOM     10  C   UNL     1     -10.413 -14.248  18.665  0.00  0.00    +0.017 C 
BRANCH   3  11
ATOM     11  C   UNL     1     -10.261 -10.710  19.675  0.00  0.00    +0.051 C 
ATOM     19  C   UNL     1     -11.471 -10.137  20.408  0.00  0.00    +0.024 C 
ATOM     20  C   UNL     1     -10.230 -10.247  18.223  0.00  0.00    +0.024 C 
ENDBRANCH   3  11
ENDBRANCH  13   7
TORSDOF 5
ENDMDL
MODEL 10
REMARK VINA RESULT:      -6.1     28.833     32.573
REMARK  Name = 45783590
REMARK  7 active torsions:
REMARK  status: ('A' for Active; 'I' for Inactive)
REMARK    1  A    between atoms: O_1  and  C_12
REMARK    2  A    between atoms: O_1  and  C_22
REMARK    3  A    between atoms: N_3  and  C_11
REMARK    4  A    between atoms: C_7  and  C_13
REMARK    5  A    between atoms: C_11  and  C_19
REMARK    6  A    between atoms: C_11  and  C_20
REMARK    7  A    between atoms: C_21  and  C_23
REMARK                            x       y       z     vdW  Elec       q    Type
REMARK                         _______ _______ _______ _____ _____    ______ ____
ROOT
ATOM      2  O   UNL     1     -15.689   3.838  22.543  0.00  0.00    -0.336 OA
ATOM      4  N   UNL     1     -15.831   6.038  22.940  0.00  0.00    -0.190 NA
ATOM      5  N   UNL     1     -14.588   4.421  21.903  0.00  0.00    -0.056 NA
ATOM     13  C   UNL     1     -16.368   4.859  23.129  0.00  0.00    +0.245 A 
ATOM     21  C   UNL     1     -14.741   5.718  22.182  0.00  0.00    +0.204 A 
ENDROOT
BRANCH  21  23
ATOM      6  N   UNL     1     -13.351   9.056  21.322  0.00  0.00    -0.221 NA
ATOM     22  C   UNL     1     -12.139   8.681  20.855  0.00  0.00    +0.215 A 
ATOM     23  C   UNL     1     -13.827   6.720  21.720  0.00  0.00    +0.041 A 
ATOM     24  C   UNL     1     -11.706   7.367  20.789  0.00  0.00    +0.068 A 
ATOM     25  C   UNL     1     -12.572   6.373  21.230  0.00  0.00    +0.018 A 
ATOM     26  C   UNL     1     -14.165   8.064  21.744  0.00  0.00    +0.126 A 
BRANCH  22   1
ATOM      1  O   UNL     1     -11.305   9.679  20.424  0.00  0.00    -0.473 OA
BRANCH   1  12
ATOM     12  C   UNL     1     -11.345   9.992  19.035  0.00  0.00    +0.175 C 
ATOM     14  C   UNL     1     -10.075   9.481  18.358  0.00  0.00    +0.044 C 
ATOM     15  C   UNL     1     -11.512  11.500  18.855  0.00  0.00    +0.044 C 
ATOM     16  C   UNL     1     -10.026   9.878  16.886  0.00  0.00    +0.004 C 
ATOM     17  C   UNL     1     -11.463  11.897  17.382  0.00  0.00    +0.004 C 
ATOM     18  C   UNL     1     -10.195  11.385  16.705  0.00  0.00    +0.000 C 
ENDBRANCH   1  12
ENDBRANCH  22   1
ENDBRANCH  21  23
BRANCH  13   7
ATOM      3  N   UNL     1     -17.456   4.186  25.333  0.00  0.00    -0.289 NA
ATOM      7  C   UNL     1     -17.625   4.483  23.901  0.00  0.00    +0.146 C 
ATOM      8  C   UNL     1     -18.698   5.580  23.942  0.00  0.00    +0.030 C 
ATOM      9  C   UNL     1     -17.503   5.451  26.056  0.00  0.00    +0.085 C 
ATOM     10  C   UNL     1     -18.559   6.252  25.308  0.00  0.00    +0.017 C 
BRANCH   3  11
ATOM     11  C   UNL     1     -16.330   3.348  25.697  0.00  0.00    +0.051 C 
ATOM     19  C   UNL     1     -16.603   1.897  25.307  0.00  0.00    +0.024 C 
ATOM     20  C   UNL     1     -16.067   3.472  27.193  0.00  0.00    +0.024 C 
ENDBRANCH   3  11
ENDBRANCH  13   7
TORSDOF 5
ENDMDL
