MODEL 1
REMARK VINA RESULT:      -5.8      0.000      0.000
REMARK  Name = 45361365
REMARK  12 active torsions:
REMARK  status: ('A' for Active; 'I' for Inactive)
REMARK    1  A    between atoms: O_1  and  C_9
REMARK    2  A    between atoms: N_4  and  C_13
REMARK    3  A    between atoms: N_5  and  C_23
REMARK    4  A    between atoms: N_5  and  C_24
REMARK    5  A    between atoms: C_6  and  C_16
REMARK    6  A    between atoms: C_8  and  C_18
REMARK    7  A    between atoms: C_11  and  C_17
REMARK    8  A    between atoms: C_17  and  C_19
REMARK    9  A    between atoms: C_17  and  C_20
REMARK   10  A    between atoms: C_21  and  C_22
REMARK   11  A    between atoms: C_23  and  C_25
REMARK   12  A    between atoms: C_25  and  C_26
REMARK                            x       y       z     vdW  Elec       q    Type
REMARK                         _______ _______ _______ _____ _____    ______ ____
ROOT
ATOM      6  C   UNL     1       9.796   6.751   6.452  0.00  0.00    -0.027 C 
ATOM      7  C   UNL     1      10.447   7.660   5.358  0.00  0.00    +0.028 C 
ATOM      8  C   UNL     1      11.513   6.859   4.527  0.00  0.00    +0.012 C 
ATOM      9  C   UNL     1      10.945   9.004   5.964  0.00  0.00    +0.122 C 
ATOM     10  C   UNL     1       8.675   7.535   7.174  0.00  0.00    +0.007 C 
ATOM     11  C   UNL     1       9.847   9.733   6.773  0.00  0.00    +0.029 C 
ATOM     12  C   UNL     1       9.147   5.524   5.769  0.00  0.00    +0.009 C 
ATOM     13  C   UNL     1      10.868   5.588   3.907  0.00  0.00    +0.076 C 
ATOM     14  C   UNL     1       9.167   8.832   7.803  0.00  0.00    +0.007 C 
ATOM     15  C   UNL     1      10.129   4.722   4.927  0.00  0.00    +0.023 C 
ATOM     16  C   UNL     1      10.822   6.264   7.508  0.00  0.00    +0.011 C 
ATOM     18  C   UNL     1      12.174   7.687   3.411  0.00  0.00    +0.010 C 
ENDROOT
BRANCH  13   4
ATOM      3  O   UNL     1      10.474   3.968   1.530  0.00  0.00    -0.276 OA
ATOM      4  N   UNL     1      11.849   4.765   3.231  0.00  0.00    -0.312 N 
ATOM     21  C   UNL     1      11.561   4.026   2.098  0.00  0.00    +0.210 C 
ATOM     22  C   UNL     1      12.765   3.282   1.585  0.00  0.00    +0.109 C 
ATOM     32  H   UNL     1      12.772   4.687   3.646  0.00  0.00    +0.149 HD
ENDBRANCH  13   4
BRANCH   9   1
ATOM      1  O   UNL     1      11.331   9.889   4.911  0.00  0.00    -0.391 OA
ATOM     33  H   UNL     1      12.026  10.479   5.251  0.00  0.00    +0.210 HD
ENDBRANCH   9   1
BRANCH  11  17
ATOM     17  C   UNL     1      10.392  10.987   7.470  0.00  0.00    +0.078 C 
ATOM     19  C   UNL     1      11.157  10.578   8.729  0.00  0.00    +0.017 C 
BRANCH  17  20
ATOM      2  O   UNL     1       8.837  12.008   8.978  0.00  0.00    -0.275 OA
ATOM      5  N   UNL     1       8.664  12.666   6.767  0.00  0.00    -0.304 N 
ATOM     20  C   UNL     1       9.238  11.933   7.811  0.00  0.00    +0.219 C 
ATOM     24  C   UNL     1       7.548  13.560   7.055  0.00  0.00    +0.132 C 
BRANCH   5  23
ATOM     23  C   UNL     1       9.098  12.662   5.371  0.00  0.00    +0.112 C 
BRANCH  23  25
ATOM     25  C   UNL     1       7.964  12.327   4.406  0.00  0.00    +0.054 C 
BRANCH  25  26
ATOM     26  C   UNL     1       8.092  10.948   3.805  0.00  0.00    -0.046 A 
ATOM     27  C   UNL     1       7.354   9.888   4.330  0.00  0.00    +0.004 A 
ATOM     28  C   UNL     1       8.947  10.736   2.724  0.00  0.00    +0.004 A 
ATOM     29  C   UNL     1       7.472   8.614   3.774  0.00  0.00    +0.000 A 
ATOM     30  C   UNL     1       9.065   9.462   2.168  0.00  0.00    +0.000 A 
ATOM     31  C   UNL     1       8.328   8.400   2.693  0.00  0.00    +0.000 A 
ENDBRANCH  25  26
ENDBRANCH  23  25
ENDBRANCH   5  23
ENDBRANCH  17  20
ENDBRANCH  11  17
TORSDOF 7
ENDMDL
MODEL 2
REMARK VINA RESULT:      -5.5     26.994     29.227
REMARK  Name = 45361365
REMARK  12 active torsions:
REMARK  status: ('A' for Active; 'I' for Inactive)
REMARK    1  A    between atoms: O_1  and  C_9
REMARK    2  A    between atoms: N_4  and  C_13
REMARK    3  A    between atoms: N_5  and  C_23
REMARK    4  A    between atoms: N_5  and  C_24
REMARK    5  A    between atoms: C_6  and  C_16
REMARK    6  A    between atoms: C_8  and  C_18
REMARK    7  A    between atoms: C_11  and  C_17
REMARK    8  A    between atoms: C_17  and  C_19
REMARK    9  A    between atoms: C_17  and  C_20
REMARK   10  A    between atoms: C_21  and  C_22
REMARK   11  A    between atoms: C_23  and  C_25
REMARK   12  A    between atoms: C_25  and  C_26
REMARK                            x       y       z     vdW  Elec       q    Type
REMARK                         _______ _______ _______ _____ _____    ______ ____
ROOT
ATOM      6  C   UNL     1      -6.229 -11.595  18.975  0.00  0.00    -0.027 C 
ATOM      7  C   UNL     1      -6.708 -11.140  17.556  0.00  0.00    +0.028 C 
ATOM      8  C   UNL     1      -5.608 -10.269  16.848  0.00  0.00    +0.012 C 
ATOM      9  C   UNL     1      -8.127 -10.505  17.617  0.00  0.00    +0.122 C 
ATOM     10  C   UNL     1      -7.284 -12.541  19.596  0.00  0.00    +0.007 C 
ATOM     11  C   UNL     1      -9.154 -11.413  18.332  0.00  0.00    +0.029 C 
ATOM     12  C   UNL     1      -4.910 -12.391  18.831  0.00  0.00    +0.009 C 
ATOM     13  C   UNL     1      -4.266 -11.050  16.777  0.00  0.00    +0.076 C 
ATOM     14  C   UNL     1      -8.666 -11.908  19.693  0.00  0.00    +0.007 C 
ATOM     15  C   UNL     1      -3.813 -11.605  18.127  0.00  0.00    +0.023 C 
ATOM     16  C   UNL     1      -6.003 -10.402  19.937  0.00  0.00    +0.011 C 
ATOM     18  C   UNL     1      -6.003  -9.812  15.433  0.00  0.00    +0.010 C 
ENDROOT
BRANCH  13   4
ATOM      3  O   UNL     1      -2.125 -11.895  15.007  0.00  0.00    -0.276 OA
ATOM      4  N   UNL     1      -3.200 -10.235  16.235  0.00  0.00    -0.312 N 
ATOM     21  C   UNL     1      -2.221 -10.734  15.395  0.00  0.00    +0.210 C 
ATOM     22  C   UNL     1      -1.251  -9.669  14.959  0.00  0.00    +0.109 C 
ATOM     32  H   UNL     1      -3.141  -9.267  16.535  0.00  0.00    +0.149 HD
ENDBRANCH  13   4
BRANCH   9   1
ATOM      1  O   UNL     1      -8.616 -10.303  16.290  0.00  0.00    -0.391 OA
ATOM     33  H   UNL     1      -8.714  -9.345  16.146  0.00  0.00    +0.210 HD
ENDBRANCH   9   1
BRANCH  11  17
ATOM     17  C   UNL     1     -10.511 -10.716  18.497  0.00  0.00    +0.078 C 
ATOM     19  C   UNL     1     -10.689 -10.286  19.954  0.00  0.00    +0.017 C 
BRANCH  17  20
ATOM      2  O   UNL     1     -11.400 -12.868  17.935  0.00  0.00    -0.275 OA
ATOM      5  N   UNL     1     -12.891 -11.104  17.802  0.00  0.00    -0.304 N 
ATOM     20  C   UNL     1     -11.634 -11.661  18.062  0.00  0.00    +0.219 C 
ATOM     24  C   UNL     1     -13.978 -11.974  17.364  0.00  0.00    +0.132 C 
BRANCH   5  23
ATOM     23  C   UNL     1     -13.260  -9.698  17.960  0.00  0.00    +0.112 C 
BRANCH  23  25
ATOM     25  C   UNL     1     -13.605  -9.030  16.632  0.00  0.00    +0.054 C 
BRANCH  25  26
ATOM     26  C   UNL     1     -12.623  -7.952  16.243  0.00  0.00    -0.046 A 
ATOM     27  C   UNL     1     -13.052  -6.853  15.500  0.00  0.00    +0.004 A 
ATOM     28  C   UNL     1     -11.286  -8.056  16.627  0.00  0.00    +0.004 A 
ATOM     29  C   UNL     1     -12.144  -5.857  15.141  0.00  0.00    +0.000 A 
ATOM     30  C   UNL     1     -10.378  -7.060  16.268  0.00  0.00    +0.000 A 
ATOM     31  C   UNL     1     -10.807  -5.960  15.525  0.00  0.00    +0.000 A 
ENDBRANCH  25  26
ENDBRANCH  23  25
ENDBRANCH   5  23
ENDBRANCH  17  20
ENDBRANCH  11  17
TORSDOF 7
ENDMDL
MODEL 3
REMARK VINA RESULT:      -5.5     23.870     26.596
REMARK  Name = 45361365
REMARK  12 active torsions:
REMARK  status: ('A' for Active; 'I' for Inactive)
REMARK    1  A    between atoms: O_1  and  C_9
REMARK    2  A    between atoms: N_4  and  C_13
REMARK    3  A    between atoms: N_5  and  C_23
REMARK    4  A    between atoms: N_5  and  C_24
REMARK    5  A    between atoms: C_6  and  C_16
REMARK    6  A    between atoms: C_8  and  C_18
REMARK    7  A    between atoms: C_11  and  C_17
REMARK    8  A    between atoms: C_17  and  C_19
REMARK    9  A    between atoms: C_17  and  C_20
REMARK   10  A    between atoms: C_21  and  C_22
REMARK   11  A    between atoms: C_23  and  C_25
REMARK   12  A    between atoms: C_25  and  C_26
REMARK                            x       y       z     vdW  Elec       q    Type
REMARK                         _______ _______ _______ _____ _____    ______ ____
ROOT
ATOM      6  C   UNL     1      -5.428 -11.170  17.690  0.00  0.00    -0.027 C 
ATOM      7  C   UNL     1      -5.990 -10.340  16.489  0.00  0.00    +0.028 C 
ATOM      8  C   UNL     1      -7.561 -10.372  16.474  0.00  0.00    +0.012 C 
ATOM      9  C   UNL     1      -5.301 -10.742  15.153  0.00  0.00    +0.122 C 
ATOM     10  C   UNL     1      -3.888 -11.025  17.742  0.00  0.00    +0.007 C 
ATOM     11  C   UNL     1      -3.758 -10.695  15.243  0.00  0.00    +0.029 C 
ATOM     12  C   UNL     1      -5.999 -10.599  19.010  0.00  0.00    +0.009 C 
ATOM     13  C   UNL     1      -8.123  -9.867  17.833  0.00  0.00    +0.076 C 
ATOM     14  C   UNL     1      -3.208 -11.455  16.449  0.00  0.00    +0.007 C 
ATOM     15  C   UNL     1      -7.520 -10.581  19.042  0.00  0.00    +0.023 C 
ATOM     16  C   UNL     1      -5.782 -12.676  17.590  0.00  0.00    +0.011 C 
ATOM     18  C   UNL     1      -8.183  -9.549  15.333  0.00  0.00    +0.010 C 
ENDROOT
BRANCH  13   4
ATOM      3  O   UNL     1     -10.090  -7.745  17.600  0.00  0.00    -0.276 OA
ATOM      4  N   UNL     1      -9.563  -9.993  17.897  0.00  0.00    -0.312 N 
ATOM     21  C   UNL     1     -10.421  -8.915  17.774  0.00  0.00    +0.210 C 
ATOM     22  C   UNL     1     -11.867  -9.328  17.853  0.00  0.00    +0.109 C 
ATOM     32  H   UNL     1      -9.953 -10.909  18.099  0.00  0.00    +0.149 HD
ENDBRANCH  13   4
BRANCH   9   1
ATOM      1  O   UNL     1      -5.679  -9.824  14.126  0.00  0.00    -0.391 OA
ATOM     33  H   UNL     1      -6.631  -9.931  13.959  0.00  0.00    +0.210 HD
ENDBRANCH   9   1
BRANCH  11  17
ATOM     17  C   UNL     1      -3.097 -11.219  13.961  0.00  0.00    +0.078 C 
ATOM     19  C   UNL     1      -2.601 -12.648  14.191  0.00  0.00    +0.017 C 
BRANCH  17  20
ATOM      2  O   UNL     1      -1.179  -9.863  14.426  0.00  0.00    -0.275 OA
ATOM      5  N   UNL     1      -1.820  -9.961  12.206  0.00  0.00    -0.304 N 
ATOM     20  C   UNL     1      -1.945 -10.296  13.558  0.00  0.00    +0.219 C 
ATOM     24  C   UNL     1      -0.745  -9.065  11.791  0.00  0.00    +0.132 C 
BRANCH   5  23
ATOM     23  C   UNL     1      -2.658 -10.455  11.114  0.00  0.00    +0.112 C 
BRANCH  23  25
ATOM     25  C   UNL     1      -2.957  -9.381  10.072  0.00  0.00    +0.054 C 
BRANCH  25  26
ATOM     26  C   UNL     1      -4.428  -9.259   9.759  0.00  0.00    -0.046 A 
ATOM     27  C   UNL     1      -5.329  -8.911  10.766  0.00  0.00    +0.004 A 
ATOM     28  C   UNL     1      -4.887  -9.495   8.463  0.00  0.00    +0.004 A 
ATOM     29  C   UNL     1      -6.689  -8.798  10.476  0.00  0.00    +0.000 A 
ATOM     30  C   UNL     1      -6.247  -9.382   8.173  0.00  0.00    +0.000 A 
ATOM     31  C   UNL     1      -7.148  -9.033   9.180  0.00  0.00    +0.000 A 
ENDBRANCH  25  26
ENDBRANCH  23  25
ENDBRANCH   5  23
ENDBRANCH  17  20
ENDBRANCH  11  17
TORSDOF 7
ENDMDL
MODEL 4
REMARK VINA RESULT:      -5.5      2.214      7.367
REMARK  Name = 45361365
REMARK  12 active torsions:
REMARK  status: ('A' for Active; 'I' for Inactive)
REMARK    1  A    between atoms: O_1  and  C_9
REMARK    2  A    between atoms: N_4  and  C_13
REMARK    3  A    between atoms: N_5  and  C_23
REMARK    4  A    between atoms: N_5  and  C_24
REMARK    5  A    between atoms: C_6  and  C_16
REMARK    6  A    between atoms: C_8  and  C_18
REMARK    7  A    between atoms: C_11  and  C_17
REMARK    8  A    between atoms: C_17  and  C_19
REMARK    9  A    between atoms: C_17  and  C_20
REMARK   10  A    between atoms: C_21  and  C_22
REMARK   11  A    between atoms: C_23  and  C_25
REMARK   12  A    between atoms: C_25  and  C_26
REMARK                            x       y       z     vdW  Elec       q    Type
REMARK                         _______ _______ _______ _____ _____    ______ ____
ROOT
ATOM      6  C   UNL     1       9.507   6.237   6.065  0.00  0.00    -0.027 C 
ATOM      7  C   UNL     1      10.431   7.419   5.620  0.00  0.00    +0.028 C 
ATOM      8  C   UNL     1       9.884   8.789   6.162  0.00  0.00    +0.012 C 
ATOM      9  C   UNL     1      10.714   7.371   4.091  0.00  0.00    +0.122 C 
ATOM     10  C   UNL     1      10.134   4.896   5.613  0.00  0.00    +0.007 C 
ATOM     11  C   UNL     1      11.242   5.993   3.629  0.00  0.00    +0.029 C 
ATOM     12  C   UNL     1       9.419   6.218   7.609  0.00  0.00    +0.009 C 
ATOM     13  C   UNL     1       9.728   8.733   7.708  0.00  0.00    +0.076 C 
ATOM     14  C   UNL     1      10.376   4.830   4.111  0.00  0.00    +0.007 C 
ATOM     15  C   UNL     1       8.919   7.531   8.194  0.00  0.00    +0.023 C 
ATOM     16  C   UNL     1       8.079   6.343   5.473  0.00  0.00    +0.011 C 
ATOM     18  C   UNL     1      10.762   9.995   5.786  0.00  0.00    +0.010 C 
ENDROOT
BRANCH  13   4
ATOM      3  O   UNL     1      10.973  10.770   9.360  0.00  0.00    -0.276 OA
ATOM      4  N   UNL     1       9.117   9.937   8.229  0.00  0.00    -0.312 N 
ATOM     21  C   UNL     1       9.798  10.852   9.011  0.00  0.00    +0.210 C 
ATOM     22  C   UNL     1       8.935  12.024   9.396  0.00  0.00    +0.109 C 
ATOM     32  H   UNL     1       8.127  10.082   8.055  0.00  0.00    +0.149 HD
ENDBRANCH  13   4
BRANCH   9   1
ATOM      1  O   UNL     1      11.723   8.326   3.762  0.00  0.00    -0.391 OA
ATOM     33  H   UNL     1      11.637   9.080   4.371  0.00  0.00    +0.210 HD
ENDBRANCH   9   1
BRANCH  11  17
ATOM     17  C   UNL     1      11.390   5.923   2.103  0.00  0.00    +0.078 C 
ATOM     19  C   UNL     1      10.053   5.520   1.479  0.00  0.00    +0.017 C 
BRANCH  17  20
ATOM      2  O   UNL     1      12.185   3.773   1.413  0.00  0.00    -0.275 OA
ATOM      5  N   UNL     1      13.817   5.366   1.799  0.00  0.00    -0.304 N 
ATOM     20  C   UNL     1      12.491   4.926   1.734  0.00  0.00    +0.219 C 
ATOM     24  C   UNL     1      14.892   4.433   1.474  0.00  0.00    +0.132 C 
BRANCH   5  23
ATOM     23  C   UNL     1      14.262   6.718   2.134  0.00  0.00    +0.112 C 
BRANCH  23  25
ATOM     25  C   UNL     1      15.301   6.732   3.253  0.00  0.00    +0.054 C 
BRANCH  25  26
ATOM     26  C   UNL     1      14.916   7.634   4.400  0.00  0.00    -0.046 A 
ATOM     27  C   UNL     1      14.346   7.092   5.552  0.00  0.00    +0.004 A 
ATOM     28  C   UNL     1      15.130   9.009   4.308  0.00  0.00    +0.004 A 
ATOM     29  C   UNL     1      13.991   7.926   6.612  0.00  0.00    +0.000 A 
ATOM     30  C   UNL     1      14.775   9.843   5.368  0.00  0.00    +0.000 A 
ATOM     31  C   UNL     1      14.205   9.301   6.521  0.00  0.00    +0.000 A 
ENDBRANCH  25  26
ENDBRANCH  23  25
ENDBRANCH   5  23
ENDBRANCH  17  20
ENDBRANCH  11  17
TORSDOF 7
ENDMDL
MODEL 5
REMARK VINA RESULT:      -5.5     26.663     29.479
REMARK  Name = 45361365
REMARK  12 active torsions:
REMARK  status: ('A' for Active; 'I' for Inactive)
REMARK    1  A    between atoms: O_1  and  C_9
REMARK    2  A    between atoms: N_4  and  C_13
REMARK    3  A    between atoms: N_5  and  C_23
REMARK    4  A    between atoms: N_5  and  C_24
REMARK    5  A    between atoms: C_6  and  C_16
REMARK    6  A    between atoms: C_8  and  C_18
REMARK    7  A    between atoms: C_11  and  C_17
REMARK    8  A    between atoms: C_17  and  C_19
REMARK    9  A    between atoms: C_17  and  C_20
REMARK   10  A    between atoms: C_21  and  C_22
REMARK   11  A    between atoms: C_23  and  C_25
REMARK   12  A    between atoms: C_25  and  C_26
REMARK                            x       y       z     vdW  Elec       q    Type
REMARK                         _______ _______ _______ _____ _____    ______ ____
ROOT
ATOM      6  C   UNL     1      -9.270 -12.077  15.419  0.00  0.00    -0.027 C 
ATOM      7  C   UNL     1      -8.806 -10.843  16.263  0.00  0.00    +0.028 C 
ATOM      8  C   UNL     1     -10.043 -10.062  16.836  0.00  0.00    +0.012 C 
ATOM      9  C   UNL     1      -7.775  -9.980  15.481  0.00  0.00    +0.122 C 
ATOM     10  C   UNL     1      -8.031 -12.886  14.966  0.00  0.00    +0.007 C 
ATOM     11  C   UNL     1      -6.590 -10.815  14.941  0.00  0.00    +0.029 C 
ATOM     12  C   UNL     1     -10.135 -13.000  16.309  0.00  0.00    +0.009 C 
ATOM     13  C   UNL     1     -10.946 -11.017  17.666  0.00  0.00    +0.076 C 
ATOM     14  C   UNL     1      -7.038 -12.054  14.166  0.00  0.00    +0.007 C 
ATOM     15  C   UNL     1     -11.337 -12.289  16.914  0.00  0.00    +0.023 C 
ATOM     16  C   UNL     1     -10.082 -11.667  14.165  0.00  0.00    +0.011 C 
ATOM     18  C   UNL     1      -9.658  -8.850  17.703  0.00  0.00    +0.010 C 
ENDROOT
BRANCH  13   4
ATOM      3  O   UNL     1     -12.131 -11.111  20.315  0.00  0.00    -0.276 OA
ATOM      4  N   UNL     1     -12.155 -10.359  18.113  0.00  0.00    -0.312 N 
ATOM     21  C   UNL     1     -12.641 -10.466  19.403  0.00  0.00    +0.210 C 
ATOM     22  C   UNL     1     -13.897  -9.662  19.605  0.00  0.00    +0.109 C 
ATOM     32  H   UNL     1     -12.697  -9.842  17.426  0.00  0.00    +0.149 HD
ENDBRANCH  13   4
BRANCH   9   1
ATOM      1  O   UNL     1      -7.216  -8.996  16.354  0.00  0.00    -0.391 OA
ATOM     33  H   UNL     1      -6.700  -9.457  17.038  0.00  0.00    +0.210 HD
ENDBRANCH   9   1
BRANCH  11  17
ATOM     17  C   UNL     1      -5.654  -9.973  14.064  0.00  0.00    +0.078 C 
ATOM     19  C   UNL     1      -6.294  -9.764  12.690  0.00  0.00    +0.017 C 
BRANCH  17  20
ATOM      2  O   UNL     1      -3.930 -11.094  12.837  0.00  0.00    -0.275 OA
ATOM      5  N   UNL     1      -3.528 -10.814  15.097  0.00  0.00    -0.304 N 
ATOM     20  C   UNL     1      -4.297 -10.669  13.938  0.00  0.00    +0.219 C 
ATOM     24  C   UNL     1      -2.238 -11.492  15.016  0.00  0.00    +0.132 C 
BRANCH   5  23
ATOM     23  C   UNL     1      -3.870 -10.311  16.427  0.00  0.00    +0.112 C 
BRANCH  23  25
ATOM     25  C   UNL     1      -3.849 -11.405  17.491  0.00  0.00    +0.054 C 
BRANCH  25  26
ATOM     26  C   UNL     1      -5.188 -11.602  18.158  0.00  0.00    -0.046 A 
ATOM     27  C   UNL     1      -5.883 -12.799  17.986  0.00  0.00    +0.004 A 
ATOM     28  C   UNL     1      -5.730 -10.587  18.946  0.00  0.00    +0.004 A 
ATOM     29  C   UNL     1      -7.121 -12.981  18.603  0.00  0.00    +0.000 A 
ATOM     30  C   UNL     1      -6.968 -10.769  19.563  0.00  0.00    +0.000 A 
ATOM     31  C   UNL     1      -7.664 -11.966  19.392  0.00  0.00    +0.000 A 
ENDBRANCH  25  26
ENDBRANCH  23  25
ENDBRANCH   5  23
ENDBRANCH  17  20
ENDBRANCH  11  17
TORSDOF 7
ENDMDL
MODEL 6
REMARK VINA RESULT:      -5.4      3.327      6.562
REMARK  Name = 45361365
REMARK  12 active torsions:
REMARK  status: ('A' for Active; 'I' for Inactive)
REMARK    1  A    between atoms: O_1  and  C_9
REMARK    2  A    between atoms: N_4  and  C_13
REMARK    3  A    between atoms: N_5  and  C_23
REMARK    4  A    between atoms: N_5  and  C_24
REMARK    5  A    between atoms: C_6  and  C_16
REMARK    6  A    between atoms: C_8  and  C_18
REMARK    7  A    between atoms: C_11  and  C_17
REMARK    8  A    between atoms: C_17  and  C_19
REMARK    9  A    between atoms: C_17  and  C_20
REMARK   10  A    between atoms: C_21  and  C_22
REMARK   11  A    between atoms: C_23  and  C_25
REMARK   12  A    between atoms: C_25  and  C_26
REMARK                            x       y       z     vdW  Elec       q    Type
REMARK                         _______ _______ _______ _____ _____    ______ ____
ROOT
ATOM      6  C   UNL     1       9.918   7.777   4.297  0.00  0.00    -0.027 C 
ATOM      7  C   UNL     1      11.159   7.097   4.965  0.00  0.00    +0.028 C 
ATOM      8  C   UNL     1      10.919   6.884   6.503  0.00  0.00    +0.012 C 
ATOM      9  C   UNL     1      12.476   7.834   4.589  0.00  0.00    +0.122 C 
ATOM     10  C   UNL     1      10.140   7.868   2.768  0.00  0.00    +0.007 C 
ATOM     11  C   UNL     1      12.642   8.014   3.062  0.00  0.00    +0.029 C 
ATOM     12  C   UNL     1       8.668   6.897   4.539  0.00  0.00    +0.009 C 
ATOM     13  C   UNL     1       9.620   6.063   6.737  0.00  0.00    +0.076 C 
ATOM     14  C   UNL     1      11.409   8.623   2.397  0.00  0.00    +0.007 C 
ATOM     15  C   UNL     1       8.401   6.635   6.014  0.00  0.00    +0.023 C 
ATOM     16  C   UNL     1       9.653   9.201   4.847  0.00  0.00    +0.011 C 
ATOM     18  C   UNL     1      12.091   6.191   7.219  0.00  0.00    +0.010 C 
ENDROOT
BRANCH  13   4
ATOM      3  O   UNL     1       9.717   3.668   8.375  0.00  0.00    -0.276 OA
ATOM      4  N   UNL     1       9.305   5.947   8.145  0.00  0.00    -0.312 N 
ATOM     21  C   UNL     1       9.382   4.754   8.840  0.00  0.00    +0.210 C 
ATOM     22  C   UNL     1       9.027   4.920  10.294  0.00  0.00    +0.109 C 
ATOM     32  H   UNL     1       8.958   6.772   8.625  0.00  0.00    +0.149 HD
ENDBRANCH  13   4
BRANCH   9   1
ATOM      1  O   UNL     1      13.596   7.066   5.034  0.00  0.00    -0.391 OA
ATOM     33  H   UNL     1      14.271   7.682   5.369  0.00  0.00    +0.210 HD
ENDBRANCH   9   1
BRANCH  11  17
ATOM     17  C   UNL     1      13.878   8.856   2.720  0.00  0.00    +0.078 C 
ATOM     19  C   UNL     1      13.677  10.285   3.225  0.00  0.00    +0.017 C 
BRANCH  17  20
ATOM      2  O   UNL     1      13.913   9.859   0.546  0.00  0.00    -0.275 OA
ATOM      5  N   UNL     1      14.539   7.634   0.630  0.00  0.00    -0.304 N 
ATOM     20  C   UNL     1      14.116   8.835   1.208  0.00  0.00    +0.219 C 
ATOM     24  C   UNL     1      14.753   7.575  -0.812  0.00  0.00    +0.132 C 
BRANCH   5  23
ATOM     23  C   UNL     1      14.835   6.392   1.343  0.00  0.00    +0.112 C 
BRANCH  23  25
ATOM     25  C   UNL     1      14.257   5.164   0.644  0.00  0.00    +0.054 C 
BRANCH  25  26
ATOM     26  C   UNL     1      12.804   4.928   0.976  0.00  0.00    -0.046 A 
ATOM     27  C   UNL     1      12.448   4.432   2.230  0.00  0.00    +0.004 A 
ATOM     28  C   UNL     1      11.819   5.205   0.030  0.00  0.00    +0.004 A 
ATOM     29  C   UNL     1      11.104   4.214   2.537  0.00  0.00    +0.000 A 
ATOM     30  C   UNL     1      10.475   4.987   0.337  0.00  0.00    +0.000 A 
ATOM     31  C   UNL     1      10.118   4.491   1.591  0.00  0.00    +0.000 A 
ENDBRANCH  25  26
ENDBRANCH  23  25
ENDBRANCH   5  23
ENDBRANCH  17  20
ENDBRANCH  11  17
TORSDOF 7
ENDMDL
MODEL 7
REMARK VINA RESULT:      -5.4      4.206      8.650
REMARK  Name = 45361365
REMARK  12 active torsions:
REMARK  status: ('A' for Active; 'I' for Inactive)
REMARK    1  A    between atoms: O_1  and  C_9
REMARK    2  A    between atoms: N_4  and  C_13
REMARK    3  A    between atoms: N_5  and  C_23
REMARK    4  A    between atoms: N_5  and  C_24
REMARK    5  A    between atoms: C_6  and  C_16
REMARK    6  A    between atoms: C_8  and  C_18
REMARK    7  A    between atoms: C_11  and  C_17
REMARK    8  A    between atoms: C_17  and  C_19
REMARK    9  A    between atoms: C_17  and  C_20
REMARK   10  A    between atoms: C_21  and  C_22
REMARK   11  A    between atoms: C_23  and  C_25
REMARK   12  A    between atoms: C_25  and  C_26
REMARK                            x       y       z     vdW  Elec       q    Type
REMARK                         _______ _______ _______ _____ _____    ______ ____
ROOT
ATOM      6  C   UNL     1      10.683   6.004   2.596  0.00  0.00    -0.027 C 
ATOM      7  C   UNL     1      11.904   6.621   1.836  0.00  0.00    +0.028 C 
ATOM      8  C   UNL     1      12.519   7.818   2.646  0.00  0.00    +0.012 C 
ATOM      9  C   UNL     1      11.549   6.929   0.353  0.00  0.00    +0.122 C 
ATOM     10  C   UNL     1      10.173   4.760   1.829  0.00  0.00    +0.007 C 
ATOM     11  C   UNL     1      10.943   5.709  -0.379  0.00  0.00    +0.029 C 
ATOM     12  C   UNL     1      11.143   5.537   3.997  0.00  0.00    +0.009 C 
ATOM     13  C   UNL     1      12.909   7.356   4.078  0.00  0.00    +0.076 C 
ATOM     14  C   UNL     1       9.787   5.067   0.389  0.00  0.00    +0.007 C 
ATOM     15  C   UNL     1      11.772   6.652   4.820  0.00  0.00    +0.023 C 
ATOM     16  C   UNL     1       9.512   7.007   2.751  0.00  0.00    +0.011 C 
ATOM     18  C   UNL     1      13.746   8.454   1.968  0.00  0.00    +0.010 C 
ENDROOT
BRANCH  13   4
ATOM      3  O   UNL     1      15.142   7.368   5.933  0.00  0.00    -0.276 OA
ATOM      4  N   UNL     1      13.371   8.461   4.891  0.00  0.00    -0.312 N 
ATOM     21  C   UNL     1      14.451   8.367   5.749  0.00  0.00    +0.210 C 
ATOM     22  C   UNL     1      14.733   9.667   6.452  0.00  0.00    +0.109 C 
ATOM     32  H   UNL     1      12.838   9.325   4.867  0.00  0.00    +0.149 HD
ENDBRANCH  13   4
BRANCH   9   1
ATOM      1  O   UNL     1      12.736   7.283  -0.358  0.00  0.00    -0.391 OA
ATOM     33  H   UNL     1      12.542   7.240  -1.311  0.00  0.00    +0.210 HD
ENDBRANCH   9   1
BRANCH  11  17
ATOM     17  C   UNL     1      10.479   6.069  -1.797  0.00  0.00    +0.078 C 
ATOM     19  C   UNL     1       9.098   6.724  -1.730  0.00  0.00    +0.017 C 
BRANCH  17  20
ATOM      2  O   UNL     1       9.380   4.213  -2.837  0.00  0.00    -0.275 OA
ATOM      5  N   UNL     1      11.655   4.372  -3.222  0.00  0.00    -0.304 N 
ATOM     20  C   UNL     1      10.449   4.810  -2.667  0.00  0.00    +0.219 C 
ATOM     24  C   UNL     1      11.665   3.162  -4.039  0.00  0.00    +0.132 C 
BRANCH   5  23
ATOM     23  C   UNL     1      12.952   5.036  -3.100  0.00  0.00    +0.112 C 
BRANCH  23  25
ATOM     25  C   UNL     1      14.042   4.102  -2.579  0.00  0.00    +0.054 C 
BRANCH  25  26
ATOM     26  C   UNL     1      14.062   4.004  -1.074  0.00  0.00    -0.046 A 
ATOM     27  C   UNL     1      13.156   3.170  -0.417  0.00  0.00    +0.004 A 
ATOM     28  C   UNL     1      14.985   4.746  -0.339  0.00  0.00    +0.004 A 
ATOM     29  C   UNL     1      13.175   3.079   0.974  0.00  0.00    +0.000 A 
ATOM     30  C   UNL     1      15.005   4.655   1.053  0.00  0.00    +0.000 A 
ATOM     31  C   UNL     1      14.099   3.822   1.710  0.00  0.00    +0.000 A 
ENDBRANCH  25  26
ENDBRANCH  23  25
ENDBRANCH   5  23
ENDBRANCH  17  20
ENDBRANCH  11  17
TORSDOF 7
ENDMDL
MODEL 8
REMARK VINA RESULT:      -5.4     11.970     15.744
REMARK  Name = 45361365
REMARK  12 active torsions:
REMARK  status: ('A' for Active; 'I' for Inactive)
REMARK    1  A    between atoms: O_1  and  C_9
REMARK    2  A    between atoms: N_4  and  C_13
REMARK    3  A    between atoms: N_5  and  C_23
REMARK    4  A    between atoms: N_5  and  C_24
REMARK    5  A    between atoms: C_6  and  C_16
REMARK    6  A    between atoms: C_8  and  C_18
REMARK    7  A    between atoms: C_11  and  C_17
REMARK    8  A    between atoms: C_17  and  C_19
REMARK    9  A    between atoms: C_17  and  C_20
REMARK   10  A    between atoms: C_21  and  C_22
REMARK   11  A    between atoms: C_23  and  C_25
REMARK   12  A    between atoms: C_25  and  C_26
REMARK                            x       y       z     vdW  Elec       q    Type
REMARK                         _______ _______ _______ _____ _____    ______ ____
ROOT
ATOM      6  C   UNL     1      12.516   8.891  17.929  0.00  0.00    -0.027 C 
ATOM      7  C   UNL     1      12.929  10.343  18.341  0.00  0.00    +0.028 C 
ATOM      8  C   UNL     1      14.190  10.815  17.532  0.00  0.00    +0.012 C 
ATOM      9  C   UNL     1      13.036  10.482  19.887  0.00  0.00    +0.122 C 
ATOM     10  C   UNL     1      11.208   8.500  18.659  0.00  0.00    +0.007 C 
ATOM     11  C   UNL     1      11.764   9.992  20.617  0.00  0.00    +0.029 C 
ATOM     12  C   UNL     1      12.233   8.859  16.409  0.00  0.00    +0.009 C 
ATOM     13  C   UNL     1      13.922  10.707  16.005  0.00  0.00    +0.076 C 
ATOM     14  C   UNL     1      11.322   8.597  20.174  0.00  0.00    +0.007 C 
ATOM     15  C   UNL     1      13.413   9.332  15.573  0.00  0.00    +0.023 C 
ATOM     16  C   UNL     1      13.606   7.844  18.268  0.00  0.00    +0.011 C 
ATOM     18  C   UNL     1      14.634  12.250  17.868  0.00  0.00    +0.010 C 
ENDROOT
BRANCH  13   4
ATOM      3  O   UNL     1      14.026  11.866  13.345  0.00  0.00    -0.276 OA
ATOM      4  N   UNL     1      15.102  11.024  15.229  0.00  0.00    -0.312 N 
ATOM     21  C   UNL     1      15.047  11.578  13.963  0.00  0.00    +0.210 C 
ATOM     22  C   UNL     1      16.418  11.830  13.394  0.00  0.00    +0.109 C 
ATOM     32  H   UNL     1      16.007  10.774  15.616  0.00  0.00    +0.149 HD
ENDBRANCH  13   4
BRANCH   9   1
ATOM      1  O   UNL     1      13.200  11.858  20.233  0.00  0.00    -0.391 OA
ATOM     33  H   UNL     1      12.413  12.142  20.729  0.00  0.00    +0.210 HD
ENDBRANCH   9   1
BRANCH  11  17
ATOM     17  C   UNL     1      11.938  10.014  22.142  0.00  0.00    +0.078 C 
ATOM     19  C   UNL     1      10.774   9.271  22.799  0.00  0.00    +0.017 C 
BRANCH  17  20
ATOM      2  O   UNL     1      11.083  12.237  22.388  0.00  0.00    -0.275 OA
ATOM      5  N   UNL     1      13.160  11.855  23.331  0.00  0.00    -0.304 N 
ATOM     20  C   UNL     1      12.014  11.461  22.633  0.00  0.00    +0.219 C 
ATOM     24  C   UNL     1      13.273  13.234  23.795  0.00  0.00    +0.132 C 
BRANCH   5  23
ATOM     23  C   UNL     1      14.286  10.995  23.693  0.00  0.00    +0.112 C 
BRANCH  23  25
ATOM     25  C   UNL     1      15.418  11.051  22.670  0.00  0.00    +0.054 C 
BRANCH  25  26
ATOM     26  C   UNL     1      15.686   9.718  22.015  0.00  0.00    -0.046 A 
ATOM     27  C   UNL     1      16.712   9.595  21.079  0.00  0.00    +0.004 A 
ATOM     28  C   UNL     1      14.907   8.610  22.347  0.00  0.00    +0.004 A 
ATOM     29  C   UNL     1      16.959   8.363  20.474  0.00  0.00    +0.000 A 
ATOM     30  C   UNL     1      15.154   7.378  21.742  0.00  0.00    +0.000 A 
ATOM     31  C   UNL     1      16.180   7.254  20.805  0.00  0.00    +0.000 A 
ENDBRANCH  25  26
ENDBRANCH  23  25
ENDBRANCH   5  23
ENDBRANCH  17  20
ENDBRANCH  11  17
TORSDOF 7
ENDMDL
MODEL 9
REMARK VINA RESULT:      -5.4      2.869      4.754
REMARK  Name = 45361365
REMARK  12 active torsions:
REMARK  status: ('A' for Active; 'I' for Inactive)
REMARK    1  A    between atoms: O_1  and  C_9
REMARK    2  A    between atoms: N_4  and  C_13
REMARK    3  A    between atoms: N_5  and  C_23
REMARK    4  A    between atoms: N_5  and  C_24
REMARK    5  A    between atoms: C_6  and  C_16
REMARK    6  A    between atoms: C_8  and  C_18
REMARK    7  A    between atoms: C_11  and  C_17
REMARK    8  A    between atoms: C_17  and  C_19
REMARK    9  A    between atoms: C_17  and  C_20
REMARK   10  A    between atoms: C_21  and  C_22
REMARK   11  A    between atoms: C_23  and  C_25
REMARK   12  A    between atoms: C_25  and  C_26
REMARK                            x       y       z     vdW  Elec       q    Type
REMARK                         _______ _______ _______ _____ _____    ______ ____
ROOT
ATOM      6  C   UNL     1      13.278   7.475   2.362  0.00  0.00    -0.027 C 
ATOM      7  C   UNL     1      12.465   6.272   2.947  0.00  0.00    +0.028 C 
ATOM      8  C   UNL     1      11.565   5.616   1.839  0.00  0.00    +0.012 C 
ATOM      9  C   UNL     1      11.728   6.673   4.257  0.00  0.00    +0.122 C 
ATOM     10  C   UNL     1      14.236   8.025   3.446  0.00  0.00    +0.007 C 
ATOM     11  C   UNL     1      12.673   7.319   5.297  0.00  0.00    +0.029 C 
ATOM     12  C   UNL     1      14.142   6.974   1.181  0.00  0.00    +0.009 C 
ATOM     13  C   UNL     1      12.433   5.184   0.625  0.00  0.00    +0.076 C 
ATOM     14  C   UNL     1      13.512   8.456   4.715  0.00  0.00    +0.007 C 
ATOM     15  C   UNL     1      13.325   6.303   0.087  0.00  0.00    +0.023 C 
ATOM     16  C   UNL     1      12.365   8.628   1.873  0.00  0.00    +0.011 C 
ATOM     18  C   UNL     1      10.758   4.405   2.340  0.00  0.00    +0.010 C 
ENDROOT
BRANCH  13   4
ATOM      3  O   UNL     1      12.926   2.828  -1.000  0.00  0.00    -0.276 OA
ATOM      4  N   UNL     1      11.622   4.681  -0.463  0.00  0.00    -0.312 N 
ATOM     21  C   UNL     1      11.943   3.543  -1.180  0.00  0.00    +0.210 C 
ATOM     22  C   UNL     1      10.918   3.230  -2.237  0.00  0.00    +0.109 C 
ATOM     32  H   UNL     1      10.812   5.225  -0.744  0.00  0.00    +0.149 HD
ENDBRANCH  13   4
BRANCH   9   1
ATOM      1  O   UNL     1      11.179   5.507   4.872  0.00  0.00    -0.391 OA
ATOM     33  H   UNL     1      11.058   4.830   4.184  0.00  0.00    +0.210 HD
ENDBRANCH   9   1
BRANCH  11  17
ATOM     17  C   UNL     1      11.906   7.826   6.525  0.00  0.00    +0.078 C 
ATOM     19  C   UNL     1      12.739   8.888   7.244  0.00  0.00    +0.017 C 
BRANCH  17  20
ATOM      2  O   UNL     1      12.470   5.828   7.720  0.00  0.00    -0.275 OA
ATOM      5  N   UNL     1      10.288   6.555   7.962  0.00  0.00    -0.304 N 
ATOM     20  C   UNL     1      11.588   6.654   7.457  0.00  0.00    +0.219 C 
ATOM     24  C   UNL     1       9.946   5.437   8.836  0.00  0.00    +0.132 C 
BRANCH   5  23
ATOM     23  C   UNL     1       9.199   7.503   7.731  0.00  0.00    +0.112 C 
BRANCH  23  25
ATOM     25  C   UNL     1       8.293   7.084   6.576  0.00  0.00    +0.054 C 
BRANCH  25  26
ATOM     26  C   UNL     1       8.519   7.898   5.325  0.00  0.00    -0.046 A 
ATOM     27  C   UNL     1       8.293   7.328   4.073  0.00  0.00    +0.004 A 
ATOM     28  C   UNL     1       8.955   9.219   5.423  0.00  0.00    +0.004 A 
ATOM     29  C   UNL     1       8.502   8.081   2.917  0.00  0.00    +0.000 A 
ATOM     30  C   UNL     1       9.165   9.971   4.267  0.00  0.00    +0.000 A 
ATOM     31  C   UNL     1       8.938   9.402   3.013  0.00  0.00    +0.000 A 
ENDBRANCH  25  26
ENDBRANCH  23  25
ENDBRANCH   5  23
ENDBRANCH  17  20
ENDBRANCH  11  17
TORSDOF 7
ENDMDL
MODEL 10
REMARK VINA RESULT:      -5.3      3.213      7.647
REMARK  Name = 45361365
REMARK  12 active torsions:
REMARK  status: ('A' for Active; 'I' for Inactive)
REMARK    1  A    between atoms: O_1  and  C_9
REMARK    2  A    between atoms: N_4  and  C_13
REMARK    3  A    between atoms: N_5  and  C_23
REMARK    4  A    between atoms: N_5  and  C_24
REMARK    5  A    between atoms: C_6  and  C_16
REMARK    6  A    between atoms: C_8  and  C_18
REMARK    7  A    between atoms: C_11  and  C_17
REMARK    8  A    between atoms: C_17  and  C_19
REMARK    9  A    between atoms: C_17  and  C_20
REMARK   10  A    between atoms: C_21  and  C_22
REMARK   11  A    between atoms: C_23  and  C_25
REMARK   12  A    between atoms: C_25  and  C_26
REMARK                            x       y       z     vdW  Elec       q    Type
REMARK                         _______ _______ _______ _____ _____    ______ ____
ROOT
ATOM      6  C   UNL     1      11.197   8.273   5.068  0.00  0.00    -0.027 C 
ATOM      7  C   UNL     1      10.315   7.074   4.582  0.00  0.00    +0.028 C 
ATOM      8  C   UNL     1       9.942   6.132   5.783  0.00  0.00    +0.012 C 
ATOM      9  C   UNL     1      10.953   6.368   3.351  0.00  0.00    +0.122 C 
ATOM     10  C   UNL     1      11.451   9.238   3.886  0.00  0.00    +0.007 C 
ATOM     11  C   UNL     1      11.301   7.355   2.213  0.00  0.00    +0.029 C 
ATOM     12  C   UNL     1      10.428   9.056   6.158  0.00  0.00    +0.009 C 
ATOM     13  C   UNL     1       9.237   6.944   6.905  0.00  0.00    +0.076 C 
ATOM     14  C   UNL     1      12.111   8.558   2.695  0.00  0.00    +0.007 C 
ATOM     15  C   UNL     1      10.016   8.186   7.338  0.00  0.00    +0.023 C 
ATOM     16  C   UNL     1      12.563   7.813   5.637  0.00  0.00    +0.011 C 
ATOM     18  C   UNL     1       9.049   4.946   5.380  0.00  0.00    +0.010 C 
ENDROOT
BRANCH  13   4
ATOM      3  O   UNL     1      11.177   5.472   8.486  0.00  0.00    -0.276 OA
ATOM      4  N   UNL     1       8.982   6.132   8.076  0.00  0.00    -0.312 N 
ATOM     21  C   UNL     1       9.980   5.466   8.764  0.00  0.00    +0.210 C 
ATOM     22  C   UNL     1       9.445   4.718   9.955  0.00  0.00    +0.109 C 
ATOM     32  H   UNL     1       8.017   6.004   8.366  0.00  0.00    +0.149 HD
ENDBRANCH  13   4
BRANCH   9   1
ATOM      1  O   UNL     1      10.026   5.427   2.807  0.00  0.00    -0.391 OA
ATOM     33  H   UNL     1       9.247   5.398   3.390  0.00  0.00    +0.210 HD
ENDBRANCH   9   1
BRANCH  11  17
ATOM     17  C   UNL     1      12.046   6.661   1.066  0.00  0.00    +0.078 C 
ATOM     19  C   UNL     1      13.454   7.247   0.945  0.00  0.00    +0.017 C 
BRANCH  17  20
ATOM      2  O   UNL     1      11.132   7.963  -0.724  0.00  0.00    -0.275 OA
ATOM      5  N   UNL     1      10.710   5.691  -0.823  0.00  0.00    -0.304 N 
ATOM     20  C   UNL     1      11.265   6.834  -0.239  0.00  0.00    +0.219 C 
ATOM     24  C   UNL     1       9.940   5.824  -2.056  0.00  0.00    +0.132 C 
BRANCH   5  23
ATOM     23  C   UNL     1      10.849   4.319  -0.336  0.00  0.00    +0.112 C 
BRANCH  23  25
ATOM     25  C   UNL     1      11.913   3.532  -1.098  0.00  0.00    +0.054 C 
BRANCH  25  26
ATOM     26  C   UNL     1      13.292   3.679  -0.502  0.00  0.00    -0.046 A 
ATOM     27  C   UNL     1      14.355   4.099  -1.302  0.00  0.00    +0.004 A 
ATOM     28  C   UNL     1      13.503   3.394   0.846  0.00  0.00    +0.004 A 
ATOM     29  C   UNL     1      15.629   4.235  -0.751  0.00  0.00    +0.000 A 
ATOM     30  C   UNL     1      14.777   3.530   1.397  0.00  0.00    +0.000 A 
ATOM     31  C   UNL     1      15.841   3.951   0.598  0.00  0.00    +0.000 A 
ENDBRANCH  25  26
ENDBRANCH  23  25
ENDBRANCH   5  23
ENDBRANCH  17  20
ENDBRANCH  11  17
TORSDOF 7
ENDMDL
