MODEL 1
REMARK VINA RESULT:      -6.8      0.000      0.000
REMARK  Name = 71693479
REMARK  11 active torsions:
REMARK  status: ('A' for Active; 'I' for Inactive)
REMARK    1  A    between atoms: O_2  and  C_12
REMARK    2  A    between atoms: N_6  and  C_15
REMARK    3  A    between atoms: N_7  and  C_23
REMARK    4  A    between atoms: N_7  and  C_24
REMARK    5  A    between atoms: N_8  and  C_22
REMARK    6  A    between atoms: N_9  and  C_26
REMARK    7  A    between atoms: C_10  and  C_12
REMARK    8  A    between atoms: C_11  and  C_13
REMARK    9  A    between atoms: C_15  and  C_19
REMARK   10  A    between atoms: C_26  and  C_27
REMARK   11  A    between atoms: C_26  and  C_28
REMARK                            x       y       z     vdW  Elec       q    Type
REMARK                         _______ _______ _______ _____ _____    ______ ____
ROOT
ATOM      1  O   UNL     1      13.634   6.868  21.429  0.00  0.00    -0.361 OA
ATOM      3  O   UNL     1      10.863   8.950  22.252  0.00  0.00    -0.273 OA
ATOM      6  N   UNL     1      12.974   9.564  21.480  0.00  0.00    -0.283 N 
ATOM     10  C   UNL     1      14.337   9.138  21.080  0.00  0.00    +0.135 C 
ATOM     11  C   UNL     1      14.330   7.707  20.507  0.00  0.00    +0.171 C 
ATOM     14  C   UNL     1      11.968   8.649  21.795  0.00  0.00    +0.242 C 
ATOM     16  C   UNL     1      12.267   7.198  21.474  0.00  0.00    +0.256 C 
ENDROOT
BRANCH  11  13
ATOM     13  C   UNL     1      15.707   7.107  20.312  0.00  0.00    -0.017 A 
ATOM     17  C   UNL     1      15.991   6.370  19.162  0.00  0.00    +0.008 A 
ATOM     18  C   UNL     1      16.691   7.293  21.282  0.00  0.00    +0.008 A 
ATOM     20  C   UNL     1      17.259   5.819  18.983  0.00  0.00    +0.024 A 
ATOM     21  C   UNL     1      17.959   6.742  21.103  0.00  0.00    +0.024 A 
ATOM     22  C   UNL     1      18.244   6.005  19.954  0.00  0.00    +0.035 A 
BRANCH  22   8
ATOM      5  O   UNL     1      20.488   5.616  21.908  0.00  0.00    -0.253 OA
ATOM      8  N   UNL     1      19.512   5.453  19.774  0.00  0.00    -0.269 N 
ATOM      9  N   UNL     1      21.664   4.693  20.146  0.00  0.00    -0.297 N 
ATOM     25  C   UNL     1      20.541   5.289  20.725  0.00  0.00    +0.304 C 
ATOM     30  H   UNL     1      19.720   5.126  18.834  0.00  0.00    +0.156 HD
ATOM     31  H   UNL     1      21.658   4.521  19.145  0.00  0.00    +0.151 HD
BRANCH   9  26
ATOM     26  C   UNL     1      22.872   4.403  20.885  0.00  0.00    +0.068 C 
ATOM     27  C   UNL     1      22.864   2.962  21.380  0.00  0.00    +0.027 C 
ATOM     28  C   UNL     1      24.099   4.685  20.027  0.00  0.00    +0.027 C 
ENDBRANCH   9  26
ENDBRANCH  22   8
ENDBRANCH  11  13
BRANCH  10  12
ATOM     12  C   UNL     1      14.992  10.112  20.090  0.00  0.00    +0.181 C 
BRANCH  12   2
ATOM      2  O   UNL     1      16.057  10.764  20.751  0.00  0.00    -0.393 OA
ATOM     29  H   UNL     1      15.701  11.585  21.132  0.00  0.00    +0.209 HD
ENDBRANCH  12   2
ENDBRANCH  10  12
BRANCH   6  15
ATOM     15  C   UNL     1      12.756  10.975  21.781  0.00  0.00    +0.204 C 
BRANCH  15  19
ATOM      4  O   UNL     1      14.477  11.096  23.444  0.00  0.00    -0.274 OA
ATOM      7  N   UNL     1      12.368  11.835  24.066  0.00  0.00    -0.306 N 
ATOM     19  C   UNL     1      13.294  11.302  23.162  0.00  0.00    +0.232 C 
ATOM     23  C   UNL     1      10.974  12.067  23.711  0.00  0.00    +0.131 C 
ATOM     24  C   UNL     1      12.730  12.198  25.435  0.00  0.00    +0.131 C 
ENDBRANCH  15  19
ENDBRANCH   6  15
TORSDOF 7
ENDMDL
MODEL 2
REMARK VINA RESULT:      -6.1     30.133     32.909
REMARK  Name = 71693479
REMARK  11 active torsions:
REMARK  status: ('A' for Active; 'I' for Inactive)
REMARK    1  A    between atoms: O_2  and  C_12
REMARK    2  A    between atoms: N_6  and  C_15
REMARK    3  A    between atoms: N_7  and  C_23
REMARK    4  A    between atoms: N_7  and  C_24
REMARK    5  A    between atoms: N_8  and  C_22
REMARK    6  A    between atoms: N_9  and  C_26
REMARK    7  A    between atoms: C_10  and  C_12
REMARK    8  A    between atoms: C_11  and  C_13
REMARK    9  A    between atoms: C_15  and  C_19
REMARK   10  A    between atoms: C_26  and  C_27
REMARK   11  A    between atoms: C_26  and  C_28
REMARK                            x       y       z     vdW  Elec       q    Type
REMARK                         _______ _______ _______ _____ _____    ______ ____
ROOT
ATOM      1  O   UNL     1     -13.466  -4.114   8.864  0.00  0.00    -0.361 OA
ATOM      3  O   UNL     1     -16.288  -2.857  10.637  0.00  0.00    -0.273 OA
ATOM      6  N   UNL     1     -14.420  -3.977  11.466  0.00  0.00    -0.283 N 
ATOM     10  C   UNL     1     -13.141  -4.669  11.177  0.00  0.00    +0.135 C 
ATOM     11  C   UNL     1     -12.482  -4.114   9.899  0.00  0.00    +0.171 C 
ATOM     14  C   UNL     1     -15.164  -3.335  10.473  0.00  0.00    +0.242 C 
ATOM     16  C   UNL     1     -14.476  -3.172   9.132  0.00  0.00    +0.256 C 
ENDROOT
BRANCH  11  13
ATOM     13  C   UNL     1     -11.310  -4.932   9.398  0.00  0.00    -0.017 A 
ATOM     17  C   UNL     1     -10.141  -4.294   8.981  0.00  0.00    +0.008 A 
ATOM     18  C   UNL     1     -11.399  -6.323   9.355  0.00  0.00    +0.008 A 
ATOM     20  C   UNL     1      -9.062  -5.048   8.521  0.00  0.00    +0.024 A 
ATOM     21  C   UNL     1     -10.320  -7.077   8.894  0.00  0.00    +0.024 A 
ATOM     22  C   UNL     1      -9.152  -6.439   8.478  0.00  0.00    +0.035 A 
BRANCH  22   8
ATOM      5  O   UNL     1      -7.508  -8.532   9.866  0.00  0.00    -0.253 OA
ATOM      8  N   UNL     1      -8.071  -7.193   8.017  0.00  0.00    -0.269 N 
ATOM      9  N   UNL     1      -6.319  -8.696   7.892  0.00  0.00    -0.297 N 
ATOM     25  C   UNL     1      -7.325  -8.170   8.707  0.00  0.00    +0.304 C 
ATOM     30  H   UNL     1      -7.788  -7.013   7.057  0.00  0.00    +0.156 HD
ATOM     31  H   UNL     1      -6.183  -8.292   6.970  0.00  0.00    +0.151 HD
BRANCH   9  26
ATOM     26  C   UNL     1      -5.397  -9.717   8.336  0.00  0.00    +0.068 C 
ATOM     27  C   UNL     1      -5.005 -10.625   7.177  0.00  0.00    +0.027 C 
ATOM     28  C   UNL     1      -4.171  -9.081   8.978  0.00  0.00    +0.027 C 
ENDBRANCH   9  26
ENDBRANCH  22   8
ENDBRANCH  11  13
BRANCH  10  12
ATOM     12  C   UNL     1     -12.161  -4.610  12.358  0.00  0.00    +0.181 C 
BRANCH  12   2
ATOM      2  O   UNL     1     -11.993  -3.257  12.726  0.00  0.00    -0.393 OA
ATOM     29  H   UNL     1     -11.280  -3.223  13.385  0.00  0.00    +0.209 HD
ENDBRANCH  12   2
ENDBRANCH  10  12
BRANCH   6  15
ATOM     15  C   UNL     1     -15.032  -4.181  12.775  0.00  0.00    +0.204 C 
BRANCH  15  19
ATOM      4  O   UNL     1     -16.596  -5.856  12.075  0.00  0.00    -0.274 OA
ATOM      7  N   UNL     1     -15.164  -6.424  13.808  0.00  0.00    -0.306 N 
ATOM     19  C   UNL     1     -15.677  -5.554  12.840  0.00  0.00    +0.232 C 
ATOM     23  C   UNL     1     -14.077  -6.044  14.702  0.00  0.00    +0.131 C 
ATOM     24  C   UNL     1     -15.679  -7.778  13.997  0.00  0.00    +0.131 C 
ENDBRANCH  15  19
ENDBRANCH   6  15
TORSDOF 7
ENDMDL
MODEL 3
REMARK VINA RESULT:      -6.1      2.559      4.080
REMARK  Name = 71693479
REMARK  11 active torsions:
REMARK  status: ('A' for Active; 'I' for Inactive)
REMARK    1  A    between atoms: O_2  and  C_12
REMARK    2  A    between atoms: N_6  and  C_15
REMARK    3  A    between atoms: N_7  and  C_23
REMARK    4  A    between atoms: N_7  and  C_24
REMARK    5  A    between atoms: N_8  and  C_22
REMARK    6  A    between atoms: N_9  and  C_26
REMARK    7  A    between atoms: C_10  and  C_12
REMARK    8  A    between atoms: C_11  and  C_13
REMARK    9  A    between atoms: C_15  and  C_19
REMARK   10  A    between atoms: C_26  and  C_27
REMARK   11  A    between atoms: C_26  and  C_28
REMARK                            x       y       z     vdW  Elec       q    Type
REMARK                         _______ _______ _______ _____ _____    ______ ____
ROOT
ATOM      1  O   UNL     1      18.235   9.388  21.017  0.00  0.00    -0.361 OA
ATOM      3  O   UNL     1      15.236  11.185  20.335  0.00  0.00    -0.273 OA
ATOM      6  N   UNL     1      15.605   8.885  20.285  0.00  0.00    -0.283 N 
ATOM     10  C   UNL     1      16.567   7.765  20.425  0.00  0.00    +0.135 C 
ATOM     11  C   UNL     1      17.701   8.121  21.406  0.00  0.00    +0.171 C 
ATOM     14  C   UNL     1      15.956  10.209  20.555  0.00  0.00    +0.242 C 
ATOM     16  C   UNL     1      17.297  10.414  21.232  0.00  0.00    +0.256 C 
ENDROOT
BRANCH  11  13
ATOM     13  C   UNL     1      18.852   7.137  21.411  0.00  0.00    -0.017 A 
ATOM     17  C   UNL     1      19.720   7.084  22.502  0.00  0.00    +0.008 A 
ATOM     18  C   UNL     1      19.042   6.282  20.326  0.00  0.00    +0.008 A 
ATOM     20  C   UNL     1      20.779   6.177  22.507  0.00  0.00    +0.024 A 
ATOM     21  C   UNL     1      20.101   5.375  20.331  0.00  0.00    +0.024 A 
ATOM     22  C   UNL     1      20.969   5.321  21.421  0.00  0.00    +0.035 A 
BRANCH  22   8
ATOM      5  O   UNL     1      23.820   5.658  20.547  0.00  0.00    -0.253 OA
ATOM      8  N   UNL     1      22.029   4.414  21.426  0.00  0.00    -0.269 N 
ATOM      9  N   UNL     1      24.117   3.453  21.172  0.00  0.00    -0.297 N 
ATOM     25  C   UNL     1      23.359   4.615  21.004  0.00  0.00    +0.304 C 
ATOM     30  H   UNL     1      21.811   3.487  21.783  0.00  0.00    +0.156 HD
ATOM     31  H   UNL     1      23.645   2.609  21.485  0.00  0.00    +0.151 HD
BRANCH   9  26
ATOM     26  C   UNL     1      25.516   3.366  20.822  0.00  0.00    +0.068 C 
ATOM     27  C   UNL     1      26.179   2.203  21.550  0.00  0.00    +0.027 C 
ATOM     28  C   UNL     1      25.678   3.237  19.313  0.00  0.00    +0.027 C 
ENDBRANCH   9  26
ENDBRANCH  22   8
ENDBRANCH  11  13
BRANCH  10  12
ATOM     12  C   UNL     1      15.885   6.453  20.843  0.00  0.00    +0.181 C 
BRANCH  12   2
ATOM      2  O   UNL     1      15.582   6.533  22.221  0.00  0.00    -0.393 OA
ATOM     29  H   UNL     1      16.393   6.809  22.679  0.00  0.00    +0.209 HD
ENDBRANCH  12   2
ENDBRANCH  10  12
BRANCH   6  15
ATOM     15  C   UNL     1      14.334   8.620  19.619  0.00  0.00    +0.204 C 
BRANCH  15  19
ATOM      4  O   UNL     1      13.466   8.535  21.851  0.00  0.00    -0.274 OA
ATOM      7  N   UNL     1      11.918   8.481  20.125  0.00  0.00    -0.306 N 
ATOM     19  C   UNL     1      13.216   8.543  20.643  0.00  0.00    +0.232 C 
ATOM     23  C   UNL     1      11.647   8.490  18.693  0.00  0.00    +0.131 C 
ATOM     24  C   UNL     1      10.736   8.400  20.981  0.00  0.00    +0.131 C 
ENDBRANCH  15  19
ENDBRANCH   6  15
TORSDOF 7
ENDMDL
MODEL 4
REMARK VINA RESULT:      -6.1     27.231     30.363
REMARK  Name = 71693479
REMARK  11 active torsions:
REMARK  status: ('A' for Active; 'I' for Inactive)
REMARK    1  A    between atoms: O_2  and  C_12
REMARK    2  A    between atoms: N_6  and  C_15
REMARK    3  A    between atoms: N_7  and  C_23
REMARK    4  A    between atoms: N_7  and  C_24
REMARK    5  A    between atoms: N_8  and  C_22
REMARK    6  A    between atoms: N_9  and  C_26
REMARK    7  A    between atoms: C_10  and  C_12
REMARK    8  A    between atoms: C_11  and  C_13
REMARK    9  A    between atoms: C_15  and  C_19
REMARK   10  A    between atoms: C_26  and  C_27
REMARK   11  A    between atoms: C_26  and  C_28
REMARK                            x       y       z     vdW  Elec       q    Type
REMARK                         _______ _______ _______ _____ _____    ______ ____
ROOT
ATOM      1  O   UNL     1      -2.239  -9.924  13.055  0.00  0.00    -0.361 OA
ATOM      3  O   UNL     1      -1.726 -10.916  16.437  0.00  0.00    -0.273 OA
ATOM      6  N   UNL     1      -3.554 -11.331  15.053  0.00  0.00    -0.283 N 
ATOM     10  C   UNL     1      -4.205 -11.123  13.737  0.00  0.00    +0.135 C 
ATOM     11  C   UNL     1      -3.159 -10.927  12.622  0.00  0.00    +0.171 C 
ATOM     14  C   UNL     1      -2.261 -10.881  15.327  0.00  0.00    +0.242 C 
ATOM     16  C   UNL     1      -1.466 -10.386  14.136  0.00  0.00    +0.256 C 
ENDROOT
BRANCH  11  13
ATOM     13  C   UNL     1      -3.736 -10.461  11.302  0.00  0.00    -0.017 A 
ATOM     17  C   UNL     1      -4.260  -9.173  11.185  0.00  0.00    +0.008 A 
ATOM     18  C   UNL     1      -3.742 -11.318  10.202  0.00  0.00    +0.008 A 
ATOM     20  C   UNL     1      -4.790  -8.744   9.969  0.00  0.00    +0.024 A 
ATOM     21  C   UNL     1      -4.273 -10.889   8.986  0.00  0.00    +0.024 A 
ATOM     22  C   UNL     1      -4.796  -9.602   8.869  0.00  0.00    +0.035 A 
BRANCH  22   8
ATOM      5  O   UNL     1      -7.625  -9.624   7.867  0.00  0.00    -0.253 OA
ATOM      8  N   UNL     1      -5.327  -9.172   7.653  0.00  0.00    -0.269 N 
ATOM      9  N   UNL     1      -6.790  -8.676   5.932  0.00  0.00    -0.297 N 
ATOM     25  C   UNL     1      -6.669  -9.201   7.222  0.00  0.00    +0.304 C 
ATOM     30  H   UNL     1      -4.657  -8.785   6.993  0.00  0.00    +0.156 HD
ATOM     31  H   UNL     1      -5.943  -8.416   5.435  0.00  0.00    +0.151 HD
BRANCH   9  26
ATOM     26  C   UNL     1      -8.052  -8.581   5.234  0.00  0.00    +0.068 C 
ATOM     27  C   UNL     1      -8.779  -7.297   5.615  0.00  0.00    +0.027 C 
ATOM     28  C   UNL     1      -7.834  -8.666   3.729  0.00  0.00    +0.027 C 
ENDBRANCH   9  26
ENDBRANCH  22   8
ENDBRANCH  11  13
BRANCH  10  12
ATOM     12  C   UNL     1      -5.173 -12.258  13.373  0.00  0.00    +0.181 C 
BRANCH  12   2
ATOM      2  O   UNL     1      -6.468 -11.708  13.242  0.00  0.00    -0.393 OA
ATOM     29  H   UNL     1      -6.519 -10.943  13.839  0.00  0.00    +0.209 HD
ENDBRANCH  12   2
ENDBRANCH  10  12
BRANCH   6  15
ATOM     15  C   UNL     1      -4.379 -11.804  16.160  0.00  0.00    +0.204 C 
BRANCH  15  19
ATOM      4  O   UNL     1      -4.838  -9.546  16.819  0.00  0.00    -0.274 OA
ATOM      7  N   UNL     1      -6.611 -11.039  16.901  0.00  0.00    -0.306 N 
ATOM     19  C   UNL     1      -5.280 -10.686  16.653  0.00  0.00    +0.232 C 
ATOM     23  C   UNL     1      -7.110 -12.394  16.699  0.00  0.00    +0.131 C 
ATOM     24  C   UNL     1      -7.600 -10.077  17.381  0.00  0.00    +0.131 C 
ENDBRANCH  15  19
ENDBRANCH   6  15
TORSDOF 7
ENDMDL
MODEL 5
REMARK VINA RESULT:      -5.9     29.561     32.865
REMARK  Name = 71693479
REMARK  11 active torsions:
REMARK  status: ('A' for Active; 'I' for Inactive)
REMARK    1  A    between atoms: O_2  and  C_12
REMARK    2  A    between atoms: N_6  and  C_15
REMARK    3  A    between atoms: N_7  and  C_23
REMARK    4  A    between atoms: N_7  and  C_24
REMARK    5  A    between atoms: N_8  and  C_22
REMARK    6  A    between atoms: N_9  and  C_26
REMARK    7  A    between atoms: C_10  and  C_12
REMARK    8  A    between atoms: C_11  and  C_13
REMARK    9  A    between atoms: C_15  and  C_19
REMARK   10  A    between atoms: C_26  and  C_27
REMARK   11  A    between atoms: C_26  and  C_28
REMARK                            x       y       z     vdW  Elec       q    Type
REMARK                         _______ _______ _______ _____ _____    ______ ____
ROOT
ATOM      1  O   UNL     1     -11.625 -10.302  19.031  0.00  0.00    -0.361 OA
ATOM      3  O   UNL     1      -9.872 -13.047  20.476  0.00  0.00    -0.273 OA
ATOM      6  N   UNL     1      -9.255 -11.702  18.675  0.00  0.00    -0.283 N 
ATOM     10  C   UNL     1      -9.608 -10.591  17.759  0.00  0.00    +0.135 C 
ATOM     11  C   UNL     1     -10.542  -9.576  18.446  0.00  0.00    +0.171 C 
ATOM     14  C   UNL     1     -10.055 -12.057  19.763  0.00  0.00    +0.242 C 
ATOM     16  C   UNL     1     -11.175 -11.095  20.103  0.00  0.00    +0.256 C 
ENDROOT
BRANCH  11  13
ATOM     13  C   UNL     1     -11.149  -8.554  17.508  0.00  0.00    -0.017 A 
ATOM     17  C   UNL     1     -10.479  -7.356  17.253  0.00  0.00    +0.008 A 
ATOM     18  C   UNL     1     -12.376  -8.810  16.897  0.00  0.00    +0.008 A 
ATOM     20  C   UNL     1     -11.038  -6.416  16.389  0.00  0.00    +0.024 A 
ATOM     21  C   UNL     1     -12.934  -7.869  16.033  0.00  0.00    +0.024 A 
ATOM     22  C   UNL     1     -12.265  -6.673  15.778  0.00  0.00    +0.035 A 
BRANCH  22   8
ATOM      5  O   UNL     1     -12.365  -6.607  12.779  0.00  0.00    -0.253 OA
ATOM      8  N   UNL     1     -12.824  -5.731  14.913  0.00  0.00    -0.269 N 
ATOM      9  N   UNL     1     -13.506  -4.610  13.009  0.00  0.00    -0.297 N 
ATOM     25  C   UNL     1     -12.848  -5.740  13.504  0.00  0.00    +0.304 C 
ATOM     30  H   UNL     1     -13.273  -4.936  15.360  0.00  0.00    +0.156 HD
ATOM     31  H   UNL     1     -13.811  -3.901  13.669  0.00  0.00    +0.151 HD
BRANCH   9  26
ATOM     26  C   UNL     1     -13.681  -4.355  11.597  0.00  0.00    +0.068 C 
ATOM     27  C   UNL     1     -14.981  -3.600  11.348  0.00  0.00    +0.027 C 
ATOM     28  C   UNL     1     -12.485  -3.590  11.045  0.00  0.00    +0.027 C 
ENDBRANCH   9  26
ENDBRANCH  22   8
ENDBRANCH  11  13
BRANCH  10  12
ATOM     12  C   UNL     1      -8.370  -9.884  17.188  0.00  0.00    +0.181 C 
BRANCH  12   2
ATOM      2  O   UNL     1      -7.762  -9.148  18.229  0.00  0.00    -0.393 OA
ATOM     29  H   UNL     1      -7.576  -8.259  17.884  0.00  0.00    +0.209 HD
ENDBRANCH  12   2
ENDBRANCH  10  12
BRANCH   6  15
ATOM     15  C   UNL     1      -8.169 -12.596  18.285  0.00  0.00    +0.204 C 
BRANCH  15  19
ATOM      4  O   UNL     1      -6.917 -11.520  20.022  0.00  0.00    -0.274 OA
ATOM      7  N   UNL     1      -5.699 -12.635  18.394  0.00  0.00    -0.306 N 
ATOM     19  C   UNL     1      -6.886 -12.195  18.991  0.00  0.00    +0.232 C 
ATOM     23  C   UNL     1      -5.686 -13.432  17.174  0.00  0.00    +0.131 C 
ATOM     24  C   UNL     1      -4.383 -12.329  18.951  0.00  0.00    +0.131 C 
ENDBRANCH  15  19
ENDBRANCH   6  15
TORSDOF 7
ENDMDL
MODEL 6
REMARK VINA RESULT:      -5.8      2.509     10.082
REMARK  Name = 71693479
REMARK  11 active torsions:
REMARK  status: ('A' for Active; 'I' for Inactive)
REMARK    1  A    between atoms: O_2  and  C_12
REMARK    2  A    between atoms: N_6  and  C_15
REMARK    3  A    between atoms: N_7  and  C_23
REMARK    4  A    between atoms: N_7  and  C_24
REMARK    5  A    between atoms: N_8  and  C_22
REMARK    6  A    between atoms: N_9  and  C_26
REMARK    7  A    between atoms: C_10  and  C_12
REMARK    8  A    between atoms: C_11  and  C_13
REMARK    9  A    between atoms: C_15  and  C_19
REMARK   10  A    between atoms: C_26  and  C_27
REMARK   11  A    between atoms: C_26  and  C_28
REMARK                            x       y       z     vdW  Elec       q    Type
REMARK                         _______ _______ _______ _____ _____    ______ ____
ROOT
ATOM      1  O   UNL     1      20.557   6.567  23.955  0.00  0.00    -0.361 OA
ATOM      3  O   UNL     1      23.606   4.906  24.752  0.00  0.00    -0.273 OA
ATOM      6  N   UNL     1      22.544   5.103  22.687  0.00  0.00    -0.283 N 
ATOM     10  C   UNL     1      21.374   5.592  21.918  0.00  0.00    +0.135 C 
ATOM     11  C   UNL     1      20.764   6.848  22.570  0.00  0.00    +0.171 C 
ATOM     14  C   UNL     1      22.722   5.390  24.042  0.00  0.00    +0.242 C 
ATOM     16  C   UNL     1      21.786   6.428  24.627  0.00  0.00    +0.256 C 
ENDROOT
BRANCH  11  13
ATOM     13  C   UNL     1      19.424   7.259  21.995  0.00  0.00    -0.017 A 
ATOM     17  C   UNL     1      18.551   6.290  21.498  0.00  0.00    +0.008 A 
ATOM     18  C   UNL     1      19.062   8.605  21.964  0.00  0.00    +0.008 A 
ATOM     20  C   UNL     1      17.318   6.669  20.970  0.00  0.00    +0.024 A 
ATOM     21  C   UNL     1      17.829   8.984  21.436  0.00  0.00    +0.024 A 
ATOM     22  C   UNL     1      16.956   8.016  20.940  0.00  0.00    +0.035 A 
BRANCH  22   8
ATOM      5  O   UNL     1      14.215   7.947  22.161  0.00  0.00    -0.253 OA
ATOM      8  N   UNL     1      15.722   8.395  20.411  0.00  0.00    -0.269 N 
ATOM      9  N   UNL     1      13.462   8.816  20.156  0.00  0.00    -0.297 N 
ATOM     25  C   UNL     1      14.453   8.345  21.023  0.00  0.00    +0.304 C 
ATOM     30  H   UNL     1      15.742   8.754  19.460  0.00  0.00    +0.156 HD
ATOM     31  H   UNL     1      13.727   9.056  19.205  0.00  0.00    +0.151 HD
BRANCH   9  26
ATOM     26  C   UNL     1      12.064   8.879  20.517  0.00  0.00    +0.068 C 
ATOM     27  C   UNL     1      11.730  10.234  21.128  0.00  0.00    +0.027 C 
ATOM     28  C   UNL     1      11.190   8.591  19.302  0.00  0.00    +0.027 C 
ENDBRANCH   9  26
ENDBRANCH  22   8
ENDBRANCH  11  13
BRANCH  10  12
ATOM     12  C   UNL     1      21.709   5.858  20.443  0.00  0.00    +0.181 C 
BRANCH  12   2
ATOM      2  O   UNL     1      21.096   4.852  19.663  0.00  0.00    -0.393 OA
ATOM     29  H   UNL     1      20.543   4.321  20.261  0.00  0.00    +0.209 HD
ENDBRANCH  12   2
ENDBRANCH  10  12
BRANCH   6  15
ATOM     15  C   UNL     1      23.403   4.099  22.066  0.00  0.00    +0.204 C 
BRANCH  15  19
ATOM      4  O   UNL     1      24.990   5.872  21.781  0.00  0.00    -0.274 OA
ATOM      7  N   UNL     1      25.174   4.063  20.341  0.00  0.00    -0.306 N 
ATOM     19  C   UNL     1      24.590   4.770  21.398  0.00  0.00    +0.232 C 
ATOM     23  C   UNL     1      24.682   2.763  19.905  0.00  0.00    +0.131 C 
ATOM     24  C   UNL     1      26.321   4.577  19.595  0.00  0.00    +0.131 C 
ENDBRANCH  15  19
ENDBRANCH   6  15
TORSDOF 7
ENDMDL
MODEL 7
REMARK VINA RESULT:      -5.8     27.928     31.715
REMARK  Name = 71693479
REMARK  11 active torsions:
REMARK  status: ('A' for Active; 'I' for Inactive)
REMARK    1  A    between atoms: O_2  and  C_12
REMARK    2  A    between atoms: N_6  and  C_15
REMARK    3  A    between atoms: N_7  and  C_23
REMARK    4  A    between atoms: N_7  and  C_24
REMARK    5  A    between atoms: N_8  and  C_22
REMARK    6  A    between atoms: N_9  and  C_26
REMARK    7  A    between atoms: C_10  and  C_12
REMARK    8  A    between atoms: C_11  and  C_13
REMARK    9  A    between atoms: C_15  and  C_19
REMARK   10  A    between atoms: C_26  and  C_27
REMARK   11  A    between atoms: C_26  and  C_28
REMARK                            x       y       z     vdW  Elec       q    Type
REMARK                         _______ _______ _______ _____ _____    ______ ____
ROOT
ATOM      1  O   UNL     1      -3.646 -10.763  16.934  0.00  0.00    -0.361 OA
ATOM      3  O   UNL     1      -1.127 -11.933  14.704  0.00  0.00    -0.273 OA
ATOM      6  N   UNL     1      -3.397 -12.459  14.751  0.00  0.00    -0.283 N 
ATOM     10  C   UNL     1      -4.708 -12.298  15.423  0.00  0.00    +0.135 C 
ATOM     11  C   UNL     1      -4.812 -10.931  16.126  0.00  0.00    +0.171 C 
ATOM     14  C   UNL     1      -2.263 -11.745  15.144  0.00  0.00    +0.242 C 
ATOM     16  C   UNL     1      -2.498 -10.620  16.133  0.00  0.00    +0.256 C 
ENDROOT
BRANCH  11  13
ATOM     13  C   UNL     1      -6.011 -10.791  17.042  0.00  0.00    -0.017 A 
ATOM     17  C   UNL     1      -6.974  -9.814  16.787  0.00  0.00    +0.008 A 
ATOM     18  C   UNL     1      -6.152 -11.639  18.139  0.00  0.00    +0.008 A 
ATOM     20  C   UNL     1      -8.077  -9.686  17.629  0.00  0.00    +0.024 A 
ATOM     21  C   UNL     1      -7.255 -11.512  18.982  0.00  0.00    +0.024 A 
ATOM     22  C   UNL     1      -8.218 -10.536  18.727  0.00  0.00    +0.035 A 
BRANCH  22   8
ATOM      5  O   UNL     1     -11.062 -11.420  18.353  0.00  0.00    -0.253 OA
ATOM      8  N   UNL     1      -9.323 -10.407  19.570  0.00  0.00    -0.269 N 
ATOM      9  N   UNL     1     -11.461 -10.520  20.444  0.00  0.00    -0.297 N 
ATOM     25  C   UNL     1     -10.647 -10.839  19.353  0.00  0.00    +0.304 C 
ATOM     30  H   UNL     1      -9.147  -9.942  20.457  0.00  0.00    +0.156 HD
ATOM     31  H   UNL     1     -11.061  -9.972  21.200  0.00  0.00    +0.151 HD
BRANCH   9  26
ATOM     26  C   UNL     1     -12.868 -10.842  20.499  0.00  0.00    +0.068 C 
ATOM     27  C   UNL     1     -13.138 -11.878  21.584  0.00  0.00    +0.027 C 
ATOM     28  C   UNL     1     -13.692  -9.581  20.723  0.00  0.00    +0.027 C 
ENDBRANCH   9  26
ENDBRANCH  22   8
ENDBRANCH  11  13
BRANCH  10  12
ATOM     12  C   UNL     1      -5.890 -12.502  14.464  0.00  0.00    +0.181 C 
BRANCH  12   2
ATOM      2  O   UNL     1      -6.570 -13.681  14.845  0.00  0.00    -0.393 OA
ATOM     29  H   UNL     1      -7.473 -13.620  14.491  0.00  0.00    +0.209 HD
ENDBRANCH  12   2
ENDBRANCH  10  12
BRANCH   6  15
ATOM     15  C   UNL     1      -3.235 -13.566  13.814  0.00  0.00    +0.204 C 
BRANCH  15  19
ATOM      4  O   UNL     1      -3.923 -15.258  15.366  0.00  0.00    -0.274 OA
ATOM      7  N   UNL     1      -1.880 -15.573  14.314  0.00  0.00    -0.306 N 
ATOM     19  C   UNL     1      -3.062 -14.869  14.574  0.00  0.00    +0.232 C 
ATOM     23  C   UNL     1      -0.876 -15.093  13.374  0.00  0.00    +0.131 C 
ATOM     24  C   UNL     1      -1.565 -16.841  14.967  0.00  0.00    +0.131 C 
ENDBRANCH  15  19
ENDBRANCH   6  15
TORSDOF 7
ENDMDL
MODEL 8
REMARK VINA RESULT:      -5.6     27.544     31.291
REMARK  Name = 71693479
REMARK  11 active torsions:
REMARK  status: ('A' for Active; 'I' for Inactive)
REMARK    1  A    between atoms: O_2  and  C_12
REMARK    2  A    between atoms: N_6  and  C_15
REMARK    3  A    between atoms: N_7  and  C_23
REMARK    4  A    between atoms: N_7  and  C_24
REMARK    5  A    between atoms: N_8  and  C_22
REMARK    6  A    between atoms: N_9  and  C_26
REMARK    7  A    between atoms: C_10  and  C_12
REMARK    8  A    between atoms: C_11  and  C_13
REMARK    9  A    between atoms: C_15  and  C_19
REMARK   10  A    between atoms: C_26  and  C_27
REMARK   11  A    between atoms: C_26  and  C_28
REMARK                            x       y       z     vdW  Elec       q    Type
REMARK                         _______ _______ _______ _____ _____    ______ ____
ROOT
ATOM      1  O   UNL     1      -3.284 -10.971  16.930  0.00  0.00    -0.361 OA
ATOM      3  O   UNL     1      -0.837 -11.957  14.537  0.00  0.00    -0.273 OA
ATOM      6  N   UNL     1      -3.156 -12.157  14.424  0.00  0.00    -0.283 N 
ATOM     10  C   UNL     1      -4.466 -11.968  15.093  0.00  0.00    +0.135 C 
ATOM     11  C   UNL     1      -4.421 -10.790  16.086  0.00  0.00    +0.171 C 
ATOM     14  C   UNL     1      -1.958 -11.714  14.989  0.00  0.00    +0.242 C 
ATOM     16  C   UNL     1      -2.090 -10.816  16.203  0.00  0.00    +0.256 C 
ENDROOT
BRANCH  11  13
ATOM     13  C   UNL     1      -5.633 -10.690  16.988  0.00  0.00    -0.017 A 
ATOM     17  C   UNL     1      -6.540  -9.642  16.827  0.00  0.00    +0.008 A 
ATOM     18  C   UNL     1      -5.844 -11.648  17.980  0.00  0.00    +0.008 A 
ATOM     20  C   UNL     1      -7.656  -9.551  17.658  0.00  0.00    +0.024 A 
ATOM     21  C   UNL     1      -6.960 -11.557  18.811  0.00  0.00    +0.024 A 
ATOM     22  C   UNL     1      -7.866 -10.510  18.650  0.00  0.00    +0.035 A 
BRANCH  22   8
ATOM      5  O   UNL     1     -10.686 -11.448  18.226  0.00  0.00    -0.253 OA
ATOM      8  N   UNL     1      -8.984 -10.419  19.481  0.00  0.00    -0.269 N 
ATOM      9  N   UNL     1     -11.129 -10.591  20.326  0.00  0.00    -0.297 N 
ATOM     25  C   UNL     1     -10.295 -10.875  19.241  0.00  0.00    +0.304 C 
ATOM     30  H   UNL     1      -8.828  -9.964  20.377  0.00  0.00    +0.156 HD
ATOM     31  H   UNL     1     -10.750 -10.047  21.096  0.00  0.00    +0.151 HD
BRANCH   9  26
ATOM     26  C   UNL     1     -12.530 -10.944  20.358  0.00  0.00    +0.068 C 
ATOM     27  C   UNL     1     -12.774 -12.076  21.349  0.00  0.00    +0.027 C 
ATOM     28  C   UNL     1     -13.377  -9.723  20.696  0.00  0.00    +0.027 C 
ENDBRANCH   9  26
ENDBRANCH  22   8
ENDBRANCH  11  13
BRANCH  10  12
ATOM     12  C   UNL     1      -5.616 -11.786  14.092  0.00  0.00    +0.181 C 
BRANCH  12   2
ATOM      2  O   UNL     1      -5.517 -10.491  13.536  0.00  0.00    -0.393 OA
ATOM     29  H   UNL     1      -5.995 -10.503  12.690  0.00  0.00    +0.209 HD
ENDBRANCH  12   2
ENDBRANCH  10  12
BRANCH   6  15
ATOM     15  C   UNL     1      -3.098 -13.039  13.263  0.00  0.00    +0.204 C 
BRANCH  15  19
ATOM      4  O   UNL     1      -2.846 -11.054  11.945  0.00  0.00    -0.274 OA
ATOM      7  N   UNL     1      -3.786 -12.895  10.893  0.00  0.00    -0.306 N 
ATOM     19  C   UNL     1      -3.222 -12.228  11.986  0.00  0.00    +0.232 C 
ATOM     23  C   UNL     1      -4.225 -14.283  10.966  0.00  0.00    +0.131 C 
ATOM     24  C   UNL     1      -3.975 -12.250   9.595  0.00  0.00    +0.131 C 
ENDBRANCH  15  19
ENDBRANCH   6  15
TORSDOF 7
ENDMDL
MODEL 9
REMARK VINA RESULT:      -5.6     29.093     31.861
REMARK  Name = 71693479
REMARK  11 active torsions:
REMARK  status: ('A' for Active; 'I' for Inactive)
REMARK    1  A    between atoms: O_2  and  C_12
REMARK    2  A    between atoms: N_6  and  C_15
REMARK    3  A    between atoms: N_7  and  C_23
REMARK    4  A    between atoms: N_7  and  C_24
REMARK    5  A    between atoms: N_8  and  C_22
REMARK    6  A    between atoms: N_9  and  C_26
REMARK    7  A    between atoms: C_10  and  C_12
REMARK    8  A    between atoms: C_11  and  C_13
REMARK    9  A    between atoms: C_15  and  C_19
REMARK   10  A    between atoms: C_26  and  C_27
REMARK   11  A    between atoms: C_26  and  C_28
REMARK                            x       y       z     vdW  Elec       q    Type
REMARK                         _______ _______ _______ _____ _____    ______ ____
ROOT
ATOM      1  O   UNL     1      -4.966 -11.511   6.404  0.00  0.00    -0.361 OA
ATOM      3  O   UNL     1      -6.534 -11.580   3.206  0.00  0.00    -0.273 OA
ATOM      6  N   UNL     1      -7.121 -10.350   5.096  0.00  0.00    -0.283 N 
ATOM     10  C   UNL     1      -6.857 -10.035   6.521  0.00  0.00    +0.135 C 
ATOM     11  C   UNL     1      -5.366 -10.220   6.867  0.00  0.00    +0.171 C 
ATOM     14  C   UNL     1      -6.291 -11.188   4.349  0.00  0.00    +0.242 C 
ATOM     16  C   UNL     1      -4.973 -11.564   4.998  0.00  0.00    +0.256 C 
ENDROOT
BRANCH  11  13
ATOM     13  C   UNL     1      -5.059 -10.165   8.349  0.00  0.00    -0.017 A 
ATOM     17  C   UNL     1      -4.173  -9.207   8.843  0.00  0.00    +0.008 A 
ATOM     18  C   UNL     1      -5.664 -11.071   9.220  0.00  0.00    +0.008 A 
ATOM     20  C   UNL     1      -3.892  -9.156  10.207  0.00  0.00    +0.024 A 
ATOM     21  C   UNL     1      -5.382 -11.020  10.584  0.00  0.00    +0.024 A 
ATOM     22  C   UNL     1      -4.497 -10.062  11.078  0.00  0.00    +0.035 A 
BRANCH  22   8
ATOM      5  O   UNL     1      -2.334 -11.405  12.668  0.00  0.00    -0.253 OA
ATOM      8  N   UNL     1      -4.215 -10.011  12.444  0.00  0.00    -0.269 N 
ATOM      9  N   UNL     1      -3.241 -10.351  14.514  0.00  0.00    -0.297 N 
ATOM     25  C   UNL     1      -3.184 -10.661  13.152  0.00  0.00    +0.304 C 
ATOM     30  H   UNL     1      -4.835  -9.426  12.999  0.00  0.00    +0.156 HD
ATOM     31  H   UNL     1      -4.018  -9.789  14.848  0.00  0.00    +0.151 HD
BRANCH   9  26
ATOM     26  C   UNL     1      -2.307 -10.877  15.482  0.00  0.00    +0.068 C 
ATOM     27  C   UNL     1      -1.082  -9.975  15.589  0.00  0.00    +0.027 C 
ATOM     28  C   UNL     1      -2.985 -11.047  16.835  0.00  0.00    +0.027 C 
ENDBRANCH   9  26
ENDBRANCH  22   8
ENDBRANCH  11  13
BRANCH  10  12
ATOM     12  C   UNL     1      -7.329  -8.627   6.910  0.00  0.00    +0.181 C 
BRANCH  12   2
ATOM      2  O   UNL     1      -8.412  -8.756   7.808  0.00  0.00    -0.393 OA
ATOM     29  H   UNL     1      -8.198  -8.230   8.596  0.00  0.00    +0.209 HD
ENDBRANCH  12   2
ENDBRANCH  10  12
BRANCH   6  15
ATOM     15  C   UNL     1      -8.413  -9.965   4.535  0.00  0.00    +0.204 C 
BRANCH  15  19
ATOM      4  O   UNL     1      -7.461  -8.019   3.511  0.00  0.00    -0.274 OA
ATOM      7  N   UNL     1      -8.927  -9.268   2.219  0.00  0.00    -0.306 N 
ATOM     19  C   UNL     1      -8.212  -8.989   3.389  0.00  0.00    +0.232 C 
ATOM     23  C   UNL     1      -9.810 -10.422   2.100  0.00  0.00    +0.131 C 
ATOM     24  C   UNL     1      -8.843  -8.423   1.030  0.00  0.00    +0.131 C 
ENDBRANCH  15  19
ENDBRANCH   6  15
TORSDOF 7
ENDMDL
MODEL 10
REMARK VINA RESULT:      -5.5     18.422     21.645
REMARK  Name = 71693479
REMARK  11 active torsions:
REMARK  status: ('A' for Active; 'I' for Inactive)
REMARK    1  A    between atoms: O_2  and  C_12
REMARK    2  A    between atoms: N_6  and  C_15
REMARK    3  A    between atoms: N_7  and  C_23
REMARK    4  A    between atoms: N_7  and  C_24
REMARK    5  A    between atoms: N_8  and  C_22
REMARK    6  A    between atoms: N_9  and  C_26
REMARK    7  A    between atoms: C_10  and  C_12
REMARK    8  A    between atoms: C_11  and  C_13
REMARK    9  A    between atoms: C_15  and  C_19
REMARK   10  A    between atoms: C_26  and  C_27
REMARK   11  A    between atoms: C_26  and  C_28
REMARK                            x       y       z     vdW  Elec       q    Type
REMARK                         _______ _______ _______ _____ _____    ______ ____
ROOT
ATOM      1  O   UNL     1      10.454   4.488   2.479  0.00  0.00    -0.361 OA
ATOM      3  O   UNL     1      13.429   2.861   1.386  0.00  0.00    -0.273 OA
ATOM      6  N   UNL     1      13.125   5.083   2.020  0.00  0.00    -0.283 N 
ATOM     10  C   UNL     1      12.190   6.147   2.458  0.00  0.00    +0.135 C 
ATOM     11  C   UNL     1      11.005   5.558   3.248  0.00  0.00    +0.171 C 
ATOM     14  C   UNL     1      12.727   3.754   1.867  0.00  0.00    +0.242 C 
ATOM     16  C   UNL     1      11.353   3.408   2.405  0.00  0.00    +0.256 C 
ENDROOT
BRANCH  11  13
ATOM     13  C   UNL     1       9.883   6.540   3.512  0.00  0.00    -0.017 A 
ATOM     17  C   UNL     1       9.321   6.633   4.786  0.00  0.00    +0.008 A 
ATOM     18  C   UNL     1       9.411   7.352   2.481  0.00  0.00    +0.008 A 
ATOM     20  C   UNL     1       8.289   7.538   5.028  0.00  0.00    +0.024 A 
ATOM     21  C   UNL     1       8.379   8.257   2.723  0.00  0.00    +0.024 A 
ATOM     22  C   UNL     1       7.818   8.351   3.996  0.00  0.00    +0.035 A 
BRANCH  22   8
ATOM      5  O   UNL     1       7.875  11.340   4.260  0.00  0.00    -0.253 OA
ATOM      8  N   UNL     1       6.784   9.256   4.239  0.00  0.00    -0.269 N 
ATOM      9  N   UNL     1       5.593  11.205   4.602  0.00  0.00    -0.297 N 
ATOM     25  C   UNL     1       6.856  10.659   4.356  0.00  0.00    +0.304 C 
ATOM     30  H   UNL     1       5.859   8.848   4.344  0.00  0.00    +0.156 HD
ATOM     31  H   UNL     1       4.812  10.570   4.744  0.00  0.00    +0.151 HD
BRANCH   9  26
ATOM     26  C   UNL     1       5.365  12.622   4.768  0.00  0.00    +0.068 C 
ATOM     27  C   UNL     1       5.064  13.276   3.424  0.00  0.00    +0.027 C 
ATOM     28  C   UNL     1       4.238  12.864   5.764  0.00  0.00    +0.027 C 
ENDBRANCH   9  26
ENDBRANCH  22   8
ENDBRANCH  11  13
BRANCH  10  12
ATOM     12  C   UNL     1      12.889   7.245   3.274  0.00  0.00    +0.181 C 
BRANCH  12   2
ATOM      2  O   UNL     1      13.176   6.727   4.556  0.00  0.00    -0.393 OA
ATOM     29  H   UNL     1      13.527   7.459   5.091  0.00  0.00    +0.209 HD
ENDBRANCH  12   2
ENDBRANCH  10  12
BRANCH   6  15
ATOM     15  C   UNL     1      14.431   5.485   1.506  0.00  0.00    +0.204 C 
BRANCH  15  19
ATOM      4  O   UNL     1      13.537   6.522  -0.460  0.00  0.00    -0.274 OA
ATOM      7  N   UNL     1      15.243   4.983  -0.775  0.00  0.00    -0.306 N 
ATOM     19  C   UNL     1      14.350   5.723   0.009  0.00  0.00    +0.232 C 
ATOM     23  C   UNL     1      16.194   4.043  -0.198  0.00  0.00    +0.131 C 
ATOM     24  C   UNL     1      15.286   5.098  -2.231  0.00  0.00    +0.131 C 
ENDBRANCH  15  19
ENDBRANCH   6  15
TORSDOF 7
ENDMDL
