MODEL 1
REMARK VINA RESULT:      -7.3      0.000      0.000
REMARK  Name = 26745257
REMARK  4 active torsions:
REMARK  status: ('A' for Active; 'I' for Inactive)
REMARK    1  A    between atoms: N_5  and  C_9
REMARK    2  A    between atoms: N_8  and  C_23
REMARK    3  A    between atoms: C_15  and  C_21
REMARK    4  A    between atoms: C_23  and  C_24
REMARK                            x       y       z     vdW  Elec       q    Type
REMARK                         _______ _______ _______ _____ _____    ______ ____
ROOT
ATOM      2  O   UNL     1      11.934   8.476  21.683  0.00  0.00    -0.253 OA
ATOM      4  N   UNL     1      12.740   9.282  19.647  0.00  0.00    -0.268 N 
ATOM      5  N   UNL     1      12.735  10.628  21.597  0.00  0.00    -0.296 N 
ATOM      6  N   UNL     1      13.548  10.979  16.393  0.00  0.00    -0.347 N 
ATOM      7  N   UNL     1      12.634   9.171  15.453  0.00  0.00    -0.240 NA
ATOM     15  C   UNL     1      12.637   7.934  19.024  0.00  0.00    +0.170 C 
ATOM     16  C   UNL     1      12.082   7.924  17.584  0.00  0.00    +0.089 C 
ATOM     17  C   UNL     1      13.339  10.402  18.863  0.00  0.00    +0.165 C 
ATOM     18  C   UNL     1      12.430   9.396  21.025  0.00  0.00    +0.303 C 
ATOM     19  C   UNL     1      13.174  10.161  17.418  0.00  0.00    +0.056 A 
ATOM     20  C   UNL     1      12.620   9.061  16.815  0.00  0.00    +0.066 A 
ATOM     22  C   UNL     1      13.202  10.339  15.230  0.00  0.00    +0.197 A 
ATOM     30  H   UNL     1      13.280  11.305  21.077  0.00  0.00    +0.151 HD
ATOM     31  H   UNL     1      13.995  11.883  16.471  0.00  0.00    +0.167 HD
ENDROOT
BRANCH   5   9
ATOM      9  C   UNL     1      12.492  10.909  22.995  0.00  0.00    +0.074 C 
ATOM     10  C   UNL     1      13.567  11.840  23.564  0.00  0.00    +0.022 C 
ATOM     11  C   UNL     1      11.088  11.487  23.204  0.00  0.00    +0.022 C 
ATOM     12  C   UNL     1      13.438  13.271  23.045  0.00  0.00    +0.002 C 
ATOM     13  C   UNL     1      10.962  12.919  22.685  0.00  0.00    +0.002 C 
ATOM     14  C   UNL     1      12.036  13.829  23.275  0.00  0.00    +0.000 C 
ENDBRANCH   5   9
BRANCH  15  21
ATOM      3  O   UNL     1      14.725   7.228  18.100  0.00  0.00    -0.274 OA
ATOM      8  N   UNL     1      14.349   6.948  20.381  0.00  0.00    -0.310 N 
ATOM     21  C   UNL     1      14.016   7.344  19.096  0.00  0.00    +0.234 C 
ATOM     32  H   UNL     1      13.696   7.112  21.141  0.00  0.00    +0.149 HD
BRANCH   8  23
ATOM     23  C   UNL     1      15.613   6.330  20.715  0.00  0.00    +0.139 C 
BRANCH  23  24
ATOM      1 CL   UNL     1      19.787  10.399  22.185  0.00  0.00    -0.084 Cl
ATOM     24  C   UNL     1      16.655   7.346  21.082  0.00  0.00    -0.030 A 
ATOM     25  C   UNL     1      16.284   8.667  21.334  0.00  0.00    +0.006 A 
ATOM     26  C   UNL     1      17.996   6.969  21.171  0.00  0.00    +0.006 A 
ATOM     27  C   UNL     1      17.253   9.610  21.674  0.00  0.00    +0.020 A 
ATOM     28  C   UNL     1      18.964   7.913  21.511  0.00  0.00    +0.020 A 
ATOM     29  C   UNL     1      18.593   9.234  21.762  0.00  0.00    +0.041 A 
ENDBRANCH  23  24
ENDBRANCH   8  23
ENDBRANCH  15  21
TORSDOF 4
ENDMDL
MODEL 2
REMARK VINA RESULT:      -7.0      2.472      3.246
REMARK  Name = 26745257
REMARK  4 active torsions:
REMARK  status: ('A' for Active; 'I' for Inactive)
REMARK    1  A    between atoms: N_5  and  C_9
REMARK    2  A    between atoms: N_8  and  C_23
REMARK    3  A    between atoms: C_15  and  C_21
REMARK    4  A    between atoms: C_23  and  C_24
REMARK                            x       y       z     vdW  Elec       q    Type
REMARK                         _______ _______ _______ _____ _____    ______ ____
ROOT
ATOM      2  O   UNL     1      15.147   8.659  21.971  0.00  0.00    -0.253 OA
ATOM      4  N   UNL     1      14.212   8.974  19.857  0.00  0.00    -0.268 N 
ATOM      5  N   UNL     1      15.355  10.721  20.979  0.00  0.00    -0.296 N 
ATOM      6  N   UNL     1      12.316   9.888  16.743  0.00  0.00    -0.347 N 
ATOM      7  N   UNL     1      11.275   7.935  17.045  0.00  0.00    -0.240 NA
ATOM     15  C   UNL     1      13.901   7.524  19.730  0.00  0.00    +0.170 C 
ATOM     16  C   UNL     1      12.519   7.205  19.123  0.00  0.00    +0.089 C 
ATOM     17  C   UNL     1      13.943   9.880  18.701  0.00  0.00    +0.165 C 
ATOM     18  C   UNL     1      14.919   9.399  21.009  0.00  0.00    +0.303 C 
ATOM     19  C   UNL     1      12.868   9.327  17.856  0.00  0.00    +0.056 A 
ATOM     20  C   UNL     1      12.215   8.131  18.017  0.00  0.00    +0.066 A 
ATOM     22  C   UNL     1      11.362   9.013  16.290  0.00  0.00    +0.197 A 
ATOM     30  H   UNL     1      15.291  11.254  20.121  0.00  0.00    +0.151 HD
ATOM     31  H   UNL     1      12.561  10.777  16.328  0.00  0.00    +0.167 HD
ENDROOT
BRANCH   5   9
ATOM      9  C   UNL     1      16.100  11.310  22.069  0.00  0.00    +0.074 C 
ATOM     10  C   UNL     1      17.583  10.934  21.989  0.00  0.00    +0.022 C 
ATOM     11  C   UNL     1      15.913  12.831  22.105  0.00  0.00    +0.022 C 
ATOM     12  C   UNL     1      18.306  11.642  20.844  0.00  0.00    +0.002 C 
ATOM     13  C   UNL     1      16.638  13.536  20.960  0.00  0.00    +0.002 C 
ATOM     14  C   UNL     1      18.116  13.155  20.908  0.00  0.00    +0.000 C 
ENDBRANCH   5   9
BRANCH  15  21
ATOM      3  O   UNL     1      14.960   6.862  17.693  0.00  0.00    -0.274 OA
ATOM      8  N   UNL     1      16.066   6.494  19.709  0.00  0.00    -0.310 N 
ATOM     21  C   UNL     1      15.019   6.937  18.917  0.00  0.00    +0.234 C 
ATOM     32  H   UNL     1      16.023   6.627  20.714  0.00  0.00    +0.149 HD
BRANCH   8  23
ATOM     23  C   UNL     1      17.253   5.869  19.172  0.00  0.00    +0.139 C 
BRANCH  23  24
ATOM      1 CL   UNL     1      21.970   6.474  22.850  0.00  0.00    -0.084 Cl
ATOM     24  C   UNL     1      18.432   6.020  20.090  0.00  0.00    -0.030 A 
ATOM     25  C   UNL     1      18.453   7.046  21.034  0.00  0.00    +0.006 A 
ATOM     26  C   UNL     1      19.505   5.133  19.999  0.00  0.00    +0.006 A 
ATOM     27  C   UNL     1      19.548   7.187  21.886  0.00  0.00    +0.020 A 
ATOM     28  C   UNL     1      20.600   5.274  20.852  0.00  0.00    +0.020 A 
ATOM     29  C   UNL     1      20.621   6.301  21.795  0.00  0.00    +0.041 A 
ENDBRANCH  23  24
ENDBRANCH   8  23
ENDBRANCH  15  21
TORSDOF 4
ENDMDL
MODEL 3
REMARK VINA RESULT:      -6.9     11.446     16.144
REMARK  Name = 26745257
REMARK  4 active torsions:
REMARK  status: ('A' for Active; 'I' for Inactive)
REMARK    1  A    between atoms: N_5  and  C_9
REMARK    2  A    between atoms: N_8  and  C_23
REMARK    3  A    between atoms: C_15  and  C_21
REMARK    4  A    between atoms: C_23  and  C_24
REMARK                            x       y       z     vdW  Elec       q    Type
REMARK                         _______ _______ _______ _____ _____    ______ ____
ROOT
ATOM      2  O   UNL     1       9.924   7.488   2.922  0.00  0.00    -0.253 OA
ATOM      4  N   UNL     1      10.261   6.597   5.052  0.00  0.00    -0.268 N 
ATOM      5  N   UNL     1      11.223   5.604   3.129  0.00  0.00    -0.296 N 
ATOM      6  N   UNL     1      10.475   4.666   8.269  0.00  0.00    -0.347 N 
ATOM      7  N   UNL     1       8.855   6.036   8.966  0.00  0.00    -0.240 NA
ATOM     15  C   UNL     1       9.604   7.769   5.693  0.00  0.00    +0.170 C 
ATOM     16  C   UNL     1       8.656   7.425   6.861  0.00  0.00    +0.089 C 
ATOM     17  C   UNL     1      10.878   5.547   5.915  0.00  0.00    +0.165 C 
ATOM     18  C   UNL     1      10.430   6.624   3.646  0.00  0.00    +0.303 C 
ATOM     19  C   UNL     1      10.221   5.517   7.235  0.00  0.00    +0.056 A 
ATOM     20  C   UNL     1       9.227   6.347   7.689  0.00  0.00    +0.066 A 
ATOM     22  C   UNL     1       9.628   5.018   9.289  0.00  0.00    +0.197 A 
ATOM     30  H   UNL     1      11.749   5.006   3.754  0.00  0.00    +0.151 HD
ATOM     31  H   UNL     1      11.157   3.919   8.285  0.00  0.00    +0.167 HD
ENDROOT
BRANCH   5   9
ATOM      9  C   UNL     1      11.505   5.490   1.714  0.00  0.00    +0.074 C 
ATOM     10  C   UNL     1      12.836   6.163   1.363  0.00  0.00    +0.022 C 
ATOM     11  C   UNL     1      11.487   4.025   1.265  0.00  0.00    +0.022 C 
ATOM     12  C   UNL     1      14.043   5.376   1.873  0.00  0.00    +0.002 C 
ATOM     13  C   UNL     1      12.695   3.242   1.776  0.00  0.00    +0.002 C 
ATOM     14  C   UNL     1      14.009   3.924   1.403  0.00  0.00    +0.000 C 
ENDBRANCH   5   9
BRANCH  15  21
ATOM      3  O   UNL     1      11.824   8.646   5.591  0.00  0.00    -0.274 OA
ATOM      8  N   UNL     1      10.349   9.498   7.178  0.00  0.00    -0.310 N 
ATOM     21  C   UNL     1      10.720   8.677   6.126  0.00  0.00    +0.234 C 
ATOM     32  H   UNL     1       9.398   9.458   7.532  0.00  0.00    +0.149 HD
BRANCH   8  23
ATOM     23  C   UNL     1      11.247  10.448   7.793  0.00  0.00    +0.139 C 
BRANCH  23  24
ATOM      1 CL   UNL     1       9.056  12.596  12.964  0.00  0.00    -0.084 Cl
ATOM     24  C   UNL     1      10.699  10.984   9.085  0.00  0.00    -0.030 A 
ATOM     25  C   UNL     1      11.556  11.576  10.013  0.00  0.00    +0.006 A 
ATOM     26  C   UNL     1       9.334  10.891   9.356  0.00  0.00    +0.006 A 
ATOM     27  C   UNL     1      11.048  12.073  11.212  0.00  0.00    +0.020 A 
ATOM     28  C   UNL     1       8.826  11.388  10.556  0.00  0.00    +0.020 A 
ATOM     29  C   UNL     1       9.683  11.979  11.484  0.00  0.00    +0.041 A 
ENDBRANCH  23  24
ENDBRANCH   8  23
ENDBRANCH  15  21
TORSDOF 4
ENDMDL
MODEL 4
REMARK VINA RESULT:      -6.7     27.708     29.581
REMARK  Name = 26745257
REMARK  4 active torsions:
REMARK  status: ('A' for Active; 'I' for Inactive)
REMARK    1  A    between atoms: N_5  and  C_9
REMARK    2  A    between atoms: N_8  and  C_23
REMARK    3  A    between atoms: C_15  and  C_21
REMARK    4  A    between atoms: C_23  and  C_24
REMARK                            x       y       z     vdW  Elec       q    Type
REMARK                         _______ _______ _______ _____ _____    ______ ____
ROOT
ATOM      2  O   UNL     1      -2.314 -10.877  13.750  0.00  0.00    -0.253 OA
ATOM      4  N   UNL     1      -4.502 -10.570  14.500  0.00  0.00    -0.268 N 
ATOM      5  N   UNL     1      -3.953 -10.442  12.199  0.00  0.00    -0.296 N 
ATOM      6  N   UNL     1      -7.956  -9.482  15.503  0.00  0.00    -0.347 N 
ATOM      7  N   UNL     1      -7.105  -9.367  17.564  0.00  0.00    -0.240 NA
ATOM     15  C   UNL     1      -4.131 -10.981  15.882  0.00  0.00    +0.170 C 
ATOM     16  C   UNL     1      -4.758 -10.128  17.005  0.00  0.00    +0.089 C 
ATOM     17  C   UNL     1      -5.933 -10.287  14.185  0.00  0.00    +0.165 C 
ATOM     18  C   UNL     1      -3.501 -10.643  13.500  0.00  0.00    +0.303 C 
ATOM     19  C   UNL     1      -6.653  -9.868  15.401  0.00  0.00    +0.056 A 
ATOM     20  C   UNL     1      -6.156  -9.791  16.678  0.00  0.00    +0.066 A 
ATOM     22  C   UNL     1      -8.182  -9.191  16.825  0.00  0.00    +0.197 A 
ATOM     30  H   UNL     1      -4.947 -10.408  12.009  0.00  0.00    +0.151 HD
ATOM     31  H   UNL     1      -8.631  -9.422  14.752  0.00  0.00    +0.167 HD
ENDROOT
BRANCH   5   9
ATOM      9  C   UNL     1      -3.064 -10.492  11.059  0.00  0.00    +0.074 C 
ATOM     10  C   UNL     1      -3.469 -11.611  10.094  0.00  0.00    +0.022 C 
ATOM     11  C   UNL     1      -3.005  -9.137  10.345  0.00  0.00    +0.022 C 
ATOM     12  C   UNL     1      -4.756 -11.291   9.334  0.00  0.00    +0.002 C 
ATOM     13  C   UNL     1      -4.292  -8.820   9.585  0.00  0.00    +0.002 C 
ATOM     14  C   UNL     1      -4.669  -9.943   8.622  0.00  0.00    +0.000 C 
ENDBRANCH   5   9
BRANCH  15  21
ATOM      3  O   UNL     1      -5.461 -12.794  16.691  0.00  0.00    -0.274 OA
ATOM      8  N   UNL     1      -3.686 -13.252  15.256  0.00  0.00    -0.310 N 
ATOM     21  C   UNL     1      -4.519 -12.428  15.995  0.00  0.00    +0.234 C 
ATOM     32  H   UNL     1      -2.946 -12.842  14.694  0.00  0.00    +0.149 HD
BRANCH   8  23
ATOM     23  C   UNL     1      -3.831 -14.690  15.214  0.00  0.00    +0.139 C 
BRANCH  23  24
ATOM      1 CL   UNL     1      -0.284 -17.192  11.055  0.00  0.00    -0.084 Cl
ATOM     24  C   UNL     1      -2.945 -15.314  14.175  0.00  0.00    -0.030 A 
ATOM     25  C   UNL     1      -2.059 -16.329  14.534  0.00  0.00    +0.006 A 
ATOM     26  C   UNL     1      -3.009 -14.879  12.851  0.00  0.00    +0.006 A 
ATOM     27  C   UNL     1      -1.236 -16.909  13.569  0.00  0.00    +0.020 A 
ATOM     28  C   UNL     1      -2.186 -15.459  11.886  0.00  0.00    +0.020 A 
ATOM     29  C   UNL     1      -1.298 -16.474  12.245  0.00  0.00    +0.041 A 
ENDBRANCH  23  24
ENDBRANCH   8  23
ENDBRANCH  15  21
TORSDOF 4
ENDMDL
MODEL 5
REMARK VINA RESULT:      -6.6     13.520     16.788
REMARK  Name = 26745257
REMARK  4 active torsions:
REMARK  status: ('A' for Active; 'I' for Inactive)
REMARK    1  A    between atoms: N_5  and  C_9
REMARK    2  A    between atoms: N_8  and  C_23
REMARK    3  A    between atoms: C_15  and  C_21
REMARK    4  A    between atoms: C_23  and  C_24
REMARK                            x       y       z     vdW  Elec       q    Type
REMARK                         _______ _______ _______ _____ _____    ______ ____
ROOT
ATOM      2  O   UNL     1       9.692   7.797   3.805  0.00  0.00    -0.253 OA
ATOM      4  N   UNL     1      10.021   6.504   5.719  0.00  0.00    -0.268 N 
ATOM      5  N   UNL     1      10.709   5.748   3.582  0.00  0.00    -0.296 N 
ATOM      6  N   UNL     1      10.140   4.020   8.537  0.00  0.00    -0.347 N 
ATOM      7  N   UNL     1       8.785   5.451   9.589  0.00  0.00    -0.240 NA
ATOM     15  C   UNL     1       9.584   7.621   6.601  0.00  0.00    +0.170 C 
ATOM     16  C   UNL     1       8.668   7.206   7.771  0.00  0.00    +0.089 C 
ATOM     17  C   UNL     1      10.527   5.244   6.339  0.00  0.00    +0.165 C 
ATOM     18  C   UNL     1      10.107   6.758   4.328  0.00  0.00    +0.303 C 
ATOM     19  C   UNL     1       9.953   5.068   7.685  0.00  0.00    +0.056 A 
ATOM     20  C   UNL     1       9.122   5.931   8.355  0.00  0.00    +0.066 A 
ATOM     22  C   UNL     1       9.418   4.297   9.670  0.00  0.00    +0.197 A 
ATOM     30  H   UNL     1      11.176   4.983   4.052  0.00  0.00    +0.151 HD
ATOM     31  H   UNL     1      10.704   3.197   8.370  0.00  0.00    +0.167 HD
ENDROOT
BRANCH   5   9
ATOM      9  C   UNL     1      10.885   5.851   2.150  0.00  0.00    +0.074 C 
ATOM     10  C   UNL     1      12.232   6.494   1.806  0.00  0.00    +0.022 C 
ATOM     11  C   UNL     1      10.734   4.483   1.476  0.00  0.00    +0.022 C 
ATOM     12  C   UNL     1      13.413   5.566   2.089  0.00  0.00    +0.002 C 
ATOM     13  C   UNL     1      11.917   3.558   1.760  0.00  0.00    +0.002 C 
ATOM     14  C   UNL     1      13.246   4.215   1.399  0.00  0.00    +0.000 C 
ENDBRANCH   5   9
BRANCH  15  21
ATOM      3  O   UNL     1      10.848   9.060   8.030  0.00  0.00    -0.274 OA
ATOM      8  N   UNL     1      11.948   7.911   6.329  0.00  0.00    -0.310 N 
ATOM     21  C   UNL     1      10.846   8.278   7.083  0.00  0.00    +0.234 C 
ATOM     32  H   UNL     1      11.839   7.236   5.579  0.00  0.00    +0.149 HD
BRANCH   8  23
ATOM     23  C   UNL     1      13.279   8.421   6.574  0.00  0.00    +0.139 C 
BRANCH  23  24
ATOM      1 CL   UNL     1      16.744   8.118   1.671  0.00  0.00    -0.084 Cl
ATOM     24  C   UNL     1      14.144   8.345   5.350  0.00  0.00    -0.030 A 
ATOM     25  C   UNL     1      13.804   9.071   4.209  0.00  0.00    +0.006 A 
ATOM     26  C   UNL     1      15.289   7.547   5.353  0.00  0.00    +0.006 A 
ATOM     27  C   UNL     1      14.607   9.000   3.072  0.00  0.00    +0.020 A 
ATOM     28  C   UNL     1      16.092   7.476   4.216  0.00  0.00    +0.020 A 
ATOM     29  C   UNL     1      15.751   8.202   3.074  0.00  0.00    +0.041 A 
ENDBRANCH  23  24
ENDBRANCH   8  23
ENDBRANCH  15  21
TORSDOF 4
ENDMDL
MODEL 6
REMARK VINA RESULT:      -6.6     27.734     29.550
REMARK  Name = 26745257
REMARK  4 active torsions:
REMARK  status: ('A' for Active; 'I' for Inactive)
REMARK    1  A    between atoms: N_5  and  C_9
REMARK    2  A    between atoms: N_8  and  C_23
REMARK    3  A    between atoms: C_15  and  C_21
REMARK    4  A    between atoms: C_23  and  C_24
REMARK                            x       y       z     vdW  Elec       q    Type
REMARK                         _______ _______ _______ _____ _____    ______ ____
ROOT
ATOM      2  O   UNL     1      -1.831 -11.334  12.557  0.00  0.00    -0.253 OA
ATOM      4  N   UNL     1      -3.491 -11.425  10.920  0.00  0.00    -0.268 N 
ATOM      5  N   UNL     1      -2.667 -13.389  11.959  0.00  0.00    -0.296 N 
ATOM      6  N   UNL     1      -5.730 -11.875   7.935  0.00  0.00    -0.347 N 
ATOM      7  N   UNL     1      -5.264  -9.731   7.514  0.00  0.00    -0.240 NA
ATOM     15  C   UNL     1      -3.626  -9.943  10.913  0.00  0.00    +0.170 C 
ATOM     16  C   UNL     1      -3.772  -9.310   9.514  0.00  0.00    +0.089 C 
ATOM     17  C   UNL     1      -4.419 -12.244  10.085  0.00  0.00    +0.165 C 
ATOM     18  C   UNL     1      -2.603 -12.002  11.861  0.00  0.00    +0.303 C 
ATOM     19  C   UNL     1      -4.908 -11.457   8.939  0.00  0.00    +0.056 A 
ATOM     20  C   UNL     1      -4.640 -10.140   8.659  0.00  0.00    +0.066 A 
ATOM     22  C   UNL     1      -5.916 -10.800   7.103  0.00  0.00    +0.197 A 
ATOM     30  H   UNL     1      -3.411 -13.894  11.494  0.00  0.00    +0.151 HD
ATOM     31  H   UNL     1      -6.130 -12.797   7.824  0.00  0.00    +0.167 HD
ENDROOT
BRANCH   5   9
ATOM      9  C   UNL     1      -1.836 -14.136  12.878  0.00  0.00    +0.074 C 
ATOM     10  C   UNL     1      -2.383 -14.053  14.306  0.00  0.00    +0.022 C 
ATOM     11  C   UNL     1      -1.682 -15.591  12.424  0.00  0.00    +0.022 C 
ATOM     12  C   UNL     1      -3.666 -14.864  14.489  0.00  0.00    +0.002 C 
ATOM     13  C   UNL     1      -2.966 -16.400  12.610  0.00  0.00    +0.002 C 
ATOM     14  C   UNL     1      -3.485 -16.312  14.042  0.00  0.00    +0.000 C 
ENDBRANCH   5   9
BRANCH  15  21
ATOM      3  O   UNL     1      -5.714  -8.899  11.423  0.00  0.00    -0.274 OA
ATOM      8  N   UNL     1      -4.712 -10.256  13.028  0.00  0.00    -0.310 N 
ATOM     21  C   UNL     1      -4.805  -9.636  11.792  0.00  0.00    +0.234 C 
ATOM     32  H   UNL     1      -3.924 -10.867  13.222  0.00  0.00    +0.149 HD
BRANCH   8  23
ATOM     23  C   UNL     1      -5.706 -10.105  14.065  0.00  0.00    +0.139 C 
BRANCH  23  24
ATOM      1 CL   UNL     1      -3.712 -12.038  19.397  0.00  0.00    -0.084 Cl
ATOM     24  C   UNL     1      -5.208 -10.587  15.396  0.00  0.00    -0.030 A 
ATOM     25  C   UNL     1      -6.115 -10.902  16.408  0.00  0.00    +0.006 A 
ATOM     26  C   UNL     1      -3.838 -10.720  15.622  0.00  0.00    +0.006 A 
ATOM     27  C   UNL     1      -5.652 -11.350  17.645  0.00  0.00    +0.020 A 
ATOM     28  C   UNL     1      -3.375 -11.168  16.859  0.00  0.00    +0.020 A 
ATOM     29  C   UNL     1      -4.282 -11.482  17.871  0.00  0.00    +0.041 A 
ENDBRANCH  23  24
ENDBRANCH   8  23
ENDBRANCH  15  21
TORSDOF 4
ENDMDL
MODEL 7
REMARK VINA RESULT:      -6.5     14.633     18.104
REMARK  Name = 26745257
REMARK  4 active torsions:
REMARK  status: ('A' for Active; 'I' for Inactive)
REMARK    1  A    between atoms: N_5  and  C_9
REMARK    2  A    between atoms: N_8  and  C_23
REMARK    3  A    between atoms: C_15  and  C_21
REMARK    4  A    between atoms: C_23  and  C_24
REMARK                            x       y       z     vdW  Elec       q    Type
REMARK                         _______ _______ _______ _____ _____    ______ ____
ROOT
ATOM      2  O   UNL     1      10.563   6.819   3.754  0.00  0.00    -0.253 OA
ATOM      4  N   UNL     1      12.708   7.159   4.605  0.00  0.00    -0.268 N 
ATOM      5  N   UNL     1      11.044   6.030   5.857  0.00  0.00    -0.296 N 
ATOM      6  N   UNL     1      15.878   8.078   6.403  0.00  0.00    -0.347 N 
ATOM      7  N   UNL     1      16.203   9.482   4.696  0.00  0.00    -0.240 NA
ATOM     15  C   UNL     1      13.193   7.677   3.297  0.00  0.00    +0.170 C 
ATOM     16  C   UNL     1      14.116   8.910   3.385  0.00  0.00    +0.089 C 
ATOM     17  C   UNL     1      13.681   6.987   5.724  0.00  0.00    +0.165 C 
ATOM     18  C   UNL     1      11.376   6.682   4.673  0.00  0.00    +0.303 C 
ATOM     19  C   UNL     1      14.819   7.910   5.561  0.00  0.00    +0.056 A 
ATOM     20  C   UNL     1      15.044   8.779   4.524  0.00  0.00    +0.066 A 
ATOM     22  C   UNL     1      16.684   9.034   5.839  0.00  0.00    +0.197 A 
ATOM     30  H   UNL     1      11.767   5.796   6.525  0.00  0.00    +0.151 HD
ATOM     31  H   UNL     1      16.043   7.592   7.275  0.00  0.00    +0.167 HD
ENDROOT
BRANCH   5   9
ATOM      9  C   UNL     1       9.728   5.473   6.087  0.00  0.00    +0.074 C 
ATOM     10  C   UNL     1       9.793   4.292   7.060  0.00  0.00    +0.022 C 
ATOM     11  C   UNL     1       8.754   6.548   6.580  0.00  0.00    +0.022 C 
ATOM     12  C   UNL     1      10.079   4.731   8.495  0.00  0.00    +0.002 C 
ATOM     13  C   UNL     1       9.042   6.984   8.016  0.00  0.00    +0.002 C 
ATOM     14  C   UNL     1       9.089   5.792   8.968  0.00  0.00    +0.000 C 
ENDBRANCH   5   9
BRANCH  15  21
ATOM      3  O   UNL     1      15.063   6.544   2.331  0.00  0.00    -0.274 OA
ATOM      8  N   UNL     1      12.997   5.471   2.377  0.00  0.00    -0.310 N 
ATOM     21  C   UNL     1      13.871   6.516   2.625  0.00  0.00    +0.234 C 
ATOM     32  H   UNL     1      12.032   5.543   2.684  0.00  0.00    +0.149 HD
BRANCH   8  23
ATOM     23  C   UNL     1      13.395   4.247   1.720  0.00  0.00    +0.139 C 
BRANCH  23  24
ATOM      1 CL   UNL     1      10.258   3.267  -3.314  0.00  0.00    -0.084 Cl
ATOM     24  C   UNL     1      12.612   4.003   0.463  0.00  0.00    -0.030 A 
ATOM     25  C   UNL     1      13.145   3.203  -0.548  0.00  0.00    +0.006 A 
ATOM     26  C   UNL     1      11.349   4.575   0.305  0.00  0.00    +0.006 A 
ATOM     27  C   UNL     1      12.418   2.977  -1.715  0.00  0.00    +0.020 A 
ATOM     28  C   UNL     1      10.622   4.349  -0.863  0.00  0.00    +0.020 A 
ATOM     29  C   UNL     1      11.156   3.550  -1.874  0.00  0.00    +0.041 A 
ENDBRANCH  23  24
ENDBRANCH   8  23
ENDBRANCH  15  21
TORSDOF 4
ENDMDL
MODEL 8
REMARK VINA RESULT:      -6.4     13.106     17.212
REMARK  Name = 26745257
REMARK  4 active torsions:
REMARK  status: ('A' for Active; 'I' for Inactive)
REMARK    1  A    between atoms: N_5  and  C_9
REMARK    2  A    between atoms: N_8  and  C_23
REMARK    3  A    between atoms: C_15  and  C_21
REMARK    4  A    between atoms: C_23  and  C_24
REMARK                            x       y       z     vdW  Elec       q    Type
REMARK                         _______ _______ _______ _____ _____    ______ ____
ROOT
ATOM      2  O   UNL     1       9.774   6.327   1.765  0.00  0.00    -0.253 OA
ATOM      4  N   UNL     1      10.320   6.378   4.032  0.00  0.00    -0.268 N 
ATOM      5  N   UNL     1      11.901   5.724   2.392  0.00  0.00    -0.296 N 
ATOM      6  N   UNL     1      11.258   5.831   7.630  0.00  0.00    -0.347 N 
ATOM      7  N   UNL     1       9.073   6.074   8.028  0.00  0.00    -0.240 NA
ATOM     15  C   UNL     1       9.028   7.033   4.373  0.00  0.00    +0.170 C 
ATOM     16  C   UNL     1       8.339   6.492   5.643  0.00  0.00    +0.089 C 
ATOM     17  C   UNL     1      11.333   6.162   5.108  0.00  0.00    +0.165 C 
ATOM     18  C   UNL     1      10.604   6.152   2.662  0.00  0.00    +0.303 C 
ATOM     19  C   UNL     1      10.672   6.071   6.422  0.00  0.00    +0.056 A 
ATOM     20  C   UNL     1       9.336   6.219   6.695  0.00  0.00    +0.066 A 
ATOM     22  C   UNL     1      10.254   5.844   8.566  0.00  0.00    +0.197 A 
ATOM     30  H   UNL     1      12.600   5.739   3.123  0.00  0.00    +0.151 HD
ATOM     31  H   UNL     1      12.241   5.676   7.807  0.00  0.00    +0.167 HD
ENDROOT
BRANCH   5   9
ATOM      9  C   UNL     1      12.358   5.457   1.046  0.00  0.00    +0.074 C 
ATOM     10  C   UNL     1      13.798   5.939   0.848  0.00  0.00    +0.022 C 
ATOM     11  C   UNL     1      12.217   3.971   0.700  0.00  0.00    +0.022 C 
ATOM     12  C   UNL     1      14.814   5.066   1.584  0.00  0.00    +0.002 C 
ATOM     13  C   UNL     1      13.234   3.101   1.436  0.00  0.00    +0.002 C 
ATOM     14  C   UNL     1      14.662   3.593   1.215  0.00  0.00    +0.000 C 
ENDBRANCH   5   9
BRANCH  15  21
ATOM      3  O   UNL     1      10.333   8.995   3.973  0.00  0.00    -0.274 OA
ATOM      8  N   UNL     1       8.377   9.178   5.224  0.00  0.00    -0.310 N 
ATOM     21  C   UNL     1       9.332   8.501   4.483  0.00  0.00    +0.234 C 
ATOM     32  H   UNL     1       7.572   8.675   5.582  0.00  0.00    +0.149 HD
BRANCH   8  23
ATOM     23  C   UNL     1       8.448  10.596   5.496  0.00  0.00    +0.139 C 
BRANCH  23  24
ATOM      1 CL   UNL     1      12.010  11.817  10.182  0.00  0.00    -0.084 Cl
ATOM     24  C   UNL     1       9.338  10.900   6.666  0.00  0.00    -0.030 A 
ATOM     25  C   UNL     1      10.039  12.106   6.715  0.00  0.00    +0.006 A 
ATOM     26  C   UNL     1       9.464   9.978   7.705  0.00  0.00    +0.006 A 
ATOM     27  C   UNL     1      10.865  12.388   7.801  0.00  0.00    +0.020 A 
ATOM     28  C   UNL     1      10.291  10.261   8.792  0.00  0.00    +0.020 A 
ATOM     29  C   UNL     1      10.992  11.466   8.840  0.00  0.00    +0.041 A 
ENDBRANCH  23  24
ENDBRANCH   8  23
ENDBRANCH  15  21
TORSDOF 4
ENDMDL
MODEL 9
REMARK VINA RESULT:      -6.4     27.121     29.485
REMARK  Name = 26745257
REMARK  4 active torsions:
REMARK  status: ('A' for Active; 'I' for Inactive)
REMARK    1  A    between atoms: N_5  and  C_9
REMARK    2  A    between atoms: N_8  and  C_23
REMARK    3  A    between atoms: C_15  and  C_21
REMARK    4  A    between atoms: C_23  and  C_24
REMARK                            x       y       z     vdW  Elec       q    Type
REMARK                         _______ _______ _______ _____ _____    ______ ____
ROOT
ATOM      2  O   UNL     1      -3.139 -14.413  14.130  0.00  0.00    -0.253 OA
ATOM      4  N   UNL     1      -3.756 -12.387  13.152  0.00  0.00    -0.268 N 
ATOM      5  N   UNL     1      -5.377 -13.930  13.930  0.00  0.00    -0.296 N 
ATOM      6  N   UNL     1      -4.994  -9.482  11.113  0.00  0.00    -0.347 N 
ATOM      7  N   UNL     1      -2.863  -9.280  10.476  0.00  0.00    -0.240 NA
ATOM     15  C   UNL     1      -2.344 -11.917  13.131  0.00  0.00    +0.170 C 
ATOM     16  C   UNL     1      -1.918 -11.191  11.839  0.00  0.00    +0.089 C 
ATOM     17  C   UNL     1      -4.838 -11.458  12.711  0.00  0.00    +0.165 C 
ATOM     18  C   UNL     1      -4.027 -13.637  13.762  0.00  0.00    +0.303 C 
ATOM     19  C   UNL     1      -4.304 -10.461  11.765  0.00  0.00    +0.056 A 
ATOM     20  C   UNL     1      -3.002 -10.313  11.359  0.00  0.00    +0.066 A 
ATOM     22  C   UNL     1      -4.083  -8.797  10.350  0.00  0.00    +0.197 A 
ATOM     30  H   UNL     1      -6.074 -13.215  13.764  0.00  0.00    +0.151 HD
ATOM     31  H   UNL     1      -5.985  -9.293  11.180  0.00  0.00    +0.167 HD
ENDROOT
BRANCH   5   9
ATOM      9  C   UNL     1      -5.827 -15.160  14.545  0.00  0.00    +0.074 C 
ATOM     10  C   UNL     1      -5.572 -15.145  16.056  0.00  0.00    +0.022 C 
ATOM     11  C   UNL     1      -7.304 -15.424  14.233  0.00  0.00    +0.022 C 
ATOM     12  C   UNL     1      -6.509 -14.193  16.798  0.00  0.00    +0.002 C 
ATOM     13  C   UNL     1      -8.238 -14.472  14.978  0.00  0.00    +0.002 C 
ATOM     14  C   UNL     1      -7.973 -14.483  16.481  0.00  0.00    +0.000 C 
ENDBRANCH   5   9
BRANCH  15  21
ATOM      3  O   UNL     1      -1.693  -9.922  14.273  0.00  0.00    -0.274 OA
ATOM      8  N   UNL     1      -2.637 -11.662  15.497  0.00  0.00    -0.310 N 
ATOM     21  C   UNL     1      -2.187 -11.043  14.343  0.00  0.00    +0.234 C 
ATOM     32  H   UNL     1      -3.052 -12.587  15.439  0.00  0.00    +0.149 HD
BRANCH   8  23
ATOM     23  C   UNL     1      -2.577 -11.043  16.802  0.00  0.00    +0.139 C 
BRANCH  23  24
ATOM      1 CL   UNL     1      -7.928 -11.056  19.544  0.00  0.00    -0.084 Cl
ATOM     24  C   UNL     1      -3.913 -11.046  17.487  0.00  0.00    -0.030 A 
ATOM     25  C   UNL     1      -4.986 -10.351  16.927  0.00  0.00    +0.006 A 
ATOM     26  C   UNL     1      -4.082 -11.743  18.683  0.00  0.00    +0.006 A 
ATOM     27  C   UNL     1      -6.226 -10.354  17.564  0.00  0.00    +0.020 A 
ATOM     28  C   UNL     1      -5.323 -11.746  19.320  0.00  0.00    +0.020 A 
ATOM     29  C   UNL     1      -6.395 -11.051  18.760  0.00  0.00    +0.041 A 
ENDBRANCH  23  24
ENDBRANCH   8  23
ENDBRANCH  15  21
TORSDOF 4
ENDMDL
MODEL 10
REMARK VINA RESULT:      -6.4     23.996     26.203
REMARK  Name = 26745257
REMARK  4 active torsions:
REMARK  status: ('A' for Active; 'I' for Inactive)
REMARK    1  A    between atoms: N_5  and  C_9
REMARK    2  A    between atoms: N_8  and  C_23
REMARK    3  A    between atoms: C_15  and  C_21
REMARK    4  A    between atoms: C_23  and  C_24
REMARK                            x       y       z     vdW  Elec       q    Type
REMARK                         _______ _______ _______ _____ _____    ______ ____
ROOT
ATOM      2  O   UNL     1     -10.054   8.678  17.161  0.00  0.00    -0.253 OA
ATOM      4  N   UNL     1     -12.099   8.453  16.062  0.00  0.00    -0.268 N 
ATOM      5  N   UNL     1     -11.960   8.463  18.427  0.00  0.00    -0.296 N 
ATOM      6  N   UNL     1     -15.405   7.510  14.542  0.00  0.00    -0.347 N 
ATOM      7  N   UNL     1     -14.226   7.189  12.672  0.00  0.00    -0.240 NA
ATOM     15  C   UNL     1     -11.470   8.735  14.742  0.00  0.00    +0.170 C 
ATOM     16  C   UNL     1     -11.958   7.842  13.584  0.00  0.00    +0.089 C 
ATOM     17  C   UNL     1     -13.580   8.284  16.139  0.00  0.00    +0.165 C 
ATOM     18  C   UNL     1     -11.280   8.538  17.215  0.00  0.00    +0.303 C 
ATOM     19  C   UNL     1     -14.112   7.821  14.845  0.00  0.00    +0.056 A 
ATOM     20  C   UNL     1     -13.413   7.618  13.682  0.00  0.00    +0.066 A 
ATOM     22  C   UNL     1     -15.423   7.136  13.222  0.00  0.00    +0.197 A 
ATOM     30  H   UNL     1     -12.971   8.506  18.442  0.00  0.00    +0.151 HD
ATOM     31  H   UNL     1     -16.199   7.549  15.166  0.00  0.00    +0.167 HD
ENDROOT
BRANCH   5   9
ATOM      9  C   UNL     1     -11.276   8.544  19.699  0.00  0.00    +0.074 C 
ATOM     10  C   UNL     1     -11.604   9.856  20.418  0.00  0.00    +0.022 C 
ATOM     11  C   UNL     1     -11.604   7.332  20.578  0.00  0.00    +0.022 C 
ATOM     12  C   UNL     1     -13.035   9.888  20.955  0.00  0.00    +0.002 C 
ATOM     13  C   UNL     1     -13.034   7.367  21.114  0.00  0.00    +0.002 C 
ATOM     14  C   UNL     1     -13.333   8.679  21.836  0.00  0.00    +0.000 C 
ENDBRANCH   5   9
BRANCH  15  21
ATOM      3  O   UNL     1     -12.621  10.565  13.723  0.00  0.00    -0.274 OA
ATOM      8  N   UNL     1     -10.829  11.012  15.140  0.00  0.00    -0.310 N 
ATOM     21  C   UNL     1     -11.724  10.192  14.472  0.00  0.00    +0.234 C 
ATOM     32  H   UNL     1     -10.136  10.598  15.757  0.00  0.00    +0.149 HD
BRANCH   8  23
ATOM     23  C   UNL     1     -10.845  12.453  15.031  0.00  0.00    +0.139 C 
BRANCH  23  24
ATOM      1 CL   UNL     1      -5.412  14.844  15.987  0.00  0.00    -0.084 Cl
ATOM     24  C   UNL     1      -9.488  13.049  15.270  0.00  0.00    -0.030 A 
ATOM     25  C   UNL     1      -8.884  13.827  14.281  0.00  0.00    +0.006 A 
ATOM     26  C   UNL     1      -8.831  12.827  16.480  0.00  0.00    +0.006 A 
ATOM     27  C   UNL     1      -7.624  14.381  14.503  0.00  0.00    +0.020 A 
ATOM     28  C   UNL     1      -7.571  13.381  16.702  0.00  0.00    +0.020 A 
ATOM     29  C   UNL     1      -6.967  14.158  15.713  0.00  0.00    +0.041 A 
ENDBRANCH  23  24
ENDBRANCH   8  23
ENDBRANCH  15  21
TORSDOF 4
ENDMDL
