MODEL 1
REMARK VINA RESULT:      -6.3      0.000      0.000
REMARK  Name = 45783897
REMARK  12 active torsions:
REMARK  status: ('A' for Active; 'I' for Inactive)
REMARK    1  A    between atoms: N_3  and  C_11
REMARK    2  A    between atoms: N_4  and  C_23
REMARK    3  A    between atoms: C_6  and  C_10
REMARK    4  A    between atoms: C_7  and  C_11
REMARK    5  A    between atoms: C_9  and  C_17
REMARK    6  A    between atoms: C_10  and  C_18
REMARK    7  A    between atoms: C_10  and  C_19
REMARK    8  A    between atoms: C_12  and  C_21
REMARK    9  A    between atoms: C_13  and  C_20
REMARK   10  A    between atoms: C_17  and  C_22
REMARK   11  A    between atoms: C_23  and  C_24
REMARK   12  A    between atoms: C_29  and  C_30
REMARK                            x       y       z     vdW  Elec       q    Type
REMARK                         _______ _______ _______ _____ _____    ______ ____
ROOT
ATOM      6  C   UNL     1      -5.858 -10.589  15.144  0.00  0.00    +0.000 C 
ATOM      7  C   UNL     1      -6.725 -10.567  16.427  0.00  0.00    +0.032 C 
ATOM      8  C   UNL     1      -4.897 -11.788  15.167  0.00  0.00    +0.012 C 
ATOM      9  C   UNL     1      -3.960 -11.761  16.389  0.00  0.00    +0.023 C 
ATOM     12  C   UNL     1      -4.715 -11.474  17.671  0.00  0.00    -0.073 C 
ATOM     14  C   UNL     1      -5.955 -10.953  17.669  0.00  0.00    -0.022 C 
ATOM     21  C   UNL     1      -4.030 -11.843  18.957  0.00  0.00    +0.039 C 
ENDROOT
BRANCH   6  10
ATOM     10  C   UNL     1      -6.717 -10.637  13.878  0.00  0.00    -0.013 C 
ATOM     18  C   UNL     1      -6.655 -12.024  13.244  0.00  0.00    +0.007 C 
ATOM     19  C   UNL     1      -6.266  -9.569  12.886  0.00  0.00    +0.007 C 
ENDBRANCH   6  10
BRANCH   7  11
ATOM     11  C   UNL     1      -7.372  -9.193  16.635  0.00  0.00    +0.112 C 
BRANCH  11   3
ATOM      1  O   UNL     1      -9.675  -7.441  16.340  0.00  0.00    -0.276 OA
ATOM      3  N   UNL     1      -8.653  -9.323  17.257  0.00  0.00    -0.315 N 
ATOM     20  C   UNL     1      -9.701  -8.433  17.057  0.00  0.00    +0.216 C 
ATOM     31  H   UNL     1      -8.820 -10.137  17.844  0.00  0.00    +0.149 HD
BRANCH  20  13
ATOM     13  C   UNL     1     -10.950  -8.767  17.806  0.00  0.00    +0.075 C 
ATOM     15  C   UNL     1     -11.567 -10.121  17.624  0.00  0.00    +0.013 C 
ATOM     16  C   UNL     1     -10.889  -9.773  18.917  0.00  0.00    +0.013 C 
ENDBRANCH  20  13
ENDBRANCH  11   3
ENDBRANCH   7  11
BRANCH   9  17
ATOM     17  C   UNL     1      -2.820 -10.756  16.188  0.00  0.00    +0.103 C 
BRANCH  17  22
ATOM      2  O   UNL     1      -1.290 -12.033  14.815  0.00  0.00    -0.276 OA
ATOM      4  N   UNL     1      -2.213 -10.070  13.979  0.00  0.00    -0.311 N 
ATOM     22  C   UNL     1      -2.017 -11.051  14.941  0.00  0.00    +0.214 C 
ATOM     32  H   UNL     1      -2.836  -9.292  14.177  0.00  0.00    +0.149 HD
BRANCH   4  23
ATOM     23  C   UNL     1      -1.569 -10.092  12.686  0.00  0.00    +0.139 C 
BRANCH  23  24
ATOM     24  C   UNL     1      -2.548 -10.341  11.575  0.00  0.00    -0.030 A 
ATOM     25  C   UNL     1      -2.824  -9.333  10.651  0.00  0.00    +0.006 A 
ATOM     26  C   UNL     1      -3.181 -11.580  11.467  0.00  0.00    +0.006 A 
ATOM     27  C   UNL     1      -3.733  -9.564   9.619  0.00  0.00    +0.019 A 
ATOM     28  C   UNL     1      -4.090 -11.811  10.434  0.00  0.00    +0.019 A 
ATOM     29  C   UNL     1      -4.366 -10.802   9.510  0.00  0.00    +0.052 A 
BRANCH  29  30
ATOM      5  N   UNL     1      -6.054 -11.231   7.594  0.00  0.00    -0.191 NA
ATOM     30  C   UNL     1      -5.297 -11.039   8.452  0.00  0.00    +0.099 C 
ENDBRANCH  29  30
ENDBRANCH  23  24
ENDBRANCH   4  23
ENDBRANCH  17  22
ENDBRANCH   9  17
TORSDOF 9
ENDMDL
MODEL 2
REMARK VINA RESULT:      -6.2      2.788      7.834
REMARK  Name = 45783897
REMARK  12 active torsions:
REMARK  status: ('A' for Active; 'I' for Inactive)
REMARK    1  A    between atoms: N_3  and  C_11
REMARK    2  A    between atoms: N_4  and  C_23
REMARK    3  A    between atoms: C_6  and  C_10
REMARK    4  A    between atoms: C_7  and  C_11
REMARK    5  A    between atoms: C_9  and  C_17
REMARK    6  A    between atoms: C_10  and  C_18
REMARK    7  A    between atoms: C_10  and  C_19
REMARK    8  A    between atoms: C_12  and  C_21
REMARK    9  A    between atoms: C_13  and  C_20
REMARK   10  A    between atoms: C_17  and  C_22
REMARK   11  A    between atoms: C_23  and  C_24
REMARK   12  A    between atoms: C_29  and  C_30
REMARK                            x       y       z     vdW  Elec       q    Type
REMARK                         _______ _______ _______ _____ _____    ______ ____
ROOT
ATOM      6  C   UNL     1      -5.424 -10.583  10.631  0.00  0.00    +0.000 C 
ATOM      7  C   UNL     1      -4.829  -9.660   9.539  0.00  0.00    +0.032 C 
ATOM      8  C   UNL     1      -4.922 -10.162  12.021  0.00  0.00    +0.012 C 
ATOM      9  C   UNL     1      -3.386 -10.209  12.125  0.00  0.00    +0.023 C 
ATOM     12  C   UNL     1      -2.720  -9.547  10.936  0.00  0.00    -0.073 C 
ATOM     14  C   UNL     1      -3.384  -9.297   9.793  0.00  0.00    -0.022 C 
ATOM     21  C   UNL     1      -1.284  -9.137  11.107  0.00  0.00    +0.039 C 
ENDROOT
BRANCH   6  10
ATOM     10  C   UNL     1      -6.955 -10.576  10.609  0.00  0.00    -0.013 C 
ATOM     18  C   UNL     1      -7.485  -9.159  10.804  0.00  0.00    +0.007 C 
ATOM     19  C   UNL     1      -7.508 -11.513  11.679  0.00  0.00    +0.007 C 
ENDBRANCH   6  10
BRANCH   7  11
ATOM     11  C   UNL     1      -4.959 -10.291   8.148  0.00  0.00    +0.112 C 
BRANCH  11   3
ATOM      1  O   UNL     1      -7.711 -10.374   7.212  0.00  0.00    -0.276 OA
ATOM      3  N   UNL     1      -5.598  -9.392   7.240  0.00  0.00    -0.315 N 
ATOM     20  C   UNL     1      -6.926  -9.508   6.845  0.00  0.00    +0.216 C 
ATOM     31  H   UNL     1      -5.064  -8.597   6.897  0.00  0.00    +0.149 HD
BRANCH  20  13
ATOM     13  C   UNL     1      -7.384  -8.455   5.891  0.00  0.00    +0.075 C 
ATOM     15  C   UNL     1      -8.817  -8.451   5.445  0.00  0.00    +0.013 C 
ATOM     16  C   UNL     1      -8.318  -7.385   6.376  0.00  0.00    +0.013 C 
ENDBRANCH  20  13
ENDBRANCH  11   3
ENDBRANCH   7  11
BRANCH   9  17
ATOM     17  C   UNL     1      -2.889 -11.649  12.301  0.00  0.00    +0.103 C 
BRANCH  17  22
ATOM      2  O   UNL     1      -2.142 -13.053  14.124  0.00  0.00    -0.276 OA
ATOM      4  N   UNL     1      -2.652 -10.822  14.532  0.00  0.00    -0.311 N 
ATOM     22  C   UNL     1      -2.514 -11.949  13.735  0.00  0.00    +0.214 C 
ATOM     32  H   UNL     1      -2.969  -9.950  14.117  0.00  0.00    +0.149 HD
BRANCH   4  23
ATOM     23  C   UNL     1      -2.364 -10.817  15.948  0.00  0.00    +0.139 C 
BRANCH  23  24
ATOM     24  C   UNL     1      -3.615 -10.839  16.776  0.00  0.00    -0.030 A 
ATOM     25  C   UNL     1      -4.768 -10.202  16.315  0.00  0.00    +0.006 A 
ATOM     26  C   UNL     1      -3.627 -11.497  18.006  0.00  0.00    +0.006 A 
ATOM     27  C   UNL     1      -5.931 -10.222  17.084  0.00  0.00    +0.019 A 
ATOM     28  C   UNL     1      -4.791 -11.518  18.775  0.00  0.00    +0.019 A 
ATOM     29  C   UNL     1      -5.943 -10.880  18.313  0.00  0.00    +0.052 A 
BRANCH  29  30
ATOM      5  N   UNL     1      -8.102 -10.919  19.742  0.00  0.00    -0.191 NA
ATOM     30  C   UNL     1      -7.135 -10.902  19.102  0.00  0.00    +0.099 C 
ENDBRANCH  29  30
ENDBRANCH  23  24
ENDBRANCH   4  23
ENDBRANCH  17  22
ENDBRANCH   9  17
TORSDOF 9
ENDMDL
MODEL 3
REMARK VINA RESULT:      -6.1     23.307     26.698
REMARK  Name = 45783897
REMARK  12 active torsions:
REMARK  status: ('A' for Active; 'I' for Inactive)
REMARK    1  A    between atoms: N_3  and  C_11
REMARK    2  A    between atoms: N_4  and  C_23
REMARK    3  A    between atoms: C_6  and  C_10
REMARK    4  A    between atoms: C_7  and  C_11
REMARK    5  A    between atoms: C_9  and  C_17
REMARK    6  A    between atoms: C_10  and  C_18
REMARK    7  A    between atoms: C_10  and  C_19
REMARK    8  A    between atoms: C_12  and  C_21
REMARK    9  A    between atoms: C_13  and  C_20
REMARK   10  A    between atoms: C_17  and  C_22
REMARK   11  A    between atoms: C_23  and  C_24
REMARK   12  A    between atoms: C_29  and  C_30
REMARK                            x       y       z     vdW  Elec       q    Type
REMARK                         _______ _______ _______ _____ _____    ______ ____
ROOT
ATOM      6  C   UNL     1      12.029   8.096   5.928  0.00  0.00    +0.000 C 
ATOM      7  C   UNL     1      11.023   9.272   6.007  0.00  0.00    +0.032 C 
ATOM      8  C   UNL     1      12.374   7.784   4.464  0.00  0.00    +0.012 C 
ATOM      9  C   UNL     1      11.128   7.417   3.636  0.00  0.00    +0.023 C 
ATOM     12  C   UNL     1       9.990   8.390   3.870  0.00  0.00    -0.073 C 
ATOM     14  C   UNL     1       9.967   9.221   4.928  0.00  0.00    -0.022 C 
ATOM     21  C   UNL     1       8.901   8.419   2.835  0.00  0.00    +0.039 C 
ENDROOT
BRANCH   6  10
ATOM     10  C   UNL     1      13.311   8.391   6.712  0.00  0.00    -0.013 C 
ATOM     18  C   UNL     1      13.964   9.672   6.202  0.00  0.00    +0.007 C 
ATOM     19  C   UNL     1      14.277   7.214   6.614  0.00  0.00    +0.007 C 
ENDBRANCH   6  10
BRANCH   7  11
ATOM     11  C   UNL     1      10.347   9.331   7.381  0.00  0.00    +0.112 C 
BRANCH  11   3
ATOM      1  O   UNL     1       7.964   7.672   7.202  0.00  0.00    -0.276 OA
ATOM      3  N   UNL     1      10.157   8.016   7.910  0.00  0.00    -0.315 N 
ATOM     20  C   UNL     1       8.978   7.293   7.777  0.00  0.00    +0.216 C 
ATOM     31  H   UNL     1      10.944   7.568   8.372  0.00  0.00    +0.149 HD
BRANCH  20  13
ATOM     13  C   UNL     1       9.005   5.939   8.406  0.00  0.00    +0.075 C 
ATOM     15  C   UNL     1       9.762   4.837   7.727  0.00  0.00    +0.013 C 
ATOM     16  C   UNL     1      10.286   5.435   8.999  0.00  0.00    +0.013 C 
ENDBRANCH  20  13
ENDBRANCH  11   3
ENDBRANCH   7  11
BRANCH   9  17
ATOM     17  C   UNL     1      10.684   5.977   3.916  0.00  0.00    +0.103 C 
BRANCH  17  22
ATOM      2  O   UNL     1      10.177   5.319   1.643  0.00  0.00    -0.276 OA
ATOM      4  N   UNL     1      11.652   4.039   2.904  0.00  0.00    -0.311 N 
ATOM     22  C   UNL     1      10.787   5.102   2.687  0.00  0.00    +0.214 C 
ATOM     32  H   UNL     1      12.111   3.943   3.805  0.00  0.00    +0.149 HD
BRANCH   4  23
ATOM     23  C   UNL     1      11.941   3.039   1.901  0.00  0.00    +0.139 C 
BRANCH  23  24
ATOM     24  C   UNL     1      13.144   3.400   1.080  0.00  0.00    -0.030 A 
ATOM     25  C   UNL     1      13.014   3.607  -0.294  0.00  0.00    +0.006 A 
ATOM     26  C   UNL     1      14.393   3.528   1.690  0.00  0.00    +0.006 A 
ATOM     27  C   UNL     1      14.132   3.941  -1.058  0.00  0.00    +0.019 A 
ATOM     28  C   UNL     1      15.511   3.864   0.926  0.00  0.00    +0.019 A 
ATOM     29  C   UNL     1      15.380   4.071  -0.449  0.00  0.00    +0.052 A 
BRANCH  29  30
ATOM      5  N   UNL     1      17.455   4.693  -1.866  0.00  0.00    -0.191 NA
ATOM     30  C   UNL     1      16.525   4.414  -1.231  0.00  0.00    +0.099 C 
ENDBRANCH  29  30
ENDBRANCH  23  24
ENDBRANCH   4  23
ENDBRANCH  17  22
ENDBRANCH   9  17
TORSDOF 9
ENDMDL
MODEL 4
REMARK VINA RESULT:      -6.1     19.642     21.605
REMARK  Name = 45783897
REMARK  12 active torsions:
REMARK  status: ('A' for Active; 'I' for Inactive)
REMARK    1  A    between atoms: N_3  and  C_11
REMARK    2  A    between atoms: N_4  and  C_23
REMARK    3  A    between atoms: C_6  and  C_10
REMARK    4  A    between atoms: C_7  and  C_11
REMARK    5  A    between atoms: C_9  and  C_17
REMARK    6  A    between atoms: C_10  and  C_18
REMARK    7  A    between atoms: C_10  and  C_19
REMARK    8  A    between atoms: C_12  and  C_21
REMARK    9  A    between atoms: C_13  and  C_20
REMARK   10  A    between atoms: C_17  and  C_22
REMARK   11  A    between atoms: C_23  and  C_24
REMARK   12  A    between atoms: C_29  and  C_30
REMARK                            x       y       z     vdW  Elec       q    Type
REMARK                         _______ _______ _______ _____ _____    ______ ____
ROOT
ATOM      6  C   UNL     1     -16.832   4.876  27.908  0.00  0.00    +0.000 C 
ATOM      7  C   UNL     1     -16.930   3.617  28.805  0.00  0.00    +0.032 C 
ATOM      8  C   UNL     1     -17.576   4.650  26.583  0.00  0.00    +0.012 C 
ATOM      9  C   UNL     1     -17.018   3.448  25.799  0.00  0.00    +0.023 C 
ATOM     12  C   UNL     1     -16.832   2.234  26.686  0.00  0.00    -0.073 C 
ATOM     14  C   UNL     1     -16.809   2.326  28.028  0.00  0.00    -0.022 C 
ATOM     21  C   UNL     1     -16.719   0.903  25.997  0.00  0.00    +0.039 C 
ENDROOT
BRANCH   6  10
ATOM     10  C   UNL     1     -17.389   6.118  28.610  0.00  0.00    -0.013 C 
ATOM     18  C   UNL     1     -18.701   5.789  29.315  0.00  0.00    +0.007 C 
ATOM     19  C   UNL     1     -17.582   7.254  27.610  0.00  0.00    +0.007 C 
ENDBRANCH   6  10
BRANCH   7  11
ATOM     11  C   UNL     1     -15.874   3.644  29.915  0.00  0.00    +0.112 C 
BRANCH  11   3
ATOM      1  O   UNL     1     -13.165   2.828  30.589  0.00  0.00    -0.276 OA
ATOM      3  N   UNL     1     -15.408   2.324  30.205  0.00  0.00    -0.315 N 
ATOM     20  C   UNL     1     -14.087   2.024  30.519  0.00  0.00    +0.216 C 
ATOM     31  H   UNL     1     -16.088   1.569  30.226  0.00  0.00    +0.149 HD
BRANCH  20  13
ATOM     13  C   UNL     1     -13.826   0.579  30.788  0.00  0.00    +0.075 C 
ATOM     15  C   UNL     1     -14.964  -0.395  30.701  0.00  0.00    +0.013 C 
ATOM     16  C   UNL     1     -13.890  -0.399  29.652  0.00  0.00    +0.013 C 
ENDBRANCH  20  13
ENDBRANCH  11   3
ENDBRANCH   7  11
BRANCH   9  17
ATOM     17  C   UNL     1     -15.711   3.812  25.087  0.00  0.00    +0.103 C 
BRANCH  17  22
ATOM      2  O   UNL     1     -16.145   2.831  22.919  0.00  0.00    -0.276 OA
ATOM      4  N   UNL     1     -15.653   5.098  23.071  0.00  0.00    -0.311 N 
ATOM     22  C   UNL     1     -15.867   3.825  23.583  0.00  0.00    +0.214 C 
ATOM     32  H   UNL     1     -15.427   5.860  23.703  0.00  0.00    +0.149 HD
BRANCH   4  23
ATOM     23  C   UNL     1     -15.736   5.405  21.662  0.00  0.00    +0.139 C 
BRANCH  23  24
ATOM     24  C   UNL     1     -14.548   6.191  21.188  0.00  0.00    -0.030 A 
ATOM     25  C   UNL     1     -13.269   5.857  21.632  0.00  0.00    +0.006 A 
ATOM     26  C   UNL     1     -14.724   7.254  20.302  0.00  0.00    +0.006 A 
ATOM     27  C   UNL     1     -12.165   6.587  21.192  0.00  0.00    +0.019 A 
ATOM     28  C   UNL     1     -13.620   7.984  19.861  0.00  0.00    +0.019 A 
ATOM     29  C   UNL     1     -12.340   7.649  20.306  0.00  0.00    +0.052 A 
BRANCH  29  30
ATOM      5  N   UNL     1     -10.291   9.004  19.487  0.00  0.00    -0.191 NA
ATOM     30  C   UNL     1     -11.209   8.397  19.854  0.00  0.00    +0.099 C 
ENDBRANCH  29  30
ENDBRANCH  23  24
ENDBRANCH   4  23
ENDBRANCH  17  22
ENDBRANCH   9  17
TORSDOF 9
ENDMDL
MODEL 5
REMARK VINA RESULT:      -6.0      3.738      7.759
REMARK  Name = 45783897
REMARK  12 active torsions:
REMARK  status: ('A' for Active; 'I' for Inactive)
REMARK    1  A    between atoms: N_3  and  C_11
REMARK    2  A    between atoms: N_4  and  C_23
REMARK    3  A    between atoms: C_6  and  C_10
REMARK    4  A    between atoms: C_7  and  C_11
REMARK    5  A    between atoms: C_9  and  C_17
REMARK    6  A    between atoms: C_10  and  C_18
REMARK    7  A    between atoms: C_10  and  C_19
REMARK    8  A    between atoms: C_12  and  C_21
REMARK    9  A    between atoms: C_13  and  C_20
REMARK   10  A    between atoms: C_17  and  C_22
REMARK   11  A    between atoms: C_23  and  C_24
REMARK   12  A    between atoms: C_29  and  C_30
REMARK                            x       y       z     vdW  Elec       q    Type
REMARK                         _______ _______ _______ _____ _____    ______ ____
ROOT
ATOM      6  C   UNL     1      -5.554 -10.264   7.472  0.00  0.00    +0.000 C 
ATOM      7  C   UNL     1      -6.936  -9.703   7.888  0.00  0.00    +0.032 C 
ATOM      8  C   UNL     1      -4.905 -11.017   8.643  0.00  0.00    +0.012 C 
ATOM      9  C   UNL     1      -4.715 -10.118   9.880  0.00  0.00    +0.023 C 
ATOM     12  C   UNL     1      -5.965  -9.322  10.196  0.00  0.00    -0.073 C 
ATOM     14  C   UNL     1      -6.953  -9.158   9.298  0.00  0.00    -0.022 C 
ATOM     21  C   UNL     1      -6.074  -8.757  11.584  0.00  0.00    +0.039 C 
ENDROOT
BRANCH   6  10
ATOM     10  C   UNL     1      -5.659 -11.189   6.256  0.00  0.00    -0.013 C 
ATOM     18  C   UNL     1      -6.692 -12.283   6.506  0.00  0.00    +0.007 C 
ATOM     19  C   UNL     1      -4.298 -11.795   5.929  0.00  0.00    +0.007 C 
ENDBRANCH   6  10
BRANCH   7  11
ATOM     11  C   UNL     1      -7.408  -8.616   6.916  0.00  0.00    +0.112 C 
BRANCH  11   3
ATOM      1  O   UNL     1      -9.329  -6.906   5.557  0.00  0.00    -0.276 OA
ATOM      3  N   UNL     1      -8.437  -7.818   7.507  0.00  0.00    -0.315 N 
ATOM     20  C   UNL     1      -9.315  -7.027   6.776  0.00  0.00    +0.216 C 
ATOM     31  H   UNL     1      -8.562  -7.867   8.515  0.00  0.00    +0.149 HD
BRANCH  20  13
ATOM     13  C   UNL     1     -10.312  -6.281   7.601  0.00  0.00    +0.075 C 
ATOM     15  C   UNL     1     -10.331  -6.491   9.086  0.00  0.00    +0.013 C 
ATOM     16  C   UNL     1      -9.835  -5.193   8.517  0.00  0.00    +0.013 C 
ENDBRANCH  20  13
ENDBRANCH  11   3
ENDBRANCH   7  11
BRANCH   9  17
ATOM     17  C   UNL     1      -3.505  -9.193   9.709  0.00  0.00    +0.103 C 
BRANCH  17  22
ATOM      2  O   UNL     1      -1.330  -8.922  10.734  0.00  0.00    -0.276 OA
ATOM      4  N   UNL     1      -2.859 -10.404  11.666  0.00  0.00    -0.311 N 
ATOM     22  C   UNL     1      -2.430  -9.467  10.737  0.00  0.00    +0.214 C 
ATOM     32  H   UNL     1      -3.790 -10.801  11.586  0.00  0.00    +0.149 HD
BRANCH   4  23
ATOM     23  C   UNL     1      -2.036 -10.859  12.764  0.00  0.00    +0.139 C 
BRANCH  23  24
ATOM     24  C   UNL     1      -2.766 -10.800  14.075  0.00  0.00    -0.030 A 
ATOM     25  C   UNL     1      -4.157 -10.689  14.094  0.00  0.00    +0.006 A 
ATOM     26  C   UNL     1      -2.054 -10.858  15.273  0.00  0.00    +0.006 A 
ATOM     27  C   UNL     1      -4.835 -10.635  15.311  0.00  0.00    +0.019 A 
ATOM     28  C   UNL     1      -2.733 -10.804  16.491  0.00  0.00    +0.019 A 
ATOM     29  C   UNL     1      -4.124 -10.693  16.509  0.00  0.00    +0.052 A 
BRANCH  29  30
ATOM      5  N   UNL     1      -5.384 -10.592  18.769  0.00  0.00    -0.191 NA
ATOM     30  C   UNL     1      -4.820 -10.637  17.757  0.00  0.00    +0.099 C 
ENDBRANCH  29  30
ENDBRANCH  23  24
ENDBRANCH   4  23
ENDBRANCH  17  22
ENDBRANCH   9  17
TORSDOF 9
ENDMDL
MODEL 6
REMARK VINA RESULT:      -5.9     23.141     27.460
REMARK  Name = 45783897
REMARK  12 active torsions:
REMARK  status: ('A' for Active; 'I' for Inactive)
REMARK    1  A    between atoms: N_3  and  C_11
REMARK    2  A    between atoms: N_4  and  C_23
REMARK    3  A    between atoms: C_6  and  C_10
REMARK    4  A    between atoms: C_7  and  C_11
REMARK    5  A    between atoms: C_9  and  C_17
REMARK    6  A    between atoms: C_10  and  C_18
REMARK    7  A    between atoms: C_10  and  C_19
REMARK    8  A    between atoms: C_12  and  C_21
REMARK    9  A    between atoms: C_13  and  C_20
REMARK   10  A    between atoms: C_17  and  C_22
REMARK   11  A    between atoms: C_23  and  C_24
REMARK   12  A    between atoms: C_29  and  C_30
REMARK                            x       y       z     vdW  Elec       q    Type
REMARK                         _______ _______ _______ _____ _____    ______ ____
ROOT
ATOM      6  C   UNL     1      14.047   5.780   0.324  0.00  0.00    +0.000 C 
ATOM      7  C   UNL     1      14.007   4.236   0.212  0.00  0.00    +0.032 C 
ATOM      8  C   UNL     1      13.789   6.220   1.773  0.00  0.00    +0.012 C 
ATOM      9  C   UNL     1      12.427   5.728   2.298  0.00  0.00    +0.023 C 
ATOM     12  C   UNL     1      12.198   4.263   1.984  0.00  0.00    -0.073 C 
ATOM     14  C   UNL     1      12.923   3.609   1.058  0.00  0.00    -0.022 C 
ATOM     21  C   UNL     1      11.147   3.554   2.791  0.00  0.00    +0.039 C 
ENDROOT
BRANCH   6  10
ATOM     10  C   UNL     1      15.384   6.350  -0.161  0.00  0.00    -0.013 C 
ATOM     18  C   UNL     1      16.055   7.152   0.950  0.00  0.00    +0.007 C 
ATOM     19  C   UNL     1      15.176   7.214  -1.401  0.00  0.00    +0.007 C 
ENDBRANCH   6  10
BRANCH   7  11
ATOM     11  C   UNL     1      13.838   3.790  -1.245  0.00  0.00    +0.112 C 
BRANCH  11   3
ATOM      1  O   UNL     1      12.684   2.480  -3.571  0.00  0.00    -0.276 OA
ATOM      3  N   UNL     1      12.454   3.673  -1.583  0.00  0.00    -0.315 N 
ATOM     20  C   UNL     1      11.990   3.026  -2.722  0.00  0.00    +0.216 C 
ATOM     31  H   UNL     1      11.768   4.047  -0.931  0.00  0.00    +0.149 HD
BRANCH  20  13
ATOM     13  C   UNL     1      10.505   3.023  -2.873  0.00  0.00    +0.075 C 
ATOM     15  C   UNL     1       9.912   2.862  -4.241  0.00  0.00    +0.013 C 
ATOM     16  C   UNL     1       9.810   1.746  -3.243  0.00  0.00    +0.013 C 
ENDBRANCH  20  13
ENDBRANCH  11   3
ENDBRANCH   7  11
BRANCH   9  17
ATOM     17  C   UNL     1      11.283   6.590   1.754  0.00  0.00    +0.103 C 
BRANCH  17  22
ATOM      2  O   UNL     1      11.037   8.442   3.293  0.00  0.00    -0.276 OA
ATOM      4  N   UNL     1       9.436   6.756   3.265  0.00  0.00    -0.311 N 
ATOM     22  C   UNL     1      10.601   7.384   2.847  0.00  0.00    +0.214 C 
ATOM     32  H   UNL     1       9.157   5.880   2.835  0.00  0.00    +0.149 HD
BRANCH   4  23
ATOM     23  C   UNL     1       8.581   7.290   4.301  0.00  0.00    +0.139 C 
BRANCH  23  24
ATOM     24  C   UNL     1       8.893   6.701   5.645  0.00  0.00    -0.030 A 
ATOM     25  C   UNL     1       8.635   7.434   6.805  0.00  0.00    +0.006 A 
ATOM     26  C   UNL     1       9.439   5.420   5.737  0.00  0.00    +0.006 A 
ATOM     27  C   UNL     1       8.925   6.886   8.054  0.00  0.00    +0.019 A 
ATOM     28  C   UNL     1       9.728   4.872   6.987  0.00  0.00    +0.019 A 
ATOM     29  C   UNL     1       9.470   5.606   8.146  0.00  0.00    +0.052 A 
BRANCH  29  30
ATOM      5  N   UNL     1      10.007   4.589  10.466  0.00  0.00    -0.191 NA
ATOM     30  C   UNL     1       9.766   5.045   9.426  0.00  0.00    +0.099 C 
ENDBRANCH  29  30
ENDBRANCH  23  24
ENDBRANCH   4  23
ENDBRANCH  17  22
ENDBRANCH   9  17
TORSDOF 9
ENDMDL
MODEL 7
REMARK VINA RESULT:      -5.9      2.428      7.483
REMARK  Name = 45783897
REMARK  12 active torsions:
REMARK  status: ('A' for Active; 'I' for Inactive)
REMARK    1  A    between atoms: N_3  and  C_11
REMARK    2  A    between atoms: N_4  and  C_23
REMARK    3  A    between atoms: C_6  and  C_10
REMARK    4  A    between atoms: C_7  and  C_11
REMARK    5  A    between atoms: C_9  and  C_17
REMARK    6  A    between atoms: C_10  and  C_18
REMARK    7  A    between atoms: C_10  and  C_19
REMARK    8  A    between atoms: C_12  and  C_21
REMARK    9  A    between atoms: C_13  and  C_20
REMARK   10  A    between atoms: C_17  and  C_22
REMARK   11  A    between atoms: C_23  and  C_24
REMARK   12  A    between atoms: C_29  and  C_30
REMARK                            x       y       z     vdW  Elec       q    Type
REMARK                         _______ _______ _______ _____ _____    ______ ____
ROOT
ATOM      6  C   UNL     1      -4.470 -11.306  12.527  0.00  0.00    +0.000 C 
ATOM      7  C   UNL     1      -3.072 -11.024  11.923  0.00  0.00    +0.032 C 
ATOM      8  C   UNL     1      -5.525 -11.406  11.415  0.00  0.00    +0.012 C 
ATOM      9  C   UNL     1      -5.608 -10.120  10.572  0.00  0.00    +0.023 C 
ATOM     12  C   UNL     1      -4.236  -9.626  10.161  0.00  0.00    -0.073 C 
ATOM     14  C   UNL     1      -3.113 -10.052  10.767  0.00  0.00    -0.022 C 
ATOM     21  C   UNL     1      -4.180  -8.667   9.005  0.00  0.00    +0.039 C 
ENDROOT
BRANCH   6  10
ATOM     10  C   UNL     1      -4.479 -12.586  13.367  0.00  0.00    -0.013 C 
ATOM     18  C   UNL     1      -3.782 -13.719  12.619  0.00  0.00    +0.007 C 
ATOM     19  C   UNL     1      -5.909 -12.977  13.729  0.00  0.00    +0.007 C 
ENDBRANCH   6  10
BRANCH   7  11
ATOM     11  C   UNL     1      -2.101 -10.507  12.990  0.00  0.00    +0.112 C 
BRANCH  11   3
ATOM      1  O   UNL     1      -0.897 -11.036  15.584  0.00  0.00    -0.276 OA
ATOM      3  N   UNL     1      -2.734 -10.460  14.272  0.00  0.00    -0.315 N 
ATOM     20  C   UNL     1      -2.077 -10.730  15.466  0.00  0.00    +0.216 C 
ATOM     31  H   UNL     1      -3.708 -10.171  14.315  0.00  0.00    +0.149 HD
BRANCH  20  13
ATOM     13  C   UNL     1      -2.933 -10.618  16.684  0.00  0.00    +0.075 C 
ATOM     15  C   UNL     1      -4.330 -10.089  16.546  0.00  0.00    +0.013 C 
ATOM     16  C   UNL     1      -4.104 -11.543  16.842  0.00  0.00    +0.013 C 
ENDBRANCH  20  13
ENDBRANCH  11   3
ENDBRANCH   7  11
BRANCH   9  17
ATOM     17  C   UNL     1      -6.385  -9.025  11.312  0.00  0.00    +0.103 C 
BRANCH  17  22
ATOM      2  O   UNL     1      -8.554 -10.096  11.253  0.00  0.00    -0.276 OA
ATOM      4  N   UNL     1      -7.715  -9.318  13.277  0.00  0.00    -0.311 N 
ATOM     22  C   UNL     1      -7.673  -9.547  11.909  0.00  0.00    +0.214 C 
ATOM     32  H   UNL     1      -6.935  -8.853  13.732  0.00  0.00    +0.149 HD
BRANCH   4  23
ATOM     23  C   UNL     1      -8.830  -9.711  14.108  0.00  0.00    +0.139 C 
BRANCH  23  24
ATOM     24  C   UNL     1      -8.389 -10.120  15.483  0.00  0.00    -0.030 A 
ATOM     25  C   UNL     1      -8.076  -9.148  16.434  0.00  0.00    +0.006 A 
ATOM     26  C   UNL     1      -8.293 -11.474  15.811  0.00  0.00    +0.006 A 
ATOM     27  C   UNL     1      -7.666  -9.529  17.711  0.00  0.00    +0.019 A 
ATOM     28  C   UNL     1      -7.883 -11.854  17.089  0.00  0.00    +0.019 A 
ATOM     29  C   UNL     1      -7.570 -10.881  18.039  0.00  0.00    +0.052 A 
BRANCH  29  30
ATOM      5  N   UNL     1      -6.810 -11.588  20.411  0.00  0.00    -0.191 NA
ATOM     30  C   UNL     1      -7.151 -11.271  19.349  0.00  0.00    +0.099 C 
ENDBRANCH  29  30
ENDBRANCH  23  24
ENDBRANCH   4  23
ENDBRANCH  17  22
ENDBRANCH   9  17
TORSDOF 9
ENDMDL
MODEL 8
REMARK VINA RESULT:      -5.9      2.788      8.153
REMARK  Name = 45783897
REMARK  12 active torsions:
REMARK  status: ('A' for Active; 'I' for Inactive)
REMARK    1  A    between atoms: N_3  and  C_11
REMARK    2  A    between atoms: N_4  and  C_23
REMARK    3  A    between atoms: C_6  and  C_10
REMARK    4  A    between atoms: C_7  and  C_11
REMARK    5  A    between atoms: C_9  and  C_17
REMARK    6  A    between atoms: C_10  and  C_18
REMARK    7  A    between atoms: C_10  and  C_19
REMARK    8  A    between atoms: C_12  and  C_21
REMARK    9  A    between atoms: C_13  and  C_20
REMARK   10  A    between atoms: C_17  and  C_22
REMARK   11  A    between atoms: C_23  and  C_24
REMARK   12  A    between atoms: C_29  and  C_30
REMARK                            x       y       z     vdW  Elec       q    Type
REMARK                         _______ _______ _______ _____ _____    ______ ____
ROOT
ATOM      6  C   UNL     1      -5.274 -10.515  10.704  0.00  0.00    +0.000 C 
ATOM      7  C   UNL     1      -4.686  -9.585   9.614  0.00  0.00    +0.032 C 
ATOM      8  C   UNL     1      -4.741 -10.121  12.090  0.00  0.00    +0.012 C 
ATOM      9  C   UNL     1      -3.205 -10.192  12.165  0.00  0.00    +0.023 C 
ATOM     12  C   UNL     1      -2.551  -9.522  10.973  0.00  0.00    -0.073 C 
ATOM     14  C   UNL     1      -3.232  -9.246   9.846  0.00  0.00    -0.022 C 
ATOM     21  C   UNL     1      -1.106  -9.135  11.123  0.00  0.00    +0.039 C 
ENDROOT
BRANCH   6  10
ATOM     10  C   UNL     1      -6.805 -10.487  10.710  0.00  0.00    -0.013 C 
ATOM     18  C   UNL     1      -7.312  -9.049  10.634  0.00  0.00    +0.007 C 
ATOM     19  C   UNL     1      -7.347 -11.186  11.953  0.00  0.00    +0.007 C 
ENDBRANCH   6  10
BRANCH   7  11
ATOM     11  C   UNL     1      -4.851 -10.195   8.217  0.00  0.00    +0.112 C 
BRANCH  11   3
ATOM      1  O   UNL     1      -4.312 -11.905   5.927  0.00  0.00    -0.276 OA
ATOM      3  N   UNL     1      -4.511 -11.583   8.227  0.00  0.00    -0.315 N 
ATOM     20  C   UNL     1      -4.269 -12.326   7.077  0.00  0.00    +0.216 C 
ATOM     31  H   UNL     1      -4.398 -12.043   9.127  0.00  0.00    +0.149 HD
BRANCH  20  13
ATOM     13  C   UNL     1      -3.928 -13.759   7.324  0.00  0.00    +0.075 C 
ATOM     15  C   UNL     1      -4.255 -14.365   8.656  0.00  0.00    +0.013 C 
ATOM     16  C   UNL     1      -5.036 -14.764   7.438  0.00  0.00    +0.013 C 
ENDBRANCH  20  13
ENDBRANCH  11   3
ENDBRANCH   7  11
BRANCH   9  17
ATOM     17  C   UNL     1      -2.725 -11.640  12.311  0.00  0.00    +0.103 C 
BRANCH  17  22
ATOM      2  O   UNL     1      -1.731 -13.000  14.048  0.00  0.00    -0.276 OA
ATOM      4  N   UNL     1      -2.600 -10.912  14.585  0.00  0.00    -0.311 N 
ATOM     22  C   UNL     1      -2.287 -11.954  13.724  0.00  0.00    +0.214 C 
ATOM     32  H   UNL     1      -3.063 -10.084  14.222  0.00  0.00    +0.149 HD
BRANCH   4  23
ATOM     23  C   UNL     1      -2.299 -10.938  15.998  0.00  0.00    +0.139 C 
BRANCH  23  24
ATOM     24  C   UNL     1      -3.543 -10.937  16.838  0.00  0.00    -0.030 A 
ATOM     25  C   UNL     1      -3.552 -11.587  18.072  0.00  0.00    +0.006 A 
ATOM     26  C   UNL     1      -4.691 -10.285  16.384  0.00  0.00    +0.006 A 
ATOM     27  C   UNL     1      -4.708 -11.587  18.852  0.00  0.00    +0.019 A 
ATOM     28  C   UNL     1      -5.846 -10.284  17.165  0.00  0.00    +0.019 A 
ATOM     29  C   UNL     1      -5.855 -10.935  18.400  0.00  0.00    +0.052 A 
BRANCH  29  30
ATOM      5  N   UNL     1      -8.000 -10.932  19.849  0.00  0.00    -0.191 NA
ATOM     30  C   UNL     1      -7.039 -10.933  19.200  0.00  0.00    +0.099 C 
ENDBRANCH  29  30
ENDBRANCH  23  24
ENDBRANCH   4  23
ENDBRANCH  17  22
ENDBRANCH   9  17
TORSDOF 9
ENDMDL
MODEL 9
REMARK VINA RESULT:      -5.8      2.649      8.277
REMARK  Name = 45783897
REMARK  12 active torsions:
REMARK  status: ('A' for Active; 'I' for Inactive)
REMARK    1  A    between atoms: N_3  and  C_11
REMARK    2  A    between atoms: N_4  and  C_23
REMARK    3  A    between atoms: C_6  and  C_10
REMARK    4  A    between atoms: C_7  and  C_11
REMARK    5  A    between atoms: C_9  and  C_17
REMARK    6  A    between atoms: C_10  and  C_18
REMARK    7  A    between atoms: C_10  and  C_19
REMARK    8  A    between atoms: C_12  and  C_21
REMARK    9  A    between atoms: C_13  and  C_20
REMARK   10  A    between atoms: C_17  and  C_22
REMARK   11  A    between atoms: C_23  and  C_24
REMARK   12  A    between atoms: C_29  and  C_30
REMARK                            x       y       z     vdW  Elec       q    Type
REMARK                         _______ _______ _______ _____ _____    ______ ____
ROOT
ATOM      6  C   UNL     1      -5.487 -11.015  17.384  0.00  0.00    +0.000 C 
ATOM      7  C   UNL     1      -4.444 -11.825  16.573  0.00  0.00    +0.032 C 
ATOM      8  C   UNL     1      -6.865 -11.690  17.310  0.00  0.00    +0.012 C 
ATOM      9  C   UNL     1      -7.371 -11.824  15.861  0.00  0.00    +0.023 C 
ATOM     12  C   UNL     1      -6.300 -12.370  14.939  0.00  0.00    -0.073 C 
ATOM     14  C   UNL     1      -4.999 -12.375  15.280  0.00  0.00    -0.022 C 
ATOM     21  C   UNL     1      -6.764 -12.953  13.634  0.00  0.00    +0.039 C 
ENDROOT
BRANCH   6  10
ATOM     10  C   UNL     1      -5.067 -10.854  18.848  0.00  0.00    -0.013 C 
ATOM     18  C   UNL     1      -4.388 -12.124  19.351  0.00  0.00    +0.007 C 
ATOM     19  C   UNL     1      -6.275 -10.508  19.714  0.00  0.00    +0.007 C 
ENDBRANCH   6  10
BRANCH   7  11
ATOM     11  C   UNL     1      -3.198 -10.983  16.278  0.00  0.00    +0.112 C 
BRANCH  11   3
ATOM      1  O   UNL     1      -1.032  -9.598  14.918  0.00  0.00    -0.276 OA
ATOM      3  N   UNL     1      -2.921 -10.961  14.875  0.00  0.00    -0.315 N 
ATOM     20  C   UNL     1      -1.858 -10.268  14.310  0.00  0.00    +0.216 C 
ATOM     31  H   UNL     1      -3.510 -11.520  14.262  0.00  0.00    +0.149 HD
BRANCH  20  13
ATOM     13  C   UNL     1      -1.758 -10.388  12.825  0.00  0.00    +0.075 C 
ATOM     15  C   UNL     1      -2.379 -11.573  12.147  0.00  0.00    +0.013 C 
ATOM     16  C   UNL     1      -2.995 -10.213  11.993  0.00  0.00    +0.013 C 
ENDBRANCH  20  13
ENDBRANCH  11   3
ENDBRANCH   7  11
BRANCH   9  17
ATOM     17  C   UNL     1      -7.914 -10.489  15.340  0.00  0.00    +0.103 C 
BRANCH  17  22
ATOM      2  O   UNL     1      -9.975 -10.653  16.598  0.00  0.00    -0.276 OA
ATOM      4  N   UNL     1      -8.876  -8.609  16.462  0.00  0.00    -0.311 N 
ATOM     22  C   UNL     1      -9.043  -9.961  16.199  0.00  0.00    +0.214 C 
ATOM     32  H   UNL     1      -8.069  -8.120  16.086  0.00  0.00    +0.149 HD
BRANCH   4  23
ATOM     23  C   UNL     1      -9.805  -7.840  17.258  0.00  0.00    +0.139 C 
BRANCH  23  24
ATOM     24  C   UNL     1     -10.921  -7.274  16.429  0.00  0.00    -0.030 A 
ATOM     25  C   UNL     1     -12.197  -7.834  16.500  0.00  0.00    +0.006 A 
ATOM     26  C   UNL     1     -10.682  -6.187  15.587  0.00  0.00    +0.006 A 
ATOM     27  C   UNL     1     -13.233  -7.308  15.729  0.00  0.00    +0.019 A 
ATOM     28  C   UNL     1     -11.719  -5.660  14.817  0.00  0.00    +0.019 A 
ATOM     29  C   UNL     1     -12.995  -6.221  14.889  0.00  0.00    +0.052 A 
BRANCH  29  30
ATOM      5  N   UNL     1     -14.919  -5.244  13.458  0.00  0.00    -0.191 NA
ATOM     30  C   UNL     1     -14.057  -5.681  14.099  0.00  0.00    +0.099 C 
ENDBRANCH  29  30
ENDBRANCH  23  24
ENDBRANCH   4  23
ENDBRANCH  17  22
ENDBRANCH   9  17
TORSDOF 9
ENDMDL
MODEL 10
REMARK VINA RESULT:      -5.7     20.533     24.947
REMARK  Name = 45783897
REMARK  12 active torsions:
REMARK  status: ('A' for Active; 'I' for Inactive)
REMARK    1  A    between atoms: N_3  and  C_11
REMARK    2  A    between atoms: N_4  and  C_23
REMARK    3  A    between atoms: C_6  and  C_10
REMARK    4  A    between atoms: C_7  and  C_11
REMARK    5  A    between atoms: C_9  and  C_17
REMARK    6  A    between atoms: C_10  and  C_18
REMARK    7  A    between atoms: C_10  and  C_19
REMARK    8  A    between atoms: C_12  and  C_21
REMARK    9  A    between atoms: C_13  and  C_20
REMARK   10  A    between atoms: C_17  and  C_22
REMARK   11  A    between atoms: C_23  and  C_24
REMARK   12  A    between atoms: C_29  and  C_30
REMARK                            x       y       z     vdW  Elec       q    Type
REMARK                         _______ _______ _______ _____ _____    ______ ____
ROOT
ATOM      6  C   UNL     1     -15.394   1.365  29.973  0.00  0.00    +0.000 C 
ATOM      7  C   UNL     1     -16.667   1.471  29.098  0.00  0.00    +0.032 C 
ATOM      8  C   UNL     1     -15.666   1.906  31.385  0.00  0.00    +0.012 C 
ATOM      9  C   UNL     1     -16.125   3.376  31.367  0.00  0.00    +0.023 C 
ATOM     12  C   UNL     1     -17.203   3.618  30.329  0.00  0.00    -0.073 C 
ATOM     14  C   UNL     1     -17.441   2.749  29.330  0.00  0.00    -0.022 C 
ATOM     21  C   UNL     1     -18.035   4.859  30.493  0.00  0.00    +0.039 C 
ENDROOT
BRANCH   6  10
ATOM     10  C   UNL     1     -14.882  -0.076  30.060  0.00  0.00    -0.013 C 
ATOM     18  C   UNL     1     -15.297  -0.709  31.385  0.00  0.00    +0.007 C 
ATOM     19  C   UNL     1     -13.366  -0.114  29.894  0.00  0.00    +0.007 C 
ENDBRANCH   6  10
BRANCH   7  11
ATOM     11  C   UNL     1     -16.328   1.345  27.608  0.00  0.00    +0.112 C 
BRANCH  11   3
ATOM      1  O   UNL     1     -16.203   1.932  24.763  0.00  0.00    -0.276 OA
ATOM      3  N   UNL     1     -16.297   2.630  26.984  0.00  0.00    -0.315 N 
ATOM     20  C   UNL     1     -16.237   2.818  25.608  0.00  0.00    +0.216 C 
ATOM     31  H   UNL     1     -16.367   3.453  27.577  0.00  0.00    +0.149 HD
BRANCH  20  13
ATOM     13  C   UNL     1     -16.217   4.247  25.177  0.00  0.00    +0.075 C 
ATOM     15  C   UNL     1     -15.345   4.648  24.024  0.00  0.00    +0.013 C 
ATOM     16  C   UNL     1     -16.837   4.623  23.863  0.00  0.00    +0.013 C 
ENDBRANCH  20  13
ENDBRANCH  11   3
ENDBRANCH   7  11
BRANCH   9  17
ATOM     17  C   UNL     1     -14.939   4.323  31.153  0.00  0.00    +0.103 C 
BRANCH  17  22
ATOM      2  O   UNL     1     -13.675   4.264  33.216  0.00  0.00    -0.276 OA
ATOM      4  N   UNL     1     -14.890   6.170  32.671  0.00  0.00    -0.311 N 
ATOM     22  C   UNL     1     -14.417   4.883  32.458  0.00  0.00    +0.214 C 
ATOM     32  H   UNL     1     -15.502   6.599  31.984  0.00  0.00    +0.149 HD
BRANCH   4  23
ATOM     23  C   UNL     1     -14.554   6.950  33.840  0.00  0.00    +0.139 C 
BRANCH  23  24
ATOM     24  C   UNL     1     -13.346   7.812  33.613  0.00  0.00    -0.030 A 
ATOM     25  C   UNL     1     -12.842   7.979  32.323  0.00  0.00    +0.006 A 
ATOM     26  C   UNL     1     -12.729   8.447  34.691  0.00  0.00    +0.006 A 
ATOM     27  C   UNL     1     -11.720   8.780  32.111  0.00  0.00    +0.019 A 
ATOM     28  C   UNL     1     -11.607   9.248  34.479  0.00  0.00    +0.019 A 
ATOM     29  C   UNL     1     -11.102   9.415  33.189  0.00  0.00    +0.052 A 
BRANCH  29  30
ATOM      5  N   UNL     1      -9.019  10.902  32.796  0.00  0.00    -0.191 NA
ATOM     30  C   UNL     1      -9.953  10.236  32.972  0.00  0.00    +0.099 C 
ENDBRANCH  29  30
ENDBRANCH  23  24
ENDBRANCH   4  23
ENDBRANCH  17  22
ENDBRANCH   9  17
TORSDOF 9
ENDMDL
