MODEL 1
REMARK VINA RESULT:      -6.4      0.000      0.000
REMARK  Name = 7161554
REMARK  5 active torsions:
REMARK  status: ('A' for Active; 'I' for Inactive)
REMARK    1  A    between atoms: O_3  and  C_13
REMARK    2  A    between atoms: O_3  and  C_21
REMARK    3  A    between atoms: C_9  and  C_13
REMARK    4  A    between atoms: C_14  and  C_17
REMARK    5  A    between atoms: C_15  and  C_16
REMARK                            x       y       z     vdW  Elec       q    Type
REMARK                         _______ _______ _______ _____ _____    ______ ____
ROOT
ATOM      5  O   UNL     1      10.182  12.140  24.260  0.00  0.00    -0.269 OA
ATOM      6  O   UNL     1      11.233   6.586  20.537  0.00  0.00    -0.270 OA
ATOM      7  N   UNL     1      11.614  10.791  23.026  0.00  0.00    -0.281 N 
ATOM      8  N   UNL     1      12.176   8.241  21.892  0.00  0.00    -0.294 N 
ATOM      9  C   UNL     1      12.900  10.575  22.339  0.00  0.00    +0.202 C 
ATOM     10  C   UNL     1      13.304   9.100  22.275  0.00  0.00    +0.142 C 
ATOM     11  C   UNL     1      10.523   9.876  22.664  0.00  0.00    +0.128 C 
ATOM     12  C   UNL     1      10.977   8.423  22.704  0.00  0.00    +0.127 C 
ATOM     14  C   UNL     1      11.316  11.905  23.841  0.00  0.00    +0.254 C 
ATOM     15  C   UNL     1      12.178   7.306  20.855  0.00  0.00    +0.247 C 
ENDROOT
BRANCH  15  16
ATOM      2  F   UNL     1      16.859   6.115  20.509  0.00  0.00    -0.205 F 
ATOM     16  C   UNL     1      13.405   7.154  20.065  0.00  0.00    +0.040 A 
ATOM     18  C   UNL     1      14.570   6.697  20.676  0.00  0.00    +0.051 A 
ATOM     19  C   UNL     1      13.399   7.467  18.708  0.00  0.00    +0.013 A 
ATOM     23  C   UNL     1      15.737   6.552  19.925  0.00  0.00    +0.124 A 
ATOM     24  C   UNL     1      14.565   7.323  17.957  0.00  0.00    +0.004 A 
ATOM     26  C   UNL     1      15.734   6.866  18.566  0.00  0.00    +0.038 A 
ENDBRANCH  15  16
BRANCH  14  17
ATOM      1  S   UNL     1      13.403  12.417  25.525  0.00  0.00    -0.092 S 
ATOM     17  C   UNL     1      12.419  12.796  24.180  0.00  0.00    +0.074 A 
ATOM     20  C   UNL     1      12.812  13.951  23.552  0.00  0.00    +0.021 A 
ATOM     22  C   UNL     1      13.942  14.541  24.186  0.00  0.00    +0.008 A 
ATOM     25  C   UNL     1      14.366  13.809  25.274  0.00  0.00    +0.046 A 
ENDBRANCH  14  17
BRANCH   9  13
ATOM      4  O   UNL     1      11.926  12.016  20.671  0.00  0.00    -0.249 OA
ATOM     13  C   UNL     1      12.754  11.164  20.966  0.00  0.00    +0.329 C 
BRANCH  13   3
ATOM      3  O   UNL     1      13.671  10.603  20.128  0.00  0.00    -0.467 OA
ATOM     21  C   UNL     1      13.644  11.078  18.778  0.00  0.00    +0.280 C 
ENDBRANCH  13   3
ENDBRANCH   9  13
TORSDOF 4
ENDMDL
MODEL 2
REMARK VINA RESULT:      -6.2      3.256      4.763
REMARK  Name = 7161554
REMARK  5 active torsions:
REMARK  status: ('A' for Active; 'I' for Inactive)
REMARK    1  A    between atoms: O_3  and  C_13
REMARK    2  A    between atoms: O_3  and  C_21
REMARK    3  A    between atoms: C_9  and  C_13
REMARK    4  A    between atoms: C_14  and  C_17
REMARK    5  A    between atoms: C_15  and  C_16
REMARK                            x       y       z     vdW  Elec       q    Type
REMARK                         _______ _______ _______ _____ _____    ______ ____
ROOT
ATOM      5  O   UNL     1      11.378   8.766  19.277  0.00  0.00    -0.269 OA
ATOM      6  O   UNL     1      17.616   6.141  19.322  0.00  0.00    -0.270 OA
ATOM      7  N   UNL     1      13.465   8.569  20.273  0.00  0.00    -0.281 N 
ATOM      8  N   UNL     1      15.889   7.105  20.569  0.00  0.00    -0.294 N 
ATOM      9  C   UNL     1      14.470   9.026  21.251  0.00  0.00    +0.202 C 
ATOM     10  C   UNL     1      15.417   7.911  21.701  0.00  0.00    +0.142 C 
ATOM     11  C   UNL     1      13.961   7.713  19.187  0.00  0.00    +0.128 C 
ATOM     12  C   UNL     1      14.826   6.579  19.719  0.00  0.00    +0.127 C 
ATOM     14  C   UNL     1      12.137   9.041  20.207  0.00  0.00    +0.254 C 
ATOM     15  C   UNL     1      17.223   6.819  20.270  0.00  0.00    +0.247 C 
ENDROOT
BRANCH  15  16
ATOM      2  F   UNL     1      20.770   6.203  23.509  0.00  0.00    -0.205 F 
ATOM     16  C   UNL     1      18.260   7.366  21.152  0.00  0.00    +0.040 A 
ATOM     18  C   UNL     1      19.036   6.506  21.925  0.00  0.00    +0.051 A 
ATOM     19  C   UNL     1      18.463   8.743  21.212  0.00  0.00    +0.013 A 
ATOM     23  C   UNL     1      20.022   7.026  22.764  0.00  0.00    +0.124 A 
ATOM     24  C   UNL     1      19.448   9.263  22.051  0.00  0.00    +0.004 A 
ATOM     26  C   UNL     1      20.228   8.405  22.827  0.00  0.00    +0.038 A 
ENDBRANCH  15  16
BRANCH  14  17
ATOM      1  S   UNL     1      11.055   9.155  22.711  0.00  0.00    -0.092 S 
ATOM     17  C   UNL     1      11.677   9.890  21.298  0.00  0.00    +0.074 A 
ATOM     20  C   UNL     1      11.667  11.261  21.373  0.00  0.00    +0.021 A 
ATOM     22  C   UNL     1      11.137  11.720  22.613  0.00  0.00    +0.008 A 
ATOM     25  C   UNL     1      10.765  10.679  23.434  0.00  0.00    +0.046 A 
ENDBRANCH  14  17
BRANCH   9  13
ATOM      4  O   UNL     1      15.238  10.350  19.390  0.00  0.00    -0.249 OA
ATOM     13  C   UNL     1      15.219  10.151  20.597  0.00  0.00    +0.329 C 
BRANCH  13   3
ATOM      3  O   UNL     1      15.856  10.891  21.549  0.00  0.00    -0.467 OA
ATOM     21  C   UNL     1      15.017  11.416  22.583  0.00  0.00    +0.280 C 
ENDBRANCH  13   3
ENDBRANCH   9  13
TORSDOF 4
ENDMDL
MODEL 3
REMARK VINA RESULT:      -6.0     27.018     29.080
REMARK  Name = 7161554
REMARK  5 active torsions:
REMARK  status: ('A' for Active; 'I' for Inactive)
REMARK    1  A    between atoms: O_3  and  C_13
REMARK    2  A    between atoms: O_3  and  C_21
REMARK    3  A    between atoms: C_9  and  C_13
REMARK    4  A    between atoms: C_14  and  C_17
REMARK    5  A    between atoms: C_15  and  C_16
REMARK                            x       y       z     vdW  Elec       q    Type
REMARK                         _______ _______ _______ _____ _____    ______ ____
ROOT
ATOM      5  O   UNL     1     -10.410 -10.137  19.372  0.00  0.00    -0.269 OA
ATOM      6  O   UNL     1      -3.988 -12.185  18.769  0.00  0.00    -0.270 OA
ATOM      7  N   UNL     1      -8.446 -10.247  18.140  0.00  0.00    -0.281 N 
ATOM      8  N   UNL     1      -5.630 -10.668  18.086  0.00  0.00    -0.294 N 
ATOM      9  C   UNL     1      -7.714 -10.074  16.871  0.00  0.00    +0.202 C 
ATOM     10  C   UNL     1      -6.225  -9.787  17.073  0.00  0.00    +0.142 C 
ATOM     11  C   UNL     1      -7.794 -11.085  19.155  0.00  0.00    +0.128 C 
ATOM     12  C   UNL     1      -6.340 -10.685  19.361  0.00  0.00    +0.127 C 
ATOM     14  C   UNL     1      -9.775  -9.828  18.363  0.00  0.00    +0.254 C 
ATOM     15  C   UNL     1      -4.485 -11.449  17.918  0.00  0.00    +0.247 C 
ENDROOT
BRANCH  15  16
ATOM      2  F   UNL     1      -0.961  -9.757  15.060  0.00  0.00    -0.205 F 
ATOM     16  C   UNL     1      -3.801 -11.400  16.620  0.00  0.00    +0.040 A 
ATOM     18  C   UNL     1      -2.685 -10.585  16.456  0.00  0.00    +0.051 A 
ATOM     19  C   UNL     1      -4.274 -12.170  15.559  0.00  0.00    +0.013 A 
ATOM     23  C   UNL     1      -2.035 -10.539  15.222  0.00  0.00    +0.124 A 
ATOM     24  C   UNL     1      -3.625 -12.124  14.326  0.00  0.00    +0.004 A 
ATOM     26  C   UNL     1      -2.505 -11.308  14.157  0.00  0.00    +0.038 A 
ENDBRANCH  15  16
BRANCH  14  17
ATOM      1  S   UNL     1     -11.498  -9.721  16.247  0.00  0.00    -0.092 S 
ATOM     17  C   UNL     1     -10.394  -9.000  17.335  0.00  0.00    +0.074 A 
ATOM     20  C   UNL     1     -10.220  -7.659  17.095  0.00  0.00    +0.021 A 
ATOM     22  C   UNL     1     -11.006  -7.212  15.995  0.00  0.00    +0.008 A 
ATOM     25  C   UNL     1     -11.749  -8.232  15.441  0.00  0.00    +0.046 A 
ENDBRANCH  14  17
BRANCH   9  13
ATOM      4  O   UNL     1      -8.326 -12.386  16.567  0.00  0.00    -0.249 OA
ATOM     13  C   UNL     1      -7.928 -11.335  16.083  0.00  0.00    +0.329 C 
BRANCH  13   3
ATOM      3  O   UNL     1      -7.609 -11.116  14.776  0.00  0.00    -0.467 OA
ATOM     21  C   UNL     1      -8.391 -10.119  14.111  0.00  0.00    +0.280 C 
ENDBRANCH  13   3
ENDBRANCH   9  13
TORSDOF 4
ENDMDL
MODEL 4
REMARK VINA RESULT:      -6.0     28.915     31.238
REMARK  Name = 7161554
REMARK  5 active torsions:
REMARK  status: ('A' for Active; 'I' for Inactive)
REMARK    1  A    between atoms: O_3  and  C_13
REMARK    2  A    between atoms: O_3  and  C_21
REMARK    3  A    between atoms: C_9  and  C_13
REMARK    4  A    between atoms: C_14  and  C_17
REMARK    5  A    between atoms: C_15  and  C_16
REMARK                            x       y       z     vdW  Elec       q    Type
REMARK                         _______ _______ _______ _____ _____    ______ ____
ROOT
ATOM      5  O   UNL     1      -5.193 -10.636   6.390  0.00  0.00    -0.269 OA
ATOM      6  O   UNL     1     -10.715  -6.746   5.969  0.00  0.00    -0.270 OA
ATOM      7  N   UNL     1      -6.681  -9.149   7.373  0.00  0.00    -0.281 N 
ATOM      8  N   UNL     1      -8.689  -7.155   7.060  0.00  0.00    -0.294 N 
ATOM      9  C   UNL     1      -7.225  -8.479   8.568  0.00  0.00    +0.202 C 
ATOM     10  C   UNL     1      -7.843  -7.113   8.259  0.00  0.00    +0.142 C 
ATOM     11  C   UNL     1      -7.526  -9.119   6.171  0.00  0.00    +0.128 C 
ATOM     12  C   UNL     1      -8.035  -7.715   5.881  0.00  0.00    +0.127 C 
ATOM     14  C   UNL     1      -5.523  -9.957   7.363  0.00  0.00    +0.254 C 
ATOM     15  C   UNL     1     -10.010  -6.712   6.976  0.00  0.00    +0.247 C 
ENDROOT
BRANCH  15  16
ATOM      2  F   UNL     1     -10.929  -2.970   9.910  0.00  0.00    -0.205 F 
ATOM     16  C   UNL     1     -10.628  -6.154   8.185  0.00  0.00    +0.040 A 
ATOM     18  C   UNL     1     -10.481  -4.801   8.477  0.00  0.00    +0.051 A 
ATOM     19  C   UNL     1     -11.358  -6.982   9.034  0.00  0.00    +0.013 A 
ATOM     23  C   UNL     1     -11.069  -4.271   9.625  0.00  0.00    +0.124 A 
ATOM     24  C   UNL     1     -11.946  -6.453  10.183  0.00  0.00    +0.004 A 
ATOM     26  C   UNL     1     -11.801  -5.097  10.479  0.00  0.00    +0.038 A 
ENDBRANCH  15  16
BRANCH  14  17
ATOM      1  S   UNL     1      -4.501 -11.439   9.416  0.00  0.00    -0.092 S 
ATOM     17  C   UNL     1      -4.708  -9.967   8.571  0.00  0.00    +0.074 A 
ATOM     20  C   UNL     1      -4.043  -8.923   9.165  0.00  0.00    +0.021 A 
ATOM     22  C   UNL     1      -3.350  -9.336  10.339  0.00  0.00    +0.008 A 
ATOM     25  C   UNL     1      -3.515 -10.680  10.592  0.00  0.00    +0.046 A 
ENDBRANCH  14  17
BRANCH   9  13
ATOM      4  O   UNL     1      -9.368  -9.571   8.718  0.00  0.00    -0.249 OA
ATOM     13  C   UNL     1      -8.237  -9.418   9.158  0.00  0.00    +0.329 C 
BRANCH  13   3
ATOM      3  O   UNL     1      -7.698 -10.051  10.239  0.00  0.00    -0.467 OA
ATOM     21  C   UNL     1      -7.231  -9.194  11.285  0.00  0.00    +0.280 C 
ENDBRANCH  13   3
ENDBRANCH   9  13
TORSDOF 4
ENDMDL
MODEL 5
REMARK VINA RESULT:      -5.8      1.482      2.115
REMARK  Name = 7161554
REMARK  5 active torsions:
REMARK  status: ('A' for Active; 'I' for Inactive)
REMARK    1  A    between atoms: O_3  and  C_13
REMARK    2  A    between atoms: O_3  and  C_21
REMARK    3  A    between atoms: C_9  and  C_13
REMARK    4  A    between atoms: C_14  and  C_17
REMARK    5  A    between atoms: C_15  and  C_16
REMARK                            x       y       z     vdW  Elec       q    Type
REMARK                         _______ _______ _______ _____ _____    ______ ____
ROOT
ATOM      5  O   UNL     1      10.829  11.758  25.618  0.00  0.00    -0.269 OA
ATOM      6  O   UNL     1      10.516   7.835  20.111  0.00  0.00    -0.270 OA
ATOM      7  N   UNL     1      11.807  10.941  23.677  0.00  0.00    -0.281 N 
ATOM      8  N   UNL     1      11.885   8.945  21.648  0.00  0.00    -0.294 N 
ATOM      9  C   UNL     1      12.862  10.998  22.648  0.00  0.00    +0.202 C 
ATOM     10  C   UNL     1      13.130   9.642  21.991  0.00  0.00    +0.142 C 
ATOM     11  C   UNL     1      10.598  10.184  23.324  0.00  0.00    +0.128 C 
ATOM     12  C   UNL     1      10.942   8.815  22.755  0.00  0.00    +0.127 C 
ATOM     14  C   UNL     1      11.803  11.702  24.865  0.00  0.00    +0.254 C 
ATOM     15  C   UNL     1      11.560   8.421  20.395  0.00  0.00    +0.247 C 
ENDROOT
BRANCH  15  16
ATOM      2  F   UNL     1      15.368   6.799  17.881  0.00  0.00    -0.205 F 
ATOM     16  C   UNL     1      12.536   8.573  19.310  0.00  0.00    +0.040 A 
ATOM     18  C   UNL     1      13.506   7.594  19.109  0.00  0.00    +0.051 A 
ATOM     19  C   UNL     1      12.489   9.696  18.487  0.00  0.00    +0.013 A 
ATOM     23  C   UNL     1      14.434   7.738  18.078  0.00  0.00    +0.124 A 
ATOM     24  C   UNL     1      13.417   9.840  17.457  0.00  0.00    +0.004 A 
ATOM     26  C   UNL     1      14.390   8.862  17.252  0.00  0.00    +0.038 A 
ENDBRANCH  15  16
BRANCH  14  17
ATOM      1  S   UNL     1      13.087  14.111  24.812  0.00  0.00    -0.092 S 
ATOM     17  C   UNL     1      13.016  12.444  25.185  0.00  0.00    +0.074 A 
ATOM     20  C   UNL     1      14.170  11.989  25.773  0.00  0.00    +0.021 A 
ATOM     22  C   UNL     1      15.135  13.026  25.919  0.00  0.00    +0.008 A 
ATOM     25  C   UNL     1      14.676  14.232  25.437  0.00  0.00    +0.046 A 
ENDBRANCH  14  17
BRANCH   9  13
ATOM      4  O   UNL     1      13.066  12.329  20.650  0.00  0.00    -0.249 OA
ATOM     13  C   UNL     1      12.418  12.019  21.640  0.00  0.00    +0.329 C 
BRANCH  13   3
ATOM      3  O   UNL     1      11.207  12.527  22.007  0.00  0.00    -0.467 OA
ATOM     21  C   UNL     1      10.885  13.808  21.456  0.00  0.00    +0.280 C 
ENDBRANCH  13   3
ENDBRANCH   9  13
TORSDOF 4
ENDMDL
MODEL 6
REMARK VINA RESULT:      -5.7     27.141     29.014
REMARK  Name = 7161554
REMARK  5 active torsions:
REMARK  status: ('A' for Active; 'I' for Inactive)
REMARK    1  A    between atoms: O_3  and  C_13
REMARK    2  A    between atoms: O_3  and  C_21
REMARK    3  A    between atoms: C_9  and  C_13
REMARK    4  A    between atoms: C_14  and  C_17
REMARK    5  A    between atoms: C_15  and  C_16
REMARK                            x       y       z     vdW  Elec       q    Type
REMARK                         _______ _______ _______ _____ _____    ______ ____
ROOT
ATOM      5  O   UNL     1      -4.613 -11.183  18.308  0.00  0.00    -0.269 OA
ATOM      6  O   UNL     1      -1.269 -11.325  12.425  0.00  0.00    -0.270 OA
ATOM      7  N   UNL     1      -4.616 -11.010  15.993  0.00  0.00    -0.281 N 
ATOM      8  N   UNL     1      -3.158 -10.581  13.585  0.00  0.00    -0.294 N 
ATOM      9  C   UNL     1      -5.341 -10.951  14.710  0.00  0.00    +0.202 C 
ATOM     10  C   UNL     1      -4.574 -10.195  13.623  0.00  0.00    +0.142 C 
ATOM     11  C   UNL     1      -3.186 -11.338  15.914  0.00  0.00    +0.128 C 
ATOM     12  C   UNL     1      -2.473 -10.489  14.871  0.00  0.00    +0.127 C 
ATOM     14  C   UNL     1      -5.228 -10.961  17.263  0.00  0.00    +0.254 C 
ATOM     15  C   UNL     1      -2.456 -11.005  12.455  0.00  0.00    +0.247 C 
ENDROOT
BRANCH  15  16
ATOM      2  F   UNL     1      -4.344  -8.879   8.534  0.00  0.00    -0.205 F 
ATOM     16  C   UNL     1      -3.182 -11.080  11.181  0.00  0.00    +0.040 A 
ATOM     18  C   UNL     1      -3.422  -9.920  10.450  0.00  0.00    +0.051 A 
ATOM     19  C   UNL     1      -3.628 -12.313  10.711  0.00  0.00    +0.013 A 
ATOM     23  C   UNL     1      -4.111  -9.992   9.240  0.00  0.00    +0.124 A 
ATOM     24  C   UNL     1      -4.318 -12.386   9.501  0.00  0.00    +0.004 A 
ATOM     26  C   UNL     1      -4.560 -11.226   8.765  0.00  0.00    +0.038 A 
ENDBRANCH  15  16
BRANCH  14  17
ATOM      1  S   UNL     1      -7.778 -11.896  17.546  0.00  0.00    -0.092 S 
ATOM     17  C   UNL     1      -6.648 -10.635  17.307  0.00  0.00    +0.074 A 
ATOM     20  C   UNL     1      -7.250  -9.408  17.181  0.00  0.00    +0.021 A 
ATOM     22  C   UNL     1      -8.668  -9.501  17.281  0.00  0.00    +0.008 A 
ATOM     25  C   UNL     1      -9.089 -10.797  17.480  0.00  0.00    +0.046 A 
ENDBRANCH  14  17
BRANCH   9  13
ATOM      4  O   UNL     1      -5.471 -13.333  15.052  0.00  0.00    -0.249 OA
ATOM     13  C   UNL     1      -5.607 -12.373  14.306  0.00  0.00    +0.329 C 
BRANCH  13   3
ATOM      3  O   UNL     1      -6.013 -12.409  13.005  0.00  0.00    -0.467 OA
ATOM     21  C   UNL     1      -7.049 -13.352  12.710  0.00  0.00    +0.280 C 
ENDBRANCH  13   3
ENDBRANCH   9  13
TORSDOF 4
ENDMDL
MODEL 7
REMARK VINA RESULT:      -5.5     27.533     29.768
REMARK  Name = 7161554
REMARK  5 active torsions:
REMARK  status: ('A' for Active; 'I' for Inactive)
REMARK    1  A    between atoms: O_3  and  C_13
REMARK    2  A    between atoms: O_3  and  C_21
REMARK    3  A    between atoms: C_9  and  C_13
REMARK    4  A    between atoms: C_14  and  C_17
REMARK    5  A    between atoms: C_15  and  C_16
REMARK                            x       y       z     vdW  Elec       q    Type
REMARK                         _______ _______ _______ _____ _____    ______ ____
ROOT
ATOM      5  O   UNL     1      -1.892 -11.139  15.431  0.00  0.00    -0.269 OA
ATOM      6  O   UNL     1      -5.957 -11.331  20.839  0.00  0.00    -0.270 OA
ATOM      7  N   UNL     1      -3.989 -11.515  16.354  0.00  0.00    -0.281 N 
ATOM      8  N   UNL     1      -5.567 -12.074  18.657  0.00  0.00    -0.294 N 
ATOM      9  C   UNL     1      -5.440 -11.728  16.200  0.00  0.00    +0.202 C 
ATOM     10  C   UNL     1      -6.052 -12.533  17.349  0.00  0.00    +0.142 C 
ATOM     11  C   UNL     1      -3.530 -11.116  17.691  0.00  0.00    +0.128 C 
ATOM     12  C   UNL     1      -4.113 -12.013  18.773  0.00  0.00    +0.127 C 
ATOM     14  C   UNL     1      -3.065 -11.486  15.287  0.00  0.00    +0.254 C 
ATOM     15  C   UNL     1      -6.366 -11.713  19.744  0.00  0.00    +0.247 C 
ENDROOT
BRANCH  15  16
ATOM      2  F   UNL     1     -10.593  -9.705  18.495  0.00  0.00    -0.205 F 
ATOM     16  C   UNL     1      -7.823 -11.790  19.584  0.00  0.00    +0.040 A 
ATOM     18  C   UNL     1      -8.527 -10.688  19.106  0.00  0.00    +0.051 A 
ATOM     19  C   UNL     1      -8.494 -12.966  19.912  0.00  0.00    +0.013 A 
ATOM     23  C   UNL     1      -9.912 -10.762  18.954  0.00  0.00    +0.124 A 
ATOM     24  C   UNL     1      -9.878 -13.040  19.761  0.00  0.00    +0.004 A 
ATOM     26  C   UNL     1     -10.588 -11.938  19.282  0.00  0.00    +0.038 A 
ENDBRANCH  15  16
BRANCH  14  17
ATOM      1  S   UNL     1      -4.023 -10.673  12.863  0.00  0.00    -0.092 S 
ATOM     17  C   UNL     1      -3.552 -11.885  13.973  0.00  0.00    +0.074 A 
ATOM     20  C   UNL     1      -3.697 -13.150  13.460  0.00  0.00    +0.021 A 
ATOM     22  C   UNL     1      -4.206 -13.128  12.130  0.00  0.00    +0.008 A 
ATOM     25  C   UNL     1      -4.428 -11.844  11.682  0.00  0.00    +0.046 A 
ENDBRANCH  14  17
BRANCH   9  13
ATOM      4  O   UNL     1      -5.466  -9.321  16.331  0.00  0.00    -0.249 OA
ATOM     13  C   UNL     1      -6.060 -10.364  16.094  0.00  0.00    +0.329 C 
BRANCH  13   3
ATOM      3  O   UNL     1      -7.361 -10.483  15.702  0.00  0.00    -0.467 OA
ATOM     21  C   UNL     1      -7.602 -10.295  14.304  0.00  0.00    +0.280 C 
ENDBRANCH  13   3
ENDBRANCH   9  13
TORSDOF 4
ENDMDL
MODEL 8
REMARK VINA RESULT:      -5.5      3.287      4.448
REMARK  Name = 7161554
REMARK  5 active torsions:
REMARK  status: ('A' for Active; 'I' for Inactive)
REMARK    1  A    between atoms: O_3  and  C_13
REMARK    2  A    between atoms: O_3  and  C_21
REMARK    3  A    between atoms: C_9  and  C_13
REMARK    4  A    between atoms: C_14  and  C_17
REMARK    5  A    between atoms: C_15  and  C_16
REMARK                            x       y       z     vdW  Elec       q    Type
REMARK                         _______ _______ _______ _____ _____    ______ ____
ROOT
ATOM      5  O   UNL     1      12.331  13.304  20.162  0.00  0.00    -0.269 OA
ATOM      6  O   UNL     1      14.625   7.340  22.394  0.00  0.00    -0.270 OA
ATOM      7  N   UNL     1      13.885  11.583  20.053  0.00  0.00    -0.281 N 
ATOM      8  N   UNL     1      15.127   9.346  21.302  0.00  0.00    -0.294 N 
ATOM      9  C   UNL     1      14.992  10.894  19.364  0.00  0.00    +0.202 C 
ATOM     10  C   UNL     1      15.900  10.116  20.320  0.00  0.00    +0.142 C 
ATOM     11  C   UNL     1      13.172  10.804  21.074  0.00  0.00    +0.128 C 
ATOM     12  C   UNL     1      14.137  10.128  22.037  0.00  0.00    +0.127 C 
ATOM     14  C   UNL     1      13.361  12.837  19.673  0.00  0.00    +0.254 C 
ATOM     15  C   UNL     1      15.272   7.983  21.569  0.00  0.00    +0.247 C 
ENDROOT
BRANCH  15  16
ATOM      2  F   UNL     1      16.601   5.469  17.649  0.00  0.00    -0.205 F 
ATOM     16  C   UNL     1      16.280   7.235  20.808  0.00  0.00    +0.040 A 
ATOM     18  C   UNL     1      15.953   6.698  19.566  0.00  0.00    +0.051 A 
ATOM     19  C   UNL     1      17.559   7.066  21.333  0.00  0.00    +0.013 A 
ATOM     23  C   UNL     1      16.912   5.987  18.843  0.00  0.00    +0.124 A 
ATOM     24  C   UNL     1      18.517   6.355  20.611  0.00  0.00    +0.004 A 
ATOM     26  C   UNL     1      18.194   5.816  19.366  0.00  0.00    +0.038 A 
ENDBRANCH  15  16
BRANCH  14  17
ATOM      1  S   UNL     1      15.405  14.566  19.137  0.00  0.00    -0.092 S 
ATOM     17  C   UNL     1      14.091  13.584  18.656  0.00  0.00    +0.074 A 
ATOM     20  C   UNL     1      13.876  13.621  17.301  0.00  0.00    +0.021 A 
ATOM     22  C   UNL     1      14.807  14.474  16.641  0.00  0.00    +0.008 A 
ATOM     25  C   UNL     1      15.695  15.052  17.521  0.00  0.00    +0.046 A 
ENDBRANCH  14  17
BRANCH   9  13
ATOM      4  O   UNL     1      13.555   9.108  18.619  0.00  0.00    -0.249 OA
ATOM     13  C   UNL     1      14.361   9.988  18.347  0.00  0.00    +0.329 C 
BRANCH  13   3
ATOM      3  O   UNL     1      14.827  10.301  17.104  0.00  0.00    -0.467 OA
ATOM     21  C   UNL     1      13.952   9.976  16.019  0.00  0.00    +0.280 C 
ENDBRANCH  13   3
ENDBRANCH   9  13
TORSDOF 4
ENDMDL
MODEL 9
REMARK VINA RESULT:      -5.5     27.211     29.662
REMARK  Name = 7161554
REMARK  5 active torsions:
REMARK  status: ('A' for Active; 'I' for Inactive)
REMARK    1  A    between atoms: O_3  and  C_13
REMARK    2  A    between atoms: O_3  and  C_21
REMARK    3  A    between atoms: C_9  and  C_13
REMARK    4  A    between atoms: C_14  and  C_17
REMARK    5  A    between atoms: C_15  and  C_16
REMARK                            x       y       z     vdW  Elec       q    Type
REMARK                         _______ _______ _______ _____ _____    ______ ____
ROOT
ATOM      5  O   UNL     1      -4.322 -13.425  10.309  0.00  0.00    -0.269 OA
ATOM      6  O   UNL     1      -6.298 -14.965  16.596  0.00  0.00    -0.270 OA
ATOM      7  N   UNL     1      -4.787 -12.764  12.486  0.00  0.00    -0.281 N 
ATOM      8  N   UNL     1      -6.075 -13.303  14.968  0.00  0.00    -0.294 N 
ATOM      9  C   UNL     1      -4.726 -11.760  13.564  0.00  0.00    +0.202 C 
ATOM     10  C   UNL     1      -5.861 -11.903  14.581  0.00  0.00    +0.142 C 
ATOM     11  C   UNL     1      -5.064 -14.146  12.902  0.00  0.00    +0.128 C 
ATOM     12  C   UNL     1      -6.256 -14.218  13.844  0.00  0.00    +0.127 C 
ATOM     14  C   UNL     1      -4.420 -12.524  11.144  0.00  0.00    +0.254 C 
ATOM     15  C   UNL     1      -6.117 -13.792  16.275  0.00  0.00    +0.247 C 
ENDROOT
BRANCH  15  16
ATOM      2  F   UNL     1      -3.358 -11.797  19.718  0.00  0.00    -0.205 F 
ATOM     16  C   UNL     1      -5.932 -12.838  17.374  0.00  0.00    +0.040 A 
ATOM     18  C   UNL     1      -4.708 -12.771  18.035  0.00  0.00    +0.051 A 
ATOM     19  C   UNL     1      -6.982 -12.003  17.751  0.00  0.00    +0.013 A 
ATOM     23  C   UNL     1      -4.532 -11.864  19.080  0.00  0.00    +0.124 A 
ATOM     24  C   UNL     1      -6.807 -11.097  18.796  0.00  0.00    +0.004 A 
ATOM     26  C   UNL     1      -5.582 -11.027  19.460  0.00  0.00    +0.038 A 
ENDBRANCH  15  16
BRANCH  14  17
ATOM      1  S   UNL     1      -5.442 -10.173  10.206  0.00  0.00    -0.092 S 
ATOM     17  C   UNL     1      -4.150 -11.143  10.764  0.00  0.00    +0.074 A 
ATOM     20  C   UNL     1      -2.957 -10.465  10.789  0.00  0.00    +0.021 A 
ATOM     22  C   UNL     1      -3.102  -9.121  10.339  0.00  0.00    +0.008 A 
ATOM     25  C   UNL     1      -4.403  -8.830   9.991  0.00  0.00    +0.046 A 
ENDBRANCH  14  17
BRANCH   9  13
ATOM      4  O   UNL     1      -2.467 -12.580  13.746  0.00  0.00    -0.249 OA
ATOM     13  C   UNL     1      -3.382 -11.918  14.216  0.00  0.00    +0.329 C 
BRANCH  13   3
ATOM      3  O   UNL     1      -3.358 -11.220  15.387  0.00  0.00    -0.467 OA
ATOM     21  C   UNL     1      -2.061 -10.819  15.838  0.00  0.00    +0.280 C 
ENDBRANCH  13   3
ENDBRANCH   9  13
TORSDOF 4
ENDMDL
MODEL 10
REMARK VINA RESULT:      -5.4     14.810     16.037
REMARK  Name = 7161554
REMARK  5 active torsions:
REMARK  status: ('A' for Active; 'I' for Inactive)
REMARK    1  A    between atoms: O_3  and  C_13
REMARK    2  A    between atoms: O_3  and  C_21
REMARK    3  A    between atoms: C_9  and  C_13
REMARK    4  A    between atoms: C_14  and  C_17
REMARK    5  A    between atoms: C_15  and  C_16
REMARK                            x       y       z     vdW  Elec       q    Type
REMARK                         _______ _______ _______ _____ _____    ______ ____
ROOT
ATOM      5  O   UNL     1      12.482  12.136   4.358  0.00  0.00    -0.269 OA
ATOM      6  O   UNL     1       7.629   7.949   6.532  0.00  0.00    -0.270 OA
ATOM      7  N   UNL     1      11.847  10.240   5.538  0.00  0.00    -0.281 N 
ATOM      8  N   UNL     1       9.794   8.771   6.855  0.00  0.00    -0.294 N 
ATOM      9  C   UNL     1      12.188   8.981   6.226  0.00  0.00    +0.202 C 
ATOM     10  C   UNL     1      11.179   8.600   7.312  0.00  0.00    +0.142 C 
ATOM     11  C   UNL     1      10.440  10.406   5.149  0.00  0.00    +0.128 C 
ATOM     12  C   UNL     1       9.500  10.090   6.304  0.00  0.00    +0.127 C 
ATOM     14  C   UNL     1      12.790  11.182   5.074  0.00  0.00    +0.254 C 
ATOM     15  C   UNL     1       8.789   7.803   6.914  0.00  0.00    +0.247 C 
ENDROOT
BRANCH  15  16
ATOM      2  F   UNL     1       9.213   4.811  10.698  0.00  0.00    -0.205 F 
ATOM     16  C   UNL     1       9.128   6.491   7.477  0.00  0.00    +0.040 A 
ATOM     18  C   UNL     1       9.006   6.272   8.847  0.00  0.00    +0.051 A 
ATOM     19  C   UNL     1       9.570   5.470   6.638  0.00  0.00    +0.013 A 
ATOM     23  C   UNL     1       9.328   5.025   9.382  0.00  0.00    +0.124 A 
ATOM     24  C   UNL     1       9.892   4.223   7.173  0.00  0.00    +0.004 A 
ATOM     26  C   UNL     1       9.772   4.001   8.545  0.00  0.00    +0.038 A 
ENDBRANCH  15  16
BRANCH  14  17
ATOM      1  S   UNL     1      15.300  10.418   4.319  0.00  0.00    -0.092 S 
ATOM     17  C   UNL     1      14.178  10.989   5.476  0.00  0.00    +0.074 A 
ATOM     20  C   UNL     1      14.754  11.207   6.703  0.00  0.00    +0.021 A 
ATOM     22  C   UNL     1      16.144  10.899   6.697  0.00  0.00    +0.008 A 
ATOM     25  C   UNL     1      16.572  10.459   5.464  0.00  0.00    +0.046 A 
ENDBRANCH  14  17
BRANCH   9  13
ATOM      4  O   UNL     1      11.339   7.600   4.443  0.00  0.00    -0.249 OA
ATOM     13  C   UNL     1      12.274   7.925   5.161  0.00  0.00    +0.329 C 
BRANCH  13   3
ATOM      3  O   UNL     1      13.534   7.405   5.135  0.00  0.00    -0.467 OA
ATOM     21  C   UNL     1      14.219   7.387   6.392  0.00  0.00    +0.280 C 
ENDBRANCH  13   3
ENDBRANCH   9  13
TORSDOF 4
ENDMDL
