MODEL 1
REMARK VINA RESULT:      -6.3      0.000      0.000
REMARK  Name = 75367094
REMARK  7 active torsions:
REMARK  status: ('A' for Active; 'I' for Inactive)
REMARK    1  A    between atoms: S_1  and  N_7
REMARK    2  A    between atoms: S_1  and  C_17
REMARK    3  A    between atoms: O_3  and  C_12
REMARK    4  A    between atoms: N_6  and  C_8
REMARK    5  A    between atoms: N_6  and  C_9
REMARK    6  A    between atoms: N_7  and  C_16
REMARK    7  A    between atoms: C_14  and  C_16
REMARK                            x       y       z     vdW  Elec       q    Type
REMARK                         _______ _______ _______ _____ _____    ______ ____
ROOT
ATOM      2  O   UNL     1      12.616   9.456  21.804  0.00  0.00    -0.371 OA
ATOM      9  C   UNL     1      11.602   8.097  20.141  0.00  0.00    +0.111 C 
ATOM     12  C   UNL     1      12.931   7.481  20.542  0.00  0.00    +0.164 C 
ATOM     14  C   UNL     1      13.154   8.127  21.903  0.00  0.00    +0.164 C 
ATOM     15  C   UNL     1      11.767   9.522  20.645  0.00  0.00    +0.181 C 
ENDROOT
BRANCH  12   3
ATOM      3  O   UNL     1      12.873   6.070  20.630  0.00  0.00    -0.388 OA
ATOM     24  H   UNL     1      13.149   5.698  19.776  0.00  0.00    +0.210 HD
ENDBRANCH  12   3
BRANCH   9   6
ATOM      6  N   UNL     1      11.335   8.029  18.713  0.00  0.00    -0.306 NA
ATOM     23  H   UNL     1      10.352   8.257  18.561  0.00  0.00    +0.123 HD
BRANCH   6   8
ATOM      8  C   UNL     1      12.240   8.921  18.004  0.00  0.00    +0.054 C 
ATOM     10  C   UNL     1      11.710   9.153  16.573  0.00  0.00    +0.019 C 
ATOM     11  C   UNL     1      13.379   8.094  17.370  0.00  0.00    +0.019 C 
ATOM     13  C   UNL     1      13.164   8.939  16.094  0.00  0.00    +0.003 C 
ENDBRANCH   6   8
ENDBRANCH   9   6
BRANCH  14  16
ATOM     16  C   UNL     1      14.617   8.194  22.302  0.00  0.00    +0.140 C 
BRANCH  16   7
ATOM      7  N   UNL     1      15.339   7.040  21.730  0.00  0.00    -0.187 NA
ATOM     25  H   UNL     1      15.681   6.348  22.407  0.00  0.00    +0.148 HD
BRANCH   7   1
ATOM      1  S   UNL     1      16.162   7.200  20.249  0.00  0.00    +0.058 S 
ATOM      4  O   UNL     1      15.971   8.543  19.735  0.00  0.00    -0.153 OA
ATOM      5  O   UNL     1      15.862   6.051  19.417  0.00  0.00    -0.153 OA
BRANCH   1  17
ATOM     17  C   UNL     1      17.849   7.045  20.754  0.00  0.00    +0.105 A 
ATOM     18  C   UNL     1      18.621   5.981  20.289  0.00  0.00    +0.028 A 
ATOM     19  C   UNL     1      18.407   7.987  21.620  0.00  0.00    +0.028 A 
ATOM     20  C   UNL     1      19.952   5.857  20.690  0.00  0.00    +0.002 A 
ATOM     21  C   UNL     1      19.736   7.862  22.020  0.00  0.00    +0.002 A 
ATOM     22  C   UNL     1      20.509   6.798  21.556  0.00  0.00    +0.000 A 
ENDBRANCH   1  17
ENDBRANCH   7   1
ENDBRANCH  16   7
ENDBRANCH  14  16
TORSDOF 7
ENDMDL
MODEL 2
REMARK VINA RESULT:      -6.2      3.236      5.053
REMARK  Name = 75367094
REMARK  7 active torsions:
REMARK  status: ('A' for Active; 'I' for Inactive)
REMARK    1  A    between atoms: S_1  and  N_7
REMARK    2  A    between atoms: S_1  and  C_17
REMARK    3  A    between atoms: O_3  and  C_12
REMARK    4  A    between atoms: N_6  and  C_8
REMARK    5  A    between atoms: N_6  and  C_9
REMARK    6  A    between atoms: N_7  and  C_16
REMARK    7  A    between atoms: C_14  and  C_16
REMARK                            x       y       z     vdW  Elec       q    Type
REMARK                         _______ _______ _______ _____ _____    ______ ____
ROOT
ATOM      2  O   UNL     1      10.504   8.229  21.662  0.00  0.00    -0.371 OA
ATOM      9  C   UNL     1      11.247  10.212  22.739  0.00  0.00    +0.111 C 
ATOM     12  C   UNL     1      11.895  10.119  21.369  0.00  0.00    +0.164 C 
ATOM     14  C   UNL     1      10.948   9.160  20.661  0.00  0.00    +0.164 C 
ATOM     15  C   UNL     1      10.802   8.775  22.959  0.00  0.00    +0.181 C 
ENDROOT
BRANCH  12   3
ATOM      3  O   UNL     1      11.966  11.371  20.714  0.00  0.00    -0.388 OA
ATOM     24  H   UNL     1      11.513  12.031  21.264  0.00  0.00    +0.210 HD
ENDBRANCH  12   3
BRANCH   9   6
ATOM      6  N   UNL     1      12.143  10.693  23.777  0.00  0.00    -0.306 NA
ATOM     23  H   UNL     1      12.825  11.319  23.346  0.00  0.00    +0.123 HD
BRANCH   6   8
ATOM      8  C   UNL     1      11.370  11.335  24.829  0.00  0.00    +0.054 C 
ATOM     10  C   UNL     1      10.474  12.428  24.207  0.00  0.00    +0.019 C 
ATOM     11  C   UNL     1      12.204  12.477  25.451  0.00  0.00    +0.019 C 
ATOM     13  C   UNL     1      10.922  13.337  25.374  0.00  0.00    +0.003 C 
ENDBRANCH   6   8
ENDBRANCH   9   6
BRANCH  14  16
ATOM     16  C   UNL     1      11.602   8.408  19.515  0.00  0.00    +0.140 C 
BRANCH  16   7
ATOM      7  N   UNL     1      12.756   9.179  19.013  0.00  0.00    -0.187 NA
ATOM     25  H   UNL     1      12.623  10.195  18.956  0.00  0.00    +0.148 HD
BRANCH   7   1
ATOM      1  S   UNL     1      13.874   8.447  17.958  0.00  0.00    +0.058 S 
ATOM      4  O   UNL     1      14.477   9.463  17.118  0.00  0.00    -0.153 OA
ATOM      5  O   UNL     1      13.261   7.276  17.362  0.00  0.00    -0.153 OA
BRANCH   1  17
ATOM     17  C   UNL     1      15.108   7.868  19.084  0.00  0.00    +0.105 A 
ATOM     18  C   UNL     1      15.810   6.694  18.805  0.00  0.00    +0.028 A 
ATOM     19  C   UNL     1      15.378   8.582  20.251  0.00  0.00    +0.028 A 
ATOM     20  C   UNL     1      16.781   6.235  19.696  0.00  0.00    +0.002 A 
ATOM     21  C   UNL     1      16.349   8.123  21.140  0.00  0.00    +0.002 A 
ATOM     22  C   UNL     1      17.051   6.950  20.863  0.00  0.00    +0.000 A 
ENDBRANCH   1  17
ENDBRANCH   7   1
ENDBRANCH  16   7
ENDBRANCH  14  16
TORSDOF 7
ENDMDL
MODEL 3
REMARK VINA RESULT:      -6.1      4.120      6.894
REMARK  Name = 75367094
REMARK  7 active torsions:
REMARK  status: ('A' for Active; 'I' for Inactive)
REMARK    1  A    between atoms: S_1  and  N_7
REMARK    2  A    between atoms: S_1  and  C_17
REMARK    3  A    between atoms: O_3  and  C_12
REMARK    4  A    between atoms: N_6  and  C_8
REMARK    5  A    between atoms: N_6  and  C_9
REMARK    6  A    between atoms: N_7  and  C_16
REMARK    7  A    between atoms: C_14  and  C_16
REMARK                            x       y       z     vdW  Elec       q    Type
REMARK                         _______ _______ _______ _____ _____    ______ ____
ROOT
ATOM      2  O   UNL     1      11.359  11.075  21.707  0.00  0.00    -0.371 OA
ATOM      9  C   UNL     1      11.179  12.517  23.586  0.00  0.00    +0.111 C 
ATOM     12  C   UNL     1      10.808  11.106  24.006  0.00  0.00    +0.164 C 
ATOM     14  C   UNL     1      11.469  10.289  22.905  0.00  0.00    +0.164 C 
ATOM     15  C   UNL     1      11.037  12.428  22.075  0.00  0.00    +0.181 C 
ENDROOT
BRANCH  12   3
ATOM      3  O   UNL     1      11.308  10.769  25.286  0.00  0.00    -0.388 OA
ATOM     24  H   UNL     1      11.058  11.473  25.908  0.00  0.00    +0.210 HD
ENDBRANCH  12   3
BRANCH   9   6
ATOM      6  N   UNL     1      10.334  13.543  24.175  0.00  0.00    -0.306 NA
ATOM     23  H   UNL     1       9.708  13.095  24.846  0.00  0.00    +0.123 HD
BRANCH   6   8
ATOM      8  C   UNL     1      11.167  14.573  24.778  0.00  0.00    +0.054 C 
ATOM     10  C   UNL     1      12.588  14.014  25.000  0.00  0.00    +0.019 C 
ATOM     11  C   UNL     1      10.992  14.538  26.312  0.00  0.00    +0.019 C 
ATOM     13  C   UNL     1      12.530  14.663  26.401  0.00  0.00    +0.003 C 
ENDBRANCH   6   8
ENDBRANCH   9   6
BRANCH  14  16
ATOM     16  C   UNL     1      10.817   8.934  22.690  0.00  0.00    +0.140 C 
BRANCH  16   7
ATOM      7  N   UNL     1      10.976   8.527  21.280  0.00  0.00    -0.187 NA
ATOM     25  H   UNL     1      10.158   8.679  20.678  0.00  0.00    +0.148 HD
BRANCH   7   1
ATOM      1  S   UNL     1      12.065   7.286  20.869  0.00  0.00    +0.058 S 
ATOM      4  O   UNL     1      11.340   6.037  20.732  0.00  0.00    -0.153 OA
ATOM      5  O   UNL     1      13.221   7.366  21.741  0.00  0.00    -0.153 OA
BRANCH   1  17
ATOM     17  C   UNL     1      12.596   7.788  19.260  0.00  0.00    +0.105 A 
ATOM     18  C   UNL     1      13.824   7.351  18.763  0.00  0.00    +0.028 A 
ATOM     19  C   UNL     1      11.787   8.623  18.488  0.00  0.00    +0.028 A 
ATOM     20  C   UNL     1      14.244   7.750  17.494  0.00  0.00    +0.002 A 
ATOM     21  C   UNL     1      12.208   9.022  17.220  0.00  0.00    +0.002 A 
ATOM     22  C   UNL     1      13.436   8.585  16.722  0.00  0.00    +0.000 A 
ENDBRANCH   1  17
ENDBRANCH   7   1
ENDBRANCH  16   7
ENDBRANCH  14  16
TORSDOF 7
ENDMDL
MODEL 4
REMARK VINA RESULT:      -6.1      3.657      7.594
REMARK  Name = 75367094
REMARK  7 active torsions:
REMARK  status: ('A' for Active; 'I' for Inactive)
REMARK    1  A    between atoms: S_1  and  N_7
REMARK    2  A    between atoms: S_1  and  C_17
REMARK    3  A    between atoms: O_3  and  C_12
REMARK    4  A    between atoms: N_6  and  C_8
REMARK    5  A    between atoms: N_6  and  C_9
REMARK    6  A    between atoms: N_7  and  C_16
REMARK    7  A    between atoms: C_14  and  C_16
REMARK                            x       y       z     vdW  Elec       q    Type
REMARK                         _______ _______ _______ _____ _____    ______ ____
ROOT
ATOM      2  O   UNL     1      11.992   7.349  20.932  0.00  0.00    -0.371 OA
ATOM      9  C   UNL     1      14.346   7.508  21.204  0.00  0.00    +0.111 C 
ATOM     12  C   UNL     1      13.705   8.800  21.675  0.00  0.00    +0.164 C 
ATOM     14  C   UNL     1      12.276   8.342  21.932  0.00  0.00    +0.164 C 
ATOM     15  C   UNL     1      13.235   6.913  20.354  0.00  0.00    +0.181 C 
ENDROOT
BRANCH  12   3
ATOM      3  O   UNL     1      14.312   9.316  22.845  0.00  0.00    -0.388 OA
ATOM     24  H   UNL     1      13.709   9.967  23.241  0.00  0.00    +0.210 HD
ENDBRANCH  12   3
BRANCH   9   6
ATOM      6  N   UNL     1      15.582   7.705  20.463  0.00  0.00    -0.306 NA
ATOM     23  H   UNL     1      16.006   8.579  20.777  0.00  0.00    +0.123 HD
BRANCH   6   8
ATOM      8  C   UNL     1      16.452   6.554  20.651  0.00  0.00    +0.054 C 
ATOM     10  C   UNL     1      17.883   7.042  20.961  0.00  0.00    +0.019 C 
ATOM     11  C   UNL     1      16.987   6.090  19.278  0.00  0.00    +0.019 C 
ATOM     13  C   UNL     1      18.371   5.976  19.955  0.00  0.00    +0.003 C 
ENDBRANCH   6   8
ENDBRANCH   9   6
BRANCH  14  16
ATOM     16  C   UNL     1      11.260   9.467  21.840  0.00  0.00    +0.140 C 
BRANCH  16   7
ATOM      7  N   UNL     1      11.934  10.761  22.066  0.00  0.00    -0.187 NA
ATOM     25  H   UNL     1      12.771  10.932  21.498  0.00  0.00    +0.148 HD
BRANCH   7   1
ATOM      1  S   UNL     1      11.807  11.535  23.576  0.00  0.00    +0.058 S 
ATOM      4  O   UNL     1      13.122  11.964  24.009  0.00  0.00    -0.153 OA
ATOM      5  O   UNL     1      10.978  10.728  24.451  0.00  0.00    -0.153 OA
BRANCH   1  17
ATOM     17  C   UNL     1      10.871  12.978  23.166  0.00  0.00    +0.105 A 
ATOM     18  C   UNL     1      10.741  13.369  21.833  0.00  0.00    +0.028 A 
ATOM     19  C   UNL     1      10.264  13.725  24.175  0.00  0.00    +0.028 A 
ATOM     20  C   UNL     1      10.006  14.510  21.510  0.00  0.00    +0.002 A 
ATOM     21  C   UNL     1       9.529  14.865  23.851  0.00  0.00    +0.002 A 
ATOM     22  C   UNL     1       9.399  15.257  22.519  0.00  0.00    +0.000 A 
ENDBRANCH   1  17
ENDBRANCH   7   1
ENDBRANCH  16   7
ENDBRANCH  14  16
TORSDOF 7
ENDMDL
MODEL 5
REMARK VINA RESULT:      -6.0      2.679      4.080
REMARK  Name = 75367094
REMARK  7 active torsions:
REMARK  status: ('A' for Active; 'I' for Inactive)
REMARK    1  A    between atoms: S_1  and  N_7
REMARK    2  A    between atoms: S_1  and  C_17
REMARK    3  A    between atoms: O_3  and  C_12
REMARK    4  A    between atoms: N_6  and  C_8
REMARK    5  A    between atoms: N_6  and  C_9
REMARK    6  A    between atoms: N_7  and  C_16
REMARK    7  A    between atoms: C_14  and  C_16
REMARK                            x       y       z     vdW  Elec       q    Type
REMARK                         _______ _______ _______ _____ _____    ______ ____
ROOT
ATOM      2  O   UNL     1      15.982   7.420  19.012  0.00  0.00    -0.371 OA
ATOM      9  C   UNL     1      14.031   7.177  20.343  0.00  0.00    +0.111 C 
ATOM     12  C   UNL     1      15.223   6.626  21.105  0.00  0.00    +0.164 C 
ATOM     14  C   UNL     1      16.374   7.321  20.391  0.00  0.00    +0.164 C 
ATOM     15  C   UNL     1      14.565   7.192  18.920  0.00  0.00    +0.181 C 
ENDROOT
BRANCH  12   3
ATOM      3  O   UNL     1      15.186   6.948  22.482  0.00  0.00    -0.388 OA
ATOM     24  H   UNL     1      15.115   7.913  22.570  0.00  0.00    +0.210 HD
ENDBRANCH  12   3
BRANCH   9   6
ATOM      6  N   UNL     1      12.826   6.376  20.488  0.00  0.00    -0.306 NA
ATOM     23  H   UNL     1      12.968   5.721  21.258  0.00  0.00    +0.123 HD
BRANCH   6   8
ATOM      8  C   UNL     1      11.681   7.251  20.691  0.00  0.00    +0.054 C 
ATOM     10  C   UNL     1      12.062   8.361  21.694  0.00  0.00    +0.019 C 
ATOM     11  C   UNL     1      10.780   6.662  21.798  0.00  0.00    +0.019 C 
ATOM     13  C   UNL     1      10.699   8.094  22.373  0.00  0.00    +0.003 C 
ENDBRANCH   6   8
ENDBRANCH   9   6
BRANCH  14  16
ATOM     16  C   UNL     1      17.688   6.568  20.498  0.00  0.00    +0.140 C 
BRANCH  16   7
ATOM      7  N   UNL     1      18.239   6.726  21.858  0.00  0.00    -0.187 NA
ATOM     25  H   UNL     1      17.549   6.854  22.607  0.00  0.00    +0.148 HD
BRANCH   7   1
ATOM      1  S   UNL     1      19.799   7.371  22.075  0.00  0.00    +0.058 S 
ATOM      4  O   UNL     1      19.890   7.978  23.389  0.00  0.00    -0.153 OA
ATOM      5  O   UNL     1      20.163   8.130  20.894  0.00  0.00    -0.153 OA
BRANCH   1  17
ATOM     17  C   UNL     1      20.798   5.912  22.078  0.00  0.00    +0.105 A 
ATOM     18  C   UNL     1      20.743   5.028  21.000  0.00  0.00    +0.028 A 
ATOM     19  C   UNL     1      21.637   5.645  23.159  0.00  0.00    +0.028 A 
ATOM     20  C   UNL     1      21.529   3.875  21.004  0.00  0.00    +0.002 A 
ATOM     21  C   UNL     1      22.422   4.492  23.163  0.00  0.00    +0.002 A 
ATOM     22  C   UNL     1      22.369   3.607  22.086  0.00  0.00    +0.000 A 
ENDBRANCH   1  17
ENDBRANCH   7   1
ENDBRANCH  16   7
ENDBRANCH  14  16
TORSDOF 7
ENDMDL
MODEL 6
REMARK VINA RESULT:      -6.0      3.059      5.956
REMARK  Name = 75367094
REMARK  7 active torsions:
REMARK  status: ('A' for Active; 'I' for Inactive)
REMARK    1  A    between atoms: S_1  and  N_7
REMARK    2  A    between atoms: S_1  and  C_17
REMARK    3  A    between atoms: O_3  and  C_12
REMARK    4  A    between atoms: N_6  and  C_8
REMARK    5  A    between atoms: N_6  and  C_9
REMARK    6  A    between atoms: N_7  and  C_16
REMARK    7  A    between atoms: C_14  and  C_16
REMARK                            x       y       z     vdW  Elec       q    Type
REMARK                         _______ _______ _______ _____ _____    ______ ____
ROOT
ATOM      2  O   UNL     1      16.464   7.114  20.977  0.00  0.00    -0.371 OA
ATOM      9  C   UNL     1      14.463   7.170  19.700  0.00  0.00    +0.111 C 
ATOM     12  C   UNL     1      14.720   8.550  20.278  0.00  0.00    +0.164 C 
ATOM     14  C   UNL     1      16.212   8.470  20.573  0.00  0.00    +0.164 C 
ATOM     15  C   UNL     1      15.342   6.303  20.586  0.00  0.00    +0.181 C 
ENDROOT
BRANCH  12   3
ATOM      3  O   UNL     1      14.417   9.588  19.367  0.00  0.00    -0.388 OA
ATOM     24  H   UNL     1      14.771   9.344  18.495  0.00  0.00    +0.210 HD
ENDBRANCH  12   3
BRANCH   9   6
ATOM      6  N   UNL     1      13.063   6.776  19.732  0.00  0.00    -0.306 NA
ATOM     23  H   UNL     1      13.017   5.757  19.679  0.00  0.00    +0.123 HD
BRANCH   6   8
ATOM      8  C   UNL     1      12.433   7.311  20.929  0.00  0.00    +0.054 C 
ATOM     10  C   UNL     1      11.543   6.222  21.566  0.00  0.00    +0.019 C 
ATOM     11  C   UNL     1      11.131   8.043  20.537  0.00  0.00    +0.019 C 
ATOM     13  C   UNL     1      10.469   7.321  21.732  0.00  0.00    +0.003 C 
ENDBRANCH   6   8
ENDBRANCH   9   6
BRANCH  14  16
ATOM     16  C   UNL     1      16.659   9.422  21.668  0.00  0.00    +0.140 C 
BRANCH  16   7
ATOM      7  N   UNL     1      15.487   9.855  22.455  0.00  0.00    -0.187 NA
ATOM     25  H   UNL     1      14.746   9.155  22.573  0.00  0.00    +0.148 HD
BRANCH   7   1
ATOM      1  S   UNL     1      15.062  11.502  22.513  0.00  0.00    +0.058 S 
ATOM      4  O   UNL     1      14.972  12.024  21.163  0.00  0.00    -0.153 OA
ATOM      5  O   UNL     1      15.892  12.168  23.499  0.00  0.00    -0.153 OA
BRANCH   1  17
ATOM     17  C   UNL     1      13.427  11.430  23.181  0.00  0.00    +0.105 A 
ATOM     18  C   UNL     1      12.376  10.945  22.401  0.00  0.00    +0.028 A 
ATOM     19  C   UNL     1      13.187  11.861  24.486  0.00  0.00    +0.028 A 
ATOM     20  C   UNL     1      11.085  10.892  22.927  0.00  0.00    +0.002 A 
ATOM     21  C   UNL     1      11.896  11.808  25.010  0.00  0.00    +0.002 A 
ATOM     22  C   UNL     1      10.845  11.323  24.232  0.00  0.00    +0.000 A 
ENDBRANCH   1  17
ENDBRANCH   7   1
ENDBRANCH  16   7
ENDBRANCH  14  16
TORSDOF 7
ENDMDL
MODEL 7
REMARK VINA RESULT:      -5.9     25.810     27.901
REMARK  Name = 75367094
REMARK  7 active torsions:
REMARK  status: ('A' for Active; 'I' for Inactive)
REMARK    1  A    between atoms: S_1  and  N_7
REMARK    2  A    between atoms: S_1  and  C_17
REMARK    3  A    between atoms: O_3  and  C_12
REMARK    4  A    between atoms: N_6  and  C_8
REMARK    5  A    between atoms: N_6  and  C_9
REMARK    6  A    between atoms: N_7  and  C_16
REMARK    7  A    between atoms: C_14  and  C_16
REMARK                            x       y       z     vdW  Elec       q    Type
REMARK                         _______ _______ _______ _____ _____    ______ ____
ROOT
ATOM      2  O   UNL     1      -5.438 -12.033  18.158  0.00  0.00    -0.371 OA
ATOM      9  C   UNL     1      -7.254 -10.606  17.601  0.00  0.00    +0.111 C 
ATOM     12  C   UNL     1      -5.983 -10.056  16.981  0.00  0.00    +0.164 C 
ATOM     14  C   UNL     1      -5.100 -11.296  16.971  0.00  0.00    +0.164 C 
ATOM     15  C   UNL     1      -6.691 -11.538  18.662  0.00  0.00    +0.181 C 
ENDROOT
BRANCH  12   3
ATOM      3  O   UNL     1      -6.188  -9.545  15.678  0.00  0.00    -0.388 OA
ATOM     24  H   UNL     1      -5.524  -8.856  15.510  0.00  0.00    +0.210 HD
ENDBRANCH  12   3
BRANCH   9   6
ATOM      6  N   UNL     1      -8.126  -9.581  18.152  0.00  0.00    -0.306 NA
ATOM     23  H   UNL     1      -7.604  -8.705  18.191  0.00  0.00    +0.123 HD
BRANCH   6   8
ATOM      8  C   UNL     1      -9.335  -9.486  17.348  0.00  0.00    +0.054 C 
ATOM     10  C   UNL     1      -9.829  -8.024  17.343  0.00  0.00    +0.019 C 
ATOM     11  C   UNL     1     -10.560  -9.820  18.227  0.00  0.00    +0.019 C 
ATOM     13  C   UNL     1     -11.245  -8.593  17.584  0.00  0.00    +0.003 C 
ENDBRANCH   6   8
ENDBRANCH   9   6
BRANCH  14  16
ATOM     16  C   UNL     1      -3.616 -10.976  16.972  0.00  0.00    +0.140 C 
BRANCH  16   7
ATOM      7  N   UNL     1      -3.256 -10.295  15.713  0.00  0.00    -0.187 NA
ATOM     25  H   UNL     1      -3.982  -9.692  15.309  0.00  0.00    +0.148 HD
BRANCH   7   1
ATOM      1  S   UNL     1      -2.105 -10.989  14.669  0.00  0.00    +0.058 S 
ATOM      4  O   UNL     1      -2.227 -12.433  14.710  0.00  0.00    -0.153 OA
ATOM      5  O   UNL     1      -0.820 -10.358  14.898  0.00  0.00    -0.153 OA
BRANCH   1  17
ATOM     17  C   UNL     1      -2.674 -10.439  13.088  0.00  0.00    +0.105 A 
ATOM     18  C   UNL     1      -4.042 -10.373  12.823  0.00  0.00    +0.028 A 
ATOM     19  C   UNL     1      -1.754 -10.074  12.105  0.00  0.00    +0.028 A 
ATOM     20  C   UNL     1      -4.491  -9.943  11.574  0.00  0.00    +0.002 A 
ATOM     21  C   UNL     1      -2.203  -9.643  10.856  0.00  0.00    +0.002 A 
ATOM     22  C   UNL     1      -3.571  -9.577  10.591  0.00  0.00    +0.000 A 
ENDBRANCH   1  17
ENDBRANCH   7   1
ENDBRANCH  16   7
ENDBRANCH  14  16
TORSDOF 7
ENDMDL
MODEL 8
REMARK VINA RESULT:      -5.7     31.600     33.104
REMARK  Name = 75367094
REMARK  7 active torsions:
REMARK  status: ('A' for Active; 'I' for Inactive)
REMARK    1  A    between atoms: S_1  and  N_7
REMARK    2  A    between atoms: S_1  and  C_17
REMARK    3  A    between atoms: O_3  and  C_12
REMARK    4  A    between atoms: N_6  and  C_8
REMARK    5  A    between atoms: N_6  and  C_9
REMARK    6  A    between atoms: N_7  and  C_16
REMARK    7  A    between atoms: C_14  and  C_16
REMARK                            x       y       z     vdW  Elec       q    Type
REMARK                         _______ _______ _______ _____ _____    ______ ____
ROOT
ATOM      2  O   UNL     1     -14.904   0.022  32.099  0.00  0.00    -0.371 OA
ATOM      9  C   UNL     1     -14.636   0.261  29.751  0.00  0.00    +0.111 C 
ATOM     12  C   UNL     1     -14.235   1.558  30.430  0.00  0.00    +0.164 C 
ATOM     14  C   UNL     1     -13.957   1.073  31.847  0.00  0.00    +0.164 C 
ATOM     15  C   UNL     1     -15.455  -0.409  30.842  0.00  0.00    +0.181 C 
ENDROOT
BRANCH  12   3
ATOM      3  O   UNL     1     -13.093   2.151  29.842  0.00  0.00    -0.388 OA
ATOM     24  H   UNL     1     -12.414   2.256  30.530  0.00  0.00    +0.210 HD
ENDBRANCH  12   3
BRANCH   9   6
ATOM      6  N   UNL     1     -15.384   0.455  28.519  0.00  0.00    -0.306 NA
ATOM     23  H   UNL     1     -15.748  -0.452  28.221  0.00  0.00    +0.123 HD
BRANCH   6   8
ATOM      8  C   UNL     1     -16.430   1.443  28.734  0.00  0.00    +0.054 C 
ATOM     10  C   UNL     1     -17.746   0.934  28.108  0.00  0.00    +0.019 C 
ATOM     11  C   UNL     1     -16.382   2.491  27.600  0.00  0.00    +0.019 C 
ATOM     13  C   UNL     1     -17.920   2.358  27.531  0.00  0.00    +0.003 C 
ENDBRANCH   6   8
ENDBRANCH   9   6
BRANCH  14  16
ATOM     16  C   UNL     1     -14.110   2.162  32.894  0.00  0.00    +0.140 C 
BRANCH  16   7
ATOM      7  N   UNL     1     -13.768   3.470  32.301  0.00  0.00    -0.187 NA
ATOM     25  H   UNL     1     -12.812   3.559  31.938  0.00  0.00    +0.148 HD
BRANCH   7   1
ATOM      1  S   UNL     1     -14.571   4.877  32.823  0.00  0.00    +0.058 S 
ATOM      4  O   UNL     1     -13.719   6.028  32.597  0.00  0.00    -0.153 OA
ATOM      5  O   UNL     1     -15.138   4.636  34.135  0.00  0.00    -0.153 OA
BRANCH   1  17
ATOM     17  C   UNL     1     -15.921   4.967  31.686  0.00  0.00    +0.105 A 
ATOM     18  C   UNL     1     -15.955   5.974  30.721  0.00  0.00    +0.028 A 
ATOM     19  C   UNL     1     -16.953   4.031  31.755  0.00  0.00    +0.028 A 
ATOM     20  C   UNL     1     -17.024   6.047  29.827  0.00  0.00    +0.002 A 
ATOM     21  C   UNL     1     -18.020   4.104  30.860  0.00  0.00    +0.002 A 
ATOM     22  C   UNL     1     -18.056   5.111  29.896  0.00  0.00    +0.000 A 
ENDBRANCH   1  17
ENDBRANCH   7   1
ENDBRANCH  16   7
ENDBRANCH  14  16
TORSDOF 7
ENDMDL
MODEL 9
REMARK VINA RESULT:      -5.7     26.987     30.093
REMARK  Name = 75367094
REMARK  7 active torsions:
REMARK  status: ('A' for Active; 'I' for Inactive)
REMARK    1  A    between atoms: S_1  and  N_7
REMARK    2  A    between atoms: S_1  and  C_17
REMARK    3  A    between atoms: O_3  and  C_12
REMARK    4  A    between atoms: N_6  and  C_8
REMARK    5  A    between atoms: N_6  and  C_9
REMARK    6  A    between atoms: N_7  and  C_16
REMARK    7  A    between atoms: C_14  and  C_16
REMARK                            x       y       z     vdW  Elec       q    Type
REMARK                         _______ _______ _______ _____ _____    ______ ____
ROOT
ATOM      2  O   UNL     1     -16.168   6.410  23.804  0.00  0.00    -0.371 OA
ATOM      9  C   UNL     1     -15.452   4.148  23.900  0.00  0.00    +0.111 C 
ATOM     12  C   UNL     1     -15.114   4.717  22.534  0.00  0.00    +0.164 C 
ATOM     14  C   UNL     1     -15.134   6.211  22.826  0.00  0.00    +0.164 C 
ATOM     15  C   UNL     1     -16.498   5.138  24.388  0.00  0.00    +0.181 C 
ENDROOT
BRANCH  12   3
ATOM      3  O   UNL     1     -13.851   4.289  22.062  0.00  0.00    -0.388 OA
ATOM     24  H   UNL     1     -13.612   3.470  22.528  0.00  0.00    +0.210 HD
ENDBRANCH  12   3
BRANCH   9   6
ATOM      6  N   UNL     1     -15.944   2.780  23.857  0.00  0.00    -0.306 NA
ATOM     23  H   UNL     1     -15.627   2.300  24.701  0.00  0.00    +0.123 HD
BRANCH   6   8
ATOM      8  C   UNL     1     -17.392   2.787  23.719  0.00  0.00    +0.054 C 
ATOM     10  C   UNL     1     -17.998   1.726  24.663  0.00  0.00    +0.019 C 
ATOM     11  C   UNL     1     -17.797   1.868  22.546  0.00  0.00    +0.019 C 
ATOM     13  C   UNL     1     -18.898   1.311  23.477  0.00  0.00    +0.003 C 
ENDBRANCH   6   8
ENDBRANCH   9   6
BRANCH  14  16
ATOM     16  C   UNL     1     -15.419   7.058  21.599  0.00  0.00    +0.140 C 
BRANCH  16   7
ATOM      7  N   UNL     1     -14.406   6.783  20.561  0.00  0.00    -0.187 NA
ATOM     25  H   UNL     1     -14.536   5.914  20.030  0.00  0.00    +0.148 HD
BRANCH   7   1
ATOM      1  S   UNL     1     -12.829   7.403  20.726  0.00  0.00    +0.058 S 
ATOM      4  O   UNL     1     -11.935   6.339  21.138  0.00  0.00    -0.153 OA
ATOM      5  O   UNL     1     -12.886   8.641  21.479  0.00  0.00    -0.153 OA
BRANCH   1  17
ATOM     17  C   UNL     1     -12.433   7.832  19.057  0.00  0.00    +0.105 A 
ATOM     18  C   UNL     1     -13.451   8.161  18.162  0.00  0.00    +0.028 A 
ATOM     19  C   UNL     1     -11.103   7.840  18.637  0.00  0.00    +0.028 A 
ATOM     20  C   UNL     1     -13.138   8.496  16.844  0.00  0.00    +0.002 A 
ATOM     21  C   UNL     1     -10.791   8.175  17.320  0.00  0.00    +0.002 A 
ATOM     22  C   UNL     1     -11.808   8.504  16.423  0.00  0.00    +0.000 A 
ENDBRANCH   1  17
ENDBRANCH   7   1
ENDBRANCH  16   7
ENDBRANCH  14  16
TORSDOF 7
ENDMDL
MODEL 10
REMARK VINA RESULT:      -5.7     25.595     28.641
REMARK  Name = 75367094
REMARK  7 active torsions:
REMARK  status: ('A' for Active; 'I' for Inactive)
REMARK    1  A    between atoms: S_1  and  N_7
REMARK    2  A    between atoms: S_1  and  C_17
REMARK    3  A    between atoms: O_3  and  C_12
REMARK    4  A    between atoms: N_6  and  C_8
REMARK    5  A    between atoms: N_6  and  C_9
REMARK    6  A    between atoms: N_7  and  C_16
REMARK    7  A    between atoms: C_14  and  C_16
REMARK                            x       y       z     vdW  Elec       q    Type
REMARK                         _______ _______ _______ _____ _____    ______ ____
ROOT
ATOM      2  O   UNL     1     -10.558  10.926  16.374  0.00  0.00    -0.371 OA
ATOM      9  C   UNL     1      -9.914   9.368  18.046  0.00  0.00    +0.111 C 
ATOM     12  C   UNL     1     -10.679   8.638  16.957  0.00  0.00    +0.164 C 
ATOM     14  C   UNL     1     -10.535   9.611  15.795  0.00  0.00    +0.164 C 
ATOM     15  C   UNL     1     -10.324  10.809  17.788  0.00  0.00    +0.181 C 
ENDROOT
BRANCH  12   3
ATOM      3  O   UNL     1     -10.125   7.372  16.657  0.00  0.00    -0.388 OA
ATOM     24  H   UNL     1      -9.178   7.393  16.872  0.00  0.00    +0.210 HD
ENDBRANCH  12   3
BRANCH   9   6
ATOM      6  N   UNL     1     -10.240   8.919  19.390  0.00  0.00    -0.306 NA
ATOM     23  H   UNL     1     -10.018   9.673  20.042  0.00  0.00    +0.123 HD
BRANCH   6   8
ATOM      8  C   UNL     1     -11.637   8.516  19.444  0.00  0.00    +0.054 C 
ATOM     10  C   UNL     1     -12.300   9.144  20.689  0.00  0.00    +0.019 C 
ATOM     11  C   UNL     1     -11.748   7.154  20.163  0.00  0.00    +0.019 C 
ATOM     13  C   UNL     1     -12.939   7.759  20.939  0.00  0.00    +0.003 C 
ENDBRANCH   6   8
ENDBRANCH   9   6
BRANCH  14  16
ATOM     16  C   UNL     1     -11.643   9.484  14.765  0.00  0.00    +0.140 C 
BRANCH  16   7
ATOM      7  N   UNL     1     -12.311   8.176  14.916  0.00  0.00    -0.187 NA
ATOM     25  H   UNL     1     -11.687   7.368  15.033  0.00  0.00    +0.148 HD
BRANCH   7   1
ATOM      1  S   UNL     1     -13.848   7.920  14.231  0.00  0.00    +0.058 S 
ATOM      4  O   UNL     1     -13.856   6.652  13.528  0.00  0.00    -0.153 OA
ATOM      5  O   UNL     1     -14.269   9.132  13.555  0.00  0.00    -0.153 OA
BRANCH   1  17
ATOM     17  C   UNL     1     -14.861   7.753  15.670  0.00  0.00    +0.105 A 
ATOM     18  C   UNL     1     -14.415   8.241  16.898  0.00  0.00    +0.028 A 
ATOM     19  C   UNL     1     -16.107   7.131  15.576  0.00  0.00    +0.028 A 
ATOM     20  C   UNL     1     -15.214   8.106  18.034  0.00  0.00    +0.002 A 
ATOM     21  C   UNL     1     -16.905   6.996  16.712  0.00  0.00    +0.002 A 
ATOM     22  C   UNL     1     -16.459   7.484  17.940  0.00  0.00    +0.000 A 
ENDBRANCH   1  17
ENDBRANCH   7   1
ENDBRANCH  16   7
ENDBRANCH  14  16
TORSDOF 7
ENDMDL
