MODEL 1
REMARK VINA RESULT:      -5.9      0.000      0.000
REMARK  Name = 26745299
REMARK  7 active torsions:
REMARK  status: ('A' for Active; 'I' for Inactive)
REMARK    1  A    between atoms: O_3  and  C_28
REMARK    2  A    between atoms: O_3  and  C_29
REMARK    3  A    between atoms: N_4  and  C_13
REMARK    4  A    between atoms: N_7  and  C_17
REMARK    5  A    between atoms: C_8  and  C_14
REMARK    6  A    between atoms: C_13  and  C_15
REMARK    7  A    between atoms: C_17  and  C_20
REMARK                            x       y       z     vdW  Elec       q    Type
REMARK                         _______ _______ _______ _____ _____    ______ ____
ROOT
ATOM      4  N   UNL     1     -11.353  12.309  17.969  0.00  0.00    -0.281 NA
ATOM      5  N   UNL     1      -8.831  15.079  17.982  0.00  0.00    -0.347 N 
ATOM      6  N   UNL     1      -7.637  13.718  16.668  0.00  0.00    -0.240 NA
ATOM      8  C   UNL     1     -10.923  11.796  16.636  0.00  0.00    +0.150 C 
ATOM      9  C   UNL     1      -9.385  11.899  16.405  0.00  0.00    +0.085 C 
ATOM     10  C   UNL     1     -11.014  13.750  18.147  0.00  0.00    +0.140 C 
ATOM     11  C   UNL     1      -9.624  14.006  17.713  0.00  0.00    +0.053 A 
ATOM     12  C   UNL     1      -8.875  13.191  16.903  0.00  0.00    +0.065 A 
ATOM     16  C   UNL     1      -7.642  14.859  17.331  0.00  0.00    +0.197 A 
ATOM     30  H   UNL     1      -9.066  15.884  18.547  0.00  0.00    +0.167 HD
ENDROOT
BRANCH   8  14
ATOM      2  O   UNL     1     -12.083   9.928  15.707  0.00  0.00    -0.274 OA
ATOM      7  N   UNL     1     -10.620   9.577  17.483  0.00  0.00    -0.310 N 
ATOM     14  C   UNL     1     -11.279  10.344  16.537  0.00  0.00    +0.231 C 
ATOM     31  H   UNL     1      -9.963  10.019  18.120  0.00  0.00    +0.149 HD
BRANCH   7  17
ATOM     17  C   UNL     1     -10.806   8.149  17.613  0.00  0.00    +0.139 C 
BRANCH  17  20
ATOM     20  C   UNL     1     -11.783   7.807  18.701  0.00  0.00    -0.030 A 
ATOM     24  C   UNL     1     -11.321   7.345  19.933  0.00  0.00    +0.009 A 
ATOM     25  C   UNL     1     -13.152   7.949  18.478  0.00  0.00    +0.009 A 
ATOM     26  C   UNL     1     -12.228   7.027  20.943  0.00  0.00    +0.046 A 
ATOM     27  C   UNL     1     -14.061   7.631  19.487  0.00  0.00    +0.046 A 
ATOM     28  C   UNL     1     -13.599   7.170  20.720  0.00  0.00    +0.120 A 
BRANCH  28   3
ATOM      3  O   UNL     1     -14.484   6.860  21.706  0.00  0.00    -0.495 OA
ATOM     29  C   UNL     1     -14.406   5.546  22.257  0.00  0.00    +0.277 C 
ENDBRANCH  28   3
ENDBRANCH  17  20
ENDBRANCH   7  17
ENDBRANCH   8  14
BRANCH   4  13
ATOM     13  C   UNL     1     -12.793  12.137  18.198  0.00  0.00    +0.120 C 
BRANCH  13  15
ATOM      1 CL   UNL     1     -13.938   9.784  23.610  0.00  0.00    -0.084 Cl
ATOM     15  C   UNL     1     -13.079  11.549  19.549  0.00  0.00    -0.033 A 
ATOM     18  C   UNL     1     -12.026  11.174  20.384  0.00  0.00    +0.006 A 
ATOM     19  C   UNL     1     -14.398  11.377  19.970  0.00  0.00    +0.006 A 
ATOM     21  C   UNL     1     -12.292  10.627  21.639  0.00  0.00    +0.020 A 
ATOM     22  C   UNL     1     -14.663  10.830  21.225  0.00  0.00    +0.020 A 
ATOM     23  C   UNL     1     -13.611  10.456  22.060  0.00  0.00    +0.041 A 
ENDBRANCH  13  15
ENDBRANCH   4  13
TORSDOF 6
ENDMDL
MODEL 2
REMARK VINA RESULT:      -5.8     21.625     23.973
REMARK  Name = 26745299
REMARK  7 active torsions:
REMARK  status: ('A' for Active; 'I' for Inactive)
REMARK    1  A    between atoms: O_3  and  C_28
REMARK    2  A    between atoms: O_3  and  C_29
REMARK    3  A    between atoms: N_4  and  C_13
REMARK    4  A    between atoms: N_7  and  C_17
REMARK    5  A    between atoms: C_8  and  C_14
REMARK    6  A    between atoms: C_13  and  C_15
REMARK    7  A    between atoms: C_17  and  C_20
REMARK                            x       y       z     vdW  Elec       q    Type
REMARK                         _______ _______ _______ _____ _____    ______ ____
ROOT
ATOM      4  N   UNL     1      -3.960 -12.305  12.508  0.00  0.00    -0.281 NA
ATOM      5  N   UNL     1      -4.691 -10.585   9.262  0.00  0.00    -0.347 N 
ATOM      6  N   UNL     1      -3.203  -9.072   9.967  0.00  0.00    -0.240 NA
ATOM      8  C   UNL     1      -2.580 -11.748  12.602  0.00  0.00    +0.150 C 
ATOM      9  C   UNL     1      -2.468 -10.288  12.068  0.00  0.00    +0.085 C 
ATOM     10  C   UNL     1      -4.448 -12.351  11.100  0.00  0.00    +0.140 C 
ATOM     11  C   UNL     1      -4.161 -11.072  10.417  0.00  0.00    +0.053 A 
ATOM     12  C   UNL     1      -3.250 -10.133  10.826  0.00  0.00    +0.065 A 
ATOM     16  C   UNL     1      -4.082  -9.376   9.032  0.00  0.00    +0.197 A 
ATOM     30  H   UNL     1      -5.393 -11.024   8.681  0.00  0.00    +0.167 HD
ENDROOT
BRANCH   8  14
ATOM      2  O   UNL     1      -1.235 -12.396  14.464  0.00  0.00    -0.274 OA
ATOM      7  N   UNL     1      -2.958 -10.866  14.795  0.00  0.00    -0.310 N 
ATOM     14  C   UNL     1      -2.165 -11.715  14.041  0.00  0.00    +0.231 C 
ATOM     31  H   UNL     1      -3.699 -10.337  14.345  0.00  0.00    +0.149 HD
BRANCH   7  17
ATOM     17  C   UNL     1      -2.779 -10.672  16.217  0.00  0.00    +0.139 C 
BRANCH  17  20
ATOM     20  C   UNL     1      -4.090 -10.636  16.948  0.00  0.00    -0.030 A 
ATOM     24  C   UNL     1      -4.193 -11.192  18.222  0.00  0.00    +0.009 A 
ATOM     25  C   UNL     1      -5.205 -10.048  16.351  0.00  0.00    +0.009 A 
ATOM     26  C   UNL     1      -5.411 -11.160  18.901  0.00  0.00    +0.046 A 
ATOM     27  C   UNL     1      -6.424 -10.015  17.029  0.00  0.00    +0.046 A 
ATOM     28  C   UNL     1      -6.527 -10.570  18.304  0.00  0.00    +0.120 A 
BRANCH  28   3
ATOM      3  O   UNL     1      -7.715 -10.538  18.966  0.00  0.00    -0.495 OA
ATOM     29  C   UNL     1      -8.886 -10.298  18.187  0.00  0.00    +0.277 C 
ENDBRANCH  28   3
ENDBRANCH  17  20
ENDBRANCH   7  17
ENDBRANCH   8  14
BRANCH   4  13
ATOM     13  C   UNL     1      -4.062 -13.652  13.082  0.00  0.00    +0.120 C 
BRANCH  13  15
ATOM      1 CL   UNL     1      -7.728 -13.797  17.843  0.00  0.00    -0.084 Cl
ATOM     15  C   UNL     1      -4.977 -13.689  14.271  0.00  0.00    -0.033 A 
ATOM     18  C   UNL     1      -6.274 -13.185  14.168  0.00  0.00    +0.006 A 
ATOM     19  C   UNL     1      -4.530 -14.223  15.479  0.00  0.00    +0.006 A 
ATOM     21  C   UNL     1      -7.124 -13.218  15.274  0.00  0.00    +0.020 A 
ATOM     22  C   UNL     1      -5.381 -14.256  16.584  0.00  0.00    +0.020 A 
ATOM     23  C   UNL     1      -6.677 -13.754  16.481  0.00  0.00    +0.041 A 
ENDBRANCH  13  15
ENDBRANCH   4  13
TORSDOF 6
ENDMDL
MODEL 3
REMARK VINA RESULT:      -5.7     20.851     22.729
REMARK  Name = 26745299
REMARK  7 active torsions:
REMARK  status: ('A' for Active; 'I' for Inactive)
REMARK    1  A    between atoms: O_3  and  C_28
REMARK    2  A    between atoms: O_3  and  C_29
REMARK    3  A    between atoms: N_4  and  C_13
REMARK    4  A    between atoms: N_7  and  C_17
REMARK    5  A    between atoms: C_8  and  C_14
REMARK    6  A    between atoms: C_13  and  C_15
REMARK    7  A    between atoms: C_17  and  C_20
REMARK                            x       y       z     vdW  Elec       q    Type
REMARK                         _______ _______ _______ _____ _____    ______ ____
ROOT
ATOM      4  N   UNL     1      -5.059 -11.072  13.985  0.00  0.00    -0.281 NA
ATOM      5  N   UNL     1      -3.500  -9.849  10.806  0.00  0.00    -0.347 N 
ATOM      6  N   UNL     1      -1.593  -9.876  11.975  0.00  0.00    -0.240 NA
ATOM      8  C   UNL     1      -3.806 -11.727  14.460  0.00  0.00    +0.150 C 
ATOM      9  C   UNL     1      -2.518 -10.931  14.089  0.00  0.00    +0.085 C 
ATOM     10  C   UNL     1      -5.086 -10.931  12.501  0.00  0.00    +0.140 C 
ATOM     11  C   UNL     1      -3.794 -10.404  12.014  0.00  0.00    +0.053 A 
ATOM     12  C   UNL     1      -2.612 -10.416  12.708  0.00  0.00    +0.065 A 
ATOM     16  C   UNL     1      -2.161  -9.546  10.831  0.00  0.00    +0.197 A 
ATOM     30  H   UNL     1      -4.138  -9.691  10.038  0.00  0.00    +0.167 HD
ENDROOT
BRANCH   8  14
ATOM      2  O   UNL     1      -3.337 -10.955  16.669  0.00  0.00    -0.274 OA
ATOM      7  N   UNL     1      -4.473 -12.969  16.395  0.00  0.00    -0.310 N 
ATOM     14  C   UNL     1      -3.842 -11.818  15.955  0.00  0.00    +0.231 C 
ATOM     31  H   UNL     1      -4.868 -13.616  15.718  0.00  0.00    +0.149 HD
BRANCH   7  17
ATOM     17  C   UNL     1      -4.620 -13.305  17.793  0.00  0.00    +0.139 C 
BRANCH  17  20
ATOM     20  C   UNL     1      -5.816 -12.638  18.409  0.00  0.00    -0.030 A 
ATOM     24  C   UNL     1      -5.646 -11.533  19.242  0.00  0.00    +0.009 A 
ATOM     25  C   UNL     1      -7.097 -13.123  18.147  0.00  0.00    +0.009 A 
ATOM     26  C   UNL     1      -6.757 -10.913  19.814  0.00  0.00    +0.046 A 
ATOM     27  C   UNL     1      -8.209 -12.504  18.719  0.00  0.00    +0.046 A 
ATOM     28  C   UNL     1      -8.039 -11.399  19.552  0.00  0.00    +0.120 A 
BRANCH  28   3
ATOM      3  O   UNL     1      -9.122 -10.793  20.110  0.00  0.00    -0.495 OA
ATOM     29  C   UNL     1     -10.370 -11.478  20.011  0.00  0.00    +0.277 C 
ENDBRANCH  28   3
ENDBRANCH  17  20
ENDBRANCH   7  17
ENDBRANCH   8  14
BRANCH   4  13
ATOM     13  C   UNL     1      -6.264 -11.797  14.407  0.00  0.00    +0.120 C 
BRANCH  13  15
ATOM      1 CL   UNL     1      -9.981  -8.310  17.594  0.00  0.00    -0.084 Cl
ATOM     15  C   UNL     1      -7.193 -10.927  15.203  0.00  0.00    -0.033 A 
ATOM     18  C   UNL     1      -6.679  -9.896  15.989  0.00  0.00    +0.006 A 
ATOM     19  C   UNL     1      -8.569 -11.150  15.157  0.00  0.00    +0.006 A 
ATOM     21  C   UNL     1      -7.542  -9.087  16.730  0.00  0.00    +0.020 A 
ATOM     22  C   UNL     1      -9.431 -10.341  15.897  0.00  0.00    +0.020 A 
ATOM     23  C   UNL     1      -8.918  -9.310  16.683  0.00  0.00    +0.041 A 
ENDBRANCH  13  15
ENDBRANCH   4  13
TORSDOF 6
ENDMDL
MODEL 4
REMARK VINA RESULT:      -5.7     21.276     22.946
REMARK  Name = 26745299
REMARK  7 active torsions:
REMARK  status: ('A' for Active; 'I' for Inactive)
REMARK    1  A    between atoms: O_3  and  C_28
REMARK    2  A    between atoms: O_3  and  C_29
REMARK    3  A    between atoms: N_4  and  C_13
REMARK    4  A    between atoms: N_7  and  C_17
REMARK    5  A    between atoms: C_8  and  C_14
REMARK    6  A    between atoms: C_13  and  C_15
REMARK    7  A    between atoms: C_17  and  C_20
REMARK                            x       y       z     vdW  Elec       q    Type
REMARK                         _______ _______ _______ _____ _____    ______ ____
ROOT
ATOM      4  N   UNL     1      -5.514 -11.223  13.163  0.00  0.00    -0.281 NA
ATOM      5  N   UNL     1      -5.297  -9.310   9.950  0.00  0.00    -0.347 N 
ATOM      6  N   UNL     1      -3.102  -9.250  10.375  0.00  0.00    -0.240 NA
ATOM      8  C   UNL     1      -4.128 -11.760  13.047  0.00  0.00    +0.150 C 
ATOM      9  C   UNL     1      -3.124 -10.743  12.426  0.00  0.00    +0.085 C 
ATOM     10  C   UNL     1      -6.082 -10.856  11.834  0.00  0.00    +0.140 C 
ATOM     11  C   UNL     1      -5.095 -10.083  11.052  0.00  0.00    +0.053 A 
ATOM     12  C   UNL     1      -3.745 -10.036  11.288  0.00  0.00    +0.065 A 
ATOM     16  C   UNL     1      -4.066  -8.828   9.579  0.00  0.00    +0.197 A 
ATOM     30  H   UNL     1      -6.178  -9.125   9.489  0.00  0.00    +0.167 HD
ENDROOT
BRANCH   8  14
ATOM      2  O   UNL     1      -3.177 -13.201  14.696  0.00  0.00    -0.274 OA
ATOM      7  N   UNL     1      -3.729 -11.018  15.288  0.00  0.00    -0.310 N 
ATOM     14  C   UNL     1      -3.618 -12.089  14.417  0.00  0.00    +0.231 C 
ATOM     31  H   UNL     1      -4.098 -10.133  14.953  0.00  0.00    +0.149 HD
BRANCH   7  17
ATOM     17  C   UNL     1      -3.327 -11.083  16.676  0.00  0.00    +0.139 C 
BRANCH  17  20
ATOM     20  C   UNL     1      -4.493 -11.343  17.586  0.00  0.00    -0.030 A 
ATOM     24  C   UNL     1      -5.074 -12.611  17.630  0.00  0.00    +0.009 A 
ATOM     25  C   UNL     1      -4.996 -10.317  18.386  0.00  0.00    +0.009 A 
ATOM     26  C   UNL     1      -6.157 -12.852  18.475  0.00  0.00    +0.046 A 
ATOM     27  C   UNL     1      -6.079 -10.558  19.231  0.00  0.00    +0.046 A 
ATOM     28  C   UNL     1      -6.660 -11.826  19.276  0.00  0.00    +0.120 A 
BRANCH  28   3
ATOM      3  O   UNL     1      -7.716 -12.062  20.101  0.00  0.00    -0.495 OA
ATOM     29  C   UNL     1      -8.506 -13.218  19.827  0.00  0.00    +0.277 C 
ENDBRANCH  28   3
ENDBRANCH  17  20
ENDBRANCH   7  17
ENDBRANCH   8  14
BRANCH   4  13
ATOM     13  C   UNL     1      -6.428 -12.168  13.816  0.00  0.00    +0.120 C 
BRANCH  13  15
ATOM      1 CL   UNL     1      -9.832  -9.486  17.983  0.00  0.00    -0.084 Cl
ATOM     15  C   UNL     1      -7.278 -11.497  14.857  0.00  0.00    -0.033 A 
ATOM     18  C   UNL     1      -8.290 -12.213  15.497  0.00  0.00    +0.006 A 
ATOM     19  C   UNL     1      -7.057 -10.159  15.182  0.00  0.00    +0.006 A 
ATOM     21  C   UNL     1      -9.081 -11.590  16.463  0.00  0.00    +0.020 A 
ATOM     22  C   UNL     1      -7.848  -9.537  16.148  0.00  0.00    +0.020 A 
ATOM     23  C   UNL     1      -8.859 -10.252  16.788  0.00  0.00    +0.041 A 
ENDBRANCH  13  15
ENDBRANCH   4  13
TORSDOF 6
ENDMDL
MODEL 5
REMARK VINA RESULT:      -5.6     21.927     23.951
REMARK  Name = 26745299
REMARK  7 active torsions:
REMARK  status: ('A' for Active; 'I' for Inactive)
REMARK    1  A    between atoms: O_3  and  C_28
REMARK    2  A    between atoms: O_3  and  C_29
REMARK    3  A    between atoms: N_4  and  C_13
REMARK    4  A    between atoms: N_7  and  C_17
REMARK    5  A    between atoms: C_8  and  C_14
REMARK    6  A    between atoms: C_13  and  C_15
REMARK    7  A    between atoms: C_17  and  C_20
REMARK                            x       y       z     vdW  Elec       q    Type
REMARK                         _______ _______ _______ _____ _____    ______ ____
ROOT
ATOM      4  N   UNL     1      -5.629 -10.406  15.638  0.00  0.00    -0.281 NA
ATOM      5  N   UNL     1      -7.055 -10.303  19.100  0.00  0.00    -0.347 N 
ATOM      6  N   UNL     1      -5.254 -11.508  19.654  0.00  0.00    -0.240 NA
ATOM      8  C   UNL     1      -4.224 -10.543  16.118  0.00  0.00    +0.150 C 
ATOM      9  C   UNL     1      -4.096 -11.422  17.399  0.00  0.00    +0.085 C 
ATOM     10  C   UNL     1      -6.507  -9.763  16.658  0.00  0.00    +0.140 C 
ATOM     11  C   UNL     1      -6.276 -10.370  17.986  0.00  0.00    +0.053 A 
ATOM     12  C   UNL     1      -5.179 -11.106  18.351  0.00  0.00    +0.065 A 
ATOM     16  C   UNL     1      -6.397 -11.005  20.080  0.00  0.00    +0.197 A 
ATOM     30  H   UNL     1      -7.943  -9.828  19.195  0.00  0.00    +0.167 HD
ENDROOT
BRANCH   8  14
ATOM      2  O   UNL     1      -3.313 -12.433  14.980  0.00  0.00    -0.274 OA
ATOM      7  N   UNL     1      -2.792 -10.297  14.216  0.00  0.00    -0.310 N 
ATOM     14  C   UNL     1      -3.410 -11.211  15.053  0.00  0.00    +0.231 C 
ATOM     31  H   UNL     1      -2.946  -9.302  14.355  0.00  0.00    +0.149 HD
BRANCH   7  17
ATOM     17  C   UNL     1      -1.931 -10.684  13.120  0.00  0.00    +0.139 C 
BRANCH  17  20
ATOM     20  C   UNL     1      -2.688 -10.810  11.829  0.00  0.00    -0.030 A 
ATOM     24  C   UNL     1      -2.973  -9.672  11.074  0.00  0.00    +0.009 A 
ATOM     25  C   UNL     1      -3.107 -12.064  11.386  0.00  0.00    +0.009 A 
ATOM     26  C   UNL     1      -3.677  -9.790   9.875  0.00  0.00    +0.046 A 
ATOM     27  C   UNL     1      -3.810 -12.182  10.188  0.00  0.00    +0.046 A 
ATOM     28  C   UNL     1      -4.095 -11.045   9.432  0.00  0.00    +0.120 A 
BRANCH  28   3
ATOM      3  O   UNL     1      -4.781 -11.159   8.262  0.00  0.00    -0.495 OA
ATOM     29  C   UNL     1      -5.206  -9.948   7.639  0.00  0.00    +0.277 C 
ENDBRANCH  28   3
ENDBRANCH  17  20
ENDBRANCH   7  17
ENDBRANCH   8  14
BRANCH   4  13
ATOM     13  C   UNL     1      -5.723  -9.637  14.391  0.00  0.00    +0.120 C 
BRANCH  13  15
ATOM      1 CL   UNL     1      -8.023 -12.909   9.903  0.00  0.00    -0.084 Cl
ATOM     15  C   UNL     1      -6.297 -10.453  13.270  0.00  0.00    -0.033 A 
ATOM     18  C   UNL     1      -6.412 -11.837  13.404  0.00  0.00    +0.006 A 
ATOM     19  C   UNL     1      -6.714  -9.829  12.095  0.00  0.00    +0.006 A 
ATOM     21  C   UNL     1      -6.945 -12.597  12.362  0.00  0.00    +0.020 A 
ATOM     22  C   UNL     1      -7.247 -10.589  11.053  0.00  0.00    +0.020 A 
ATOM     23  C   UNL     1      -7.363 -11.972  11.187  0.00  0.00    +0.041 A 
ENDBRANCH  13  15
ENDBRANCH   4  13
TORSDOF 6
ENDMDL
MODEL 6
REMARK VINA RESULT:      -5.5     24.067     26.783
REMARK  Name = 26745299
REMARK  7 active torsions:
REMARK  status: ('A' for Active; 'I' for Inactive)
REMARK    1  A    between atoms: O_3  and  C_28
REMARK    2  A    between atoms: O_3  and  C_29
REMARK    3  A    between atoms: N_4  and  C_13
REMARK    4  A    between atoms: N_7  and  C_17
REMARK    5  A    between atoms: C_8  and  C_14
REMARK    6  A    between atoms: C_13  and  C_15
REMARK    7  A    between atoms: C_17  and  C_20
REMARK                            x       y       z     vdW  Elec       q    Type
REMARK                         _______ _______ _______ _____ _____    ______ ____
ROOT
ATOM      4  N   UNL     1       9.860   6.168   5.050  0.00  0.00    -0.281 NA
ATOM      5  N   UNL     1      10.101   3.861   7.991  0.00  0.00    -0.347 N 
ATOM      6  N   UNL     1       9.313   5.600   9.156  0.00  0.00    -0.240 NA
ATOM      8  C   UNL     1       8.754   6.969   5.647  0.00  0.00    +0.150 C 
ATOM      9  C   UNL     1       8.888   7.146   7.190  0.00  0.00    +0.085 C 
ATOM     10  C   UNL     1       9.916   4.788   5.611  0.00  0.00    +0.140 C 
ATOM     11  C   UNL     1       9.799   4.830   7.084  0.00  0.00    +0.053 A 
ATOM     12  C   UNL     1       9.313   5.880   7.819  0.00  0.00    +0.065 A 
ATOM     16  C   UNL     1       9.792   4.373   9.227  0.00  0.00    +0.197 A 
ATOM     30  H   UNL     1      10.477   2.942   7.799  0.00  0.00    +0.167 HD
ENDROOT
BRANCH   8  14
ATOM      2  O   UNL     1       9.811   8.988   4.938  0.00  0.00    -0.274 OA
ATOM      7  N   UNL     1       7.507   8.771   4.684  0.00  0.00    -0.310 N 
ATOM     14  C   UNL     1       8.772   8.343   5.051  0.00  0.00    +0.231 C 
ATOM     31  H   UNL     1       6.710   8.154   4.810  0.00  0.00    +0.149 HD
BRANCH   7  17
ATOM     17  C   UNL     1       7.249  10.071   4.106  0.00  0.00    +0.139 C 
BRANCH  17  20
ATOM     20  C   UNL     1       6.298   9.991   2.947  0.00  0.00    -0.030 A 
ATOM     24  C   UNL     1       6.762   9.607   1.689  0.00  0.00    +0.009 A 
ATOM     25  C   UNL     1       4.950  10.302   3.128  0.00  0.00    +0.009 A 
ATOM     26  C   UNL     1       5.878   9.533   0.612  0.00  0.00    +0.046 A 
ATOM     27  C   UNL     1       4.066  10.228   2.052  0.00  0.00    +0.046 A 
ATOM     28  C   UNL     1       4.529   9.843   0.794  0.00  0.00    +0.120 A 
BRANCH  28   3
ATOM      3  O   UNL     1       3.668   9.770  -0.256  0.00  0.00    -0.495 OA
ATOM     29  C   UNL     1       2.367  10.326  -0.067  0.00  0.00    +0.277 C 
ENDBRANCH  28   3
ENDBRANCH  17  20
ENDBRANCH   7  17
ENDBRANCH   8  14
BRANCH   4  13
ATOM     13  C   UNL     1       9.758   6.073   3.588  0.00  0.00    +0.120 C 
BRANCH  13  15
ATOM      1 CL   UNL     1      14.681   3.640   1.143  0.00  0.00    -0.084 Cl
ATOM     15  C   UNL     1      10.987   5.465   2.977  0.00  0.00    -0.033 A 
ATOM     18  C   UNL     1      12.164   6.208   2.895  0.00  0.00    +0.006 A 
ATOM     19  C   UNL     1      10.951   4.159   2.491  0.00  0.00    +0.006 A 
ATOM     21  C   UNL     1      13.307   5.643   2.327  0.00  0.00    +0.020 A 
ATOM     22  C   UNL     1      12.093   3.594   1.922  0.00  0.00    +0.020 A 
ATOM     23  C   UNL     1      13.271   4.336   1.841  0.00  0.00    +0.041 A 
ENDBRANCH  13  15
ENDBRANCH   4  13
TORSDOF 6
ENDMDL
MODEL 7
REMARK VINA RESULT:      -5.5     26.423     29.763
REMARK  Name = 26745299
REMARK  7 active torsions:
REMARK  status: ('A' for Active; 'I' for Inactive)
REMARK    1  A    between atoms: O_3  and  C_28
REMARK    2  A    between atoms: O_3  and  C_29
REMARK    3  A    between atoms: N_4  and  C_13
REMARK    4  A    between atoms: N_7  and  C_17
REMARK    5  A    between atoms: C_8  and  C_14
REMARK    6  A    between atoms: C_13  and  C_15
REMARK    7  A    between atoms: C_17  and  C_20
REMARK                            x       y       z     vdW  Elec       q    Type
REMARK                         _______ _______ _______ _____ _____    ______ ____
ROOT
ATOM      4  N   UNL     1      10.507   5.948   4.720  0.00  0.00    -0.281 NA
ATOM      5  N   UNL     1       9.360   4.110   7.776  0.00  0.00    -0.347 N 
ATOM      6  N   UNL     1      10.841   5.396   8.852  0.00  0.00    -0.240 NA
ATOM      8  C   UNL     1      10.892   7.170   5.483  0.00  0.00    +0.150 C 
ATOM      9  C   UNL     1      11.500   6.854   6.883  0.00  0.00    +0.085 C 
ATOM     10  C   UNL     1       9.474   5.146   5.437  0.00  0.00    +0.140 C 
ATOM     11  C   UNL     1       9.841   4.995   6.861  0.00  0.00    +0.053 A 
ATOM     12  C   UNL     1      10.740   5.774   7.543  0.00  0.00    +0.065 A 
ATOM     16  C   UNL     1       9.994   4.391   8.962  0.00  0.00    +0.197 A 
ATOM     30  H   UNL     1       8.670   3.388   7.621  0.00  0.00    +0.167 HD
ENDROOT
BRANCH   8  14
ATOM      2  O   UNL     1      11.754   9.052   4.296  0.00  0.00    -0.274 OA
ATOM      7  N   UNL     1      13.089   7.159   4.531  0.00  0.00    -0.310 N 
ATOM     14  C   UNL     1      11.941   7.913   4.714  0.00  0.00    +0.231 C 
ATOM     31  H   UNL     1      13.147   6.226   4.929  0.00  0.00    +0.149 HD
BRANCH   7  17
ATOM     17  C   UNL     1      14.241   7.639   3.802  0.00  0.00    +0.139 C 
BRANCH  17  20
ATOM     20  C   UNL     1      14.241   7.166   2.376  0.00  0.00    -0.030 A 
ATOM     24  C   UNL     1      15.031   6.079   2.002  0.00  0.00    +0.009 A 
ATOM     25  C   UNL     1      13.451   7.814   1.427  0.00  0.00    +0.009 A 
ATOM     26  C   UNL     1      15.030   5.641   0.678  0.00  0.00    +0.046 A 
ATOM     27  C   UNL     1      13.449   7.376   0.103  0.00  0.00    +0.046 A 
ATOM     28  C   UNL     1      14.239   6.289  -0.272  0.00  0.00    +0.120 A 
BRANCH  28   3
ATOM      3  O   UNL     1      14.238   5.860  -1.563  0.00  0.00    -0.495 OA
ATOM     29  C   UNL     1      15.295   4.986  -1.957  0.00  0.00    +0.277 C 
ENDBRANCH  28   3
ENDBRANCH  17  20
ENDBRANCH   7  17
ENDBRANCH   8  14
BRANCH   4  13
ATOM     13  C   UNL     1      10.004   6.261   3.377  0.00  0.00    +0.120 C 
BRANCH  13  15
ATOM      1 CL   UNL     1      12.571   2.831  -0.841  0.00  0.00    -0.084 Cl
ATOM     15  C   UNL     1      10.646   5.404   2.324  0.00  0.00    -0.033 A 
ATOM     18  C   UNL     1      10.269   5.543   0.988  0.00  0.00    +0.006 A 
ATOM     19  C   UNL     1      11.616   4.469   2.682  0.00  0.00    +0.006 A 
ATOM     21  C   UNL     1      10.864   4.746   0.010  0.00  0.00    +0.020 A 
ATOM     22  C   UNL     1      12.211   3.672   1.703  0.00  0.00    +0.020 A 
ATOM     23  C   UNL     1      11.835   3.811   0.368  0.00  0.00    +0.041 A 
ENDBRANCH  13  15
ENDBRANCH   4  13
TORSDOF 6
ENDMDL
MODEL 8
REMARK VINA RESULT:      -5.5     19.426     21.723
REMARK  Name = 26745299
REMARK  7 active torsions:
REMARK  status: ('A' for Active; 'I' for Inactive)
REMARK    1  A    between atoms: O_3  and  C_28
REMARK    2  A    between atoms: O_3  and  C_29
REMARK    3  A    between atoms: N_4  and  C_13
REMARK    4  A    between atoms: N_7  and  C_17
REMARK    5  A    between atoms: C_8  and  C_14
REMARK    6  A    between atoms: C_13  and  C_15
REMARK    7  A    between atoms: C_17  and  C_20
REMARK                            x       y       z     vdW  Elec       q    Type
REMARK                         _______ _______ _______ _____ _____    ______ ____
ROOT
ATOM      4  N   UNL     1      -6.088 -10.705  16.152  0.00  0.00    -0.281 NA
ATOM      5  N   UNL     1      -2.814 -10.372  14.364  0.00  0.00    -0.347 N 
ATOM      6  N   UNL     1      -1.913 -10.691  16.386  0.00  0.00    -0.240 NA
ATOM      8  C   UNL     1      -5.521 -11.568  17.228  0.00  0.00    +0.150 C 
ATOM      9  C   UNL     1      -4.069 -11.171  17.634  0.00  0.00    +0.085 C 
ATOM     10  C   UNL     1      -5.285 -10.778  14.898  0.00  0.00    +0.140 C 
ATOM     11  C   UNL     1      -3.844 -10.658  15.206  0.00  0.00    +0.053 A 
ATOM     12  C   UNL     1      -3.268 -10.855  16.435  0.00  0.00    +0.065 A 
ATOM     16  C   UNL     1      -1.669 -10.403  15.122  0.00  0.00    +0.197 A 
ATOM     30  H   UNL     1      -2.872 -10.177  13.374  0.00  0.00    +0.167 HD
ENDROOT
BRANCH   8  14
ATOM      2  O   UNL     1      -6.162 -10.549  19.290  0.00  0.00    -0.274 OA
ATOM      7  N   UNL     1      -7.348 -12.404  18.531  0.00  0.00    -0.310 N 
ATOM     14  C   UNL     1      -6.366 -11.430  18.458  0.00  0.00    +0.231 C 
ATOM     31  H   UNL     1      -7.440 -13.083  17.781  0.00  0.00    +0.149 HD
BRANCH   7  17
ATOM     17  C   UNL     1      -8.281 -12.504  19.631  0.00  0.00    +0.139 C 
BRANCH  17  20
ATOM     20  C   UNL     1      -9.593 -11.844  19.316  0.00  0.00    -0.030 A 
ATOM     24  C   UNL     1     -10.363 -12.297  18.246  0.00  0.00    +0.009 A 
ATOM     25  C   UNL     1     -10.040 -10.776  20.094  0.00  0.00    +0.009 A 
ATOM     26  C   UNL     1     -11.581 -11.683  17.953  0.00  0.00    +0.046 A 
ATOM     27  C   UNL     1     -11.258 -10.162  19.802  0.00  0.00    +0.046 A 
ATOM     28  C   UNL     1     -12.029 -10.615  18.732  0.00  0.00    +0.120 A 
BRANCH  28   3
ATOM      3  O   UNL     1     -13.217 -10.017  18.447  0.00  0.00    -0.495 OA
ATOM     29  C   UNL     1     -13.232  -9.088  17.365  0.00  0.00    +0.277 C 
ENDBRANCH  28   3
ENDBRANCH  17  20
ENDBRANCH   7  17
ENDBRANCH   8  14
BRANCH   4  13
ATOM     13  C   UNL     1      -7.480 -11.047  15.835  0.00  0.00    +0.120 C 
BRANCH  13  15
ATOM      1 CL   UNL     1     -11.104  -6.264  16.195  0.00  0.00    -0.084 Cl
ATOM     15  C   UNL     1      -8.385  -9.852  15.925  0.00  0.00    -0.033 A 
ATOM     18  C   UNL     1      -8.486  -9.142  17.121  0.00  0.00    +0.006 A 
ATOM     19  C   UNL     1      -9.127  -9.455  14.812  0.00  0.00    +0.006 A 
ATOM     21  C   UNL     1      -9.327  -8.033  17.204  0.00  0.00    +0.020 A 
ATOM     22  C   UNL     1      -9.968  -8.345  14.896  0.00  0.00    +0.020 A 
ATOM     23  C   UNL     1     -10.068  -7.634  16.092  0.00  0.00    +0.041 A 
ENDBRANCH  13  15
ENDBRANCH   4  13
TORSDOF 6
ENDMDL
MODEL 9
REMARK VINA RESULT:      -5.5      2.584      4.793
REMARK  Name = 26745299
REMARK  7 active torsions:
REMARK  status: ('A' for Active; 'I' for Inactive)
REMARK    1  A    between atoms: O_3  and  C_28
REMARK    2  A    between atoms: O_3  and  C_29
REMARK    3  A    between atoms: N_4  and  C_13
REMARK    4  A    between atoms: N_7  and  C_17
REMARK    5  A    between atoms: C_8  and  C_14
REMARK    6  A    between atoms: C_13  and  C_15
REMARK    7  A    between atoms: C_17  and  C_20
REMARK                            x       y       z     vdW  Elec       q    Type
REMARK                         _______ _______ _______ _____ _____    ______ ____
ROOT
ATOM      4  N   UNL     1     -11.357   8.697  17.622  0.00  0.00    -0.281 NA
ATOM      5  N   UNL     1     -10.172   7.150  14.423  0.00  0.00    -0.347 N 
ATOM      6  N   UNL     1     -11.201   8.880  13.447  0.00  0.00    -0.240 NA
ATOM      8  C   UNL     1     -11.381  10.076  17.057  0.00  0.00    +0.150 C 
ATOM      9  C   UNL     1     -11.833  10.123  15.567  0.00  0.00    +0.085 C 
ATOM     10  C   UNL     1     -10.412   7.809  16.886  0.00  0.00    +0.140 C 
ATOM     11  C   UNL     1     -10.595   7.966  15.427  0.00  0.00    +0.053 A 
ATOM     12  C   UNL     1     -11.215   9.019  14.806  0.00  0.00    +0.065 A 
ATOM     16  C   UNL     1     -10.562   7.743  13.247  0.00  0.00    +0.197 A 
ATOM     30  H   UNL     1      -9.668   6.279  14.517  0.00  0.00    +0.167 HD
ENDROOT
BRANCH   8  14
ATOM      2  O   UNL     1     -13.543  10.983  17.505  0.00  0.00    -0.274 OA
ATOM      7  N   UNL     1     -11.770  11.549  18.905  0.00  0.00    -0.310 N 
ATOM     14  C   UNL     1     -12.361  10.902  17.832  0.00  0.00    +0.231 C 
ATOM     31  H   UNL     1     -10.783  11.405  19.096  0.00  0.00    +0.149 HD
BRANCH   7  17
ATOM     17  C   UNL     1     -12.495  12.425  19.798  0.00  0.00    +0.139 C 
BRANCH  17  20
ATOM     20  C   UNL     1     -13.118  11.673  20.939  0.00  0.00    -0.030 A 
ATOM     24  C   UNL     1     -12.308  11.057  21.892  0.00  0.00    +0.009 A 
ATOM     25  C   UNL     1     -14.506  11.590  21.043  0.00  0.00    +0.009 A 
ATOM     26  C   UNL     1     -12.887  10.359  22.952  0.00  0.00    +0.046 A 
ATOM     27  C   UNL     1     -15.086  10.892  22.103  0.00  0.00    +0.046 A 
ATOM     28  C   UNL     1     -14.277  10.276  23.057  0.00  0.00    +0.120 A 
BRANCH  28   3
ATOM      3  O   UNL     1     -14.841   9.595  24.091  0.00  0.00    -0.495 OA
ATOM     29  C   UNL     1     -16.021   8.845  23.806  0.00  0.00    +0.277 C 
ENDBRANCH  28   3
ENDBRANCH  17  20
ENDBRANCH   7  17
ENDBRANCH   8  14
BRANCH   4  13
ATOM     13  C   UNL     1     -11.000   8.680  19.046  0.00  0.00    +0.120 C 
BRANCH  13  15
ATOM      1 CL   UNL     1     -14.957   5.552  22.317  0.00  0.00    -0.084 Cl
ATOM     15  C   UNL     1     -11.988   7.898  19.863  0.00  0.00    -0.033 A 
ATOM     18  C   UNL     1     -13.351   8.173  19.758  0.00  0.00    +0.006 A 
ATOM     19  C   UNL     1     -11.542   6.899  20.728  0.00  0.00    +0.006 A 
ATOM     21  C   UNL     1     -14.270   7.448  20.517  0.00  0.00    +0.020 A 
ATOM     22  C   UNL     1     -12.461   6.174  21.488  0.00  0.00    +0.020 A 
ATOM     23  C   UNL     1     -13.823   6.448  21.382  0.00  0.00    +0.041 A 
ENDBRANCH  13  15
ENDBRANCH   4  13
TORSDOF 6
ENDMDL
MODEL 10
REMARK VINA RESULT:      -5.4     19.104     22.077
REMARK  Name = 26745299
REMARK  7 active torsions:
REMARK  status: ('A' for Active; 'I' for Inactive)
REMARK    1  A    between atoms: O_3  and  C_28
REMARK    2  A    between atoms: O_3  and  C_29
REMARK    3  A    between atoms: N_4  and  C_13
REMARK    4  A    between atoms: N_7  and  C_17
REMARK    5  A    between atoms: C_8  and  C_14
REMARK    6  A    between atoms: C_13  and  C_15
REMARK    7  A    between atoms: C_17  and  C_20
REMARK                            x       y       z     vdW  Elec       q    Type
REMARK                         _______ _______ _______ _____ _____    ______ ____
ROOT
ATOM      4  N   UNL     1      -9.146  -9.316  16.759  0.00  0.00    -0.281 NA
ATOM      5  N   UNL     1     -10.926  -6.039  16.410  0.00  0.00    -0.347 N 
ATOM      6  N   UNL     1     -11.870  -6.979  14.613  0.00  0.00    -0.240 NA
ATOM      8  C   UNL     1     -10.229 -10.085  16.082  0.00  0.00    +0.150 C 
ATOM      9  C   UNL     1     -10.898  -9.304  14.911  0.00  0.00    +0.085 C 
ATOM     10  C   UNL     1      -9.653  -8.048  17.358  0.00  0.00    +0.140 C 
ATOM     11  C   UNL     1     -10.519  -7.337  16.393  0.00  0.00    +0.053 A 
ATOM     12  C   UNL     1     -11.113  -7.893  15.290  0.00  0.00    +0.065 A 
ATOM     16  C   UNL     1     -11.739  -5.870  15.316  0.00  0.00    +0.197 A 
ATOM     30  H   UNL     1     -10.685  -5.333  17.092  0.00  0.00    +0.167 HD
ENDROOT
BRANCH   8  14
ATOM      2  O   UNL     1      -9.907 -12.445  15.936  0.00  0.00    -0.274 OA
ATOM      7  N   UNL     1      -8.787 -11.059  14.438  0.00  0.00    -0.310 N 
ATOM     14  C   UNL     1      -9.644 -11.331  15.491  0.00  0.00    +0.231 C 
ATOM     31  H   UNL     1      -8.645 -10.098  14.139  0.00  0.00    +0.149 HD
BRANCH   7  17
ATOM     17  C   UNL     1      -8.076 -12.087  13.711  0.00  0.00    +0.139 C 
BRANCH  17  20
ATOM     20  C   UNL     1      -6.642 -11.714  13.469  0.00  0.00    -0.030 A 
ATOM     24  C   UNL     1      -6.332 -10.517  12.826  0.00  0.00    +0.009 A 
ATOM     25  C   UNL     1      -5.620 -12.567  13.888  0.00  0.00    +0.009 A 
ATOM     26  C   UNL     1      -4.999 -10.171  12.601  0.00  0.00    +0.046 A 
ATOM     27  C   UNL     1      -4.287 -12.222  13.663  0.00  0.00    +0.046 A 
ATOM     28  C   UNL     1      -3.976 -11.024  13.020  0.00  0.00    +0.120 A 
BRANCH  28   3
ATOM      3  O   UNL     1      -2.677 -10.686  12.802  0.00  0.00    -0.495 OA
ATOM     29  C   UNL     1      -2.338 -10.225  11.494  0.00  0.00    +0.277 C 
ENDBRANCH  28   3
ENDBRANCH  17  20
ENDBRANCH   7  17
ENDBRANCH   8  14
BRANCH   4  13
ATOM     13  C   UNL     1      -8.479 -10.094  17.810  0.00  0.00    +0.120 C 
BRANCH  13  15
ATOM      1 CL   UNL     1      -2.637 -10.900  16.641  0.00  0.00    -0.084 Cl
ATOM     15  C   UNL     1      -7.020 -10.296  17.519  0.00  0.00    -0.033 A 
ATOM     18  C   UNL     1      -6.388  -9.514  16.551  0.00  0.00    +0.006 A 
ATOM     19  C   UNL     1      -6.298 -11.265  18.213  0.00  0.00    +0.006 A 
ATOM     21  C   UNL     1      -5.032  -9.702  16.280  0.00  0.00    +0.020 A 
ATOM     22  C   UNL     1      -4.942 -11.453  17.941  0.00  0.00    +0.020 A 
ATOM     23  C   UNL     1      -4.310 -10.671  16.975  0.00  0.00    +0.041 A 
ENDBRANCH  13  15
ENDBRANCH   4  13
TORSDOF 6
ENDMDL
