MODEL 1
REMARK VINA RESULT:      -7.0      0.000      0.000
REMARK  Name = 44716910
REMARK  12 active torsions:
REMARK  status: ('A' for Active; 'I' for Inactive)
REMARK    1  A    between atoms: O_1  and  C_15
REMARK    2  A    between atoms: O_1  and  C_25
REMARK    3  A    between atoms: O_2  and  C_16
REMARK    4  A    between atoms: O_3  and  C_21
REMARK    5  A    between atoms: O_6  and  C_29
REMARK    6  A    between atoms: N_8  and  C_30
REMARK    7  A    between atoms: C_9  and  C_19
REMARK    8  A    between atoms: C_11  and  C_21
REMARK    9  A    between atoms: C_11  and  C_22
REMARK   10  A    between atoms: C_12  and  C_20
REMARK   11  A    between atoms: C_20  and  C_23
REMARK   12  A    between atoms: C_24  and  C_29
REMARK                            x       y       z     vdW  Elec       q    Type
REMARK                         _______ _______ _______ _____ _____    ______ ____
ROOT
ATOM      9  C   UNL     1     -16.624   3.441  29.201  0.00  0.00    -0.023 C 
ATOM     10  C   UNL     1     -15.476   3.082  30.222  0.00  0.00    +0.007 C 
ATOM     11  C   UNL     1     -15.386   3.966  31.525  0.00  0.00    +0.031 C 
ATOM     12  C   UNL     1     -16.316   2.652  27.860  0.00  0.00    +0.032 C 
ATOM     13  C   UNL     1     -16.572   4.967  28.919  0.00  0.00    +0.011 C 
ATOM     14  C   UNL     1     -15.416   1.559  30.470  0.00  0.00    +0.007 C 
ATOM     15  C   UNL     1     -15.422   5.470  31.117  0.00  0.00    +0.186 C 
ATOM     16  C   UNL     1     -16.156   1.129  28.066  0.00  0.00    +0.119 C 
ATOM     17  C   UNL     1     -16.570   5.826  30.178  0.00  0.00    +0.046 C 
ATOM     18  C   UNL     1     -15.157   0.794  29.171  0.00  0.00    +0.032 C 
ATOM     19  C   UNL     1     -18.043   3.099  29.718  0.00  0.00    +0.012 C 
ATOM     22  C   UNL     1     -14.019   3.705  32.222  0.00  0.00    +0.017 C 
ENDROOT
BRANCH  16   2
ATOM      2  O   UNL     1     -17.411   0.520  28.353  0.00  0.00    -0.391 OA
ATOM     36  H   UNL     1     -17.454  -0.317  27.860  0.00  0.00    +0.210 HD
ENDBRANCH  16   2
BRANCH  15   1
ATOM      1  O   UNL     1     -15.531   6.325  32.255  0.00  0.00    -0.446 OA
BRANCH   1  25
ATOM      5  O   UNL     1     -15.157   8.507  31.683  0.00  0.00    -0.226 OA
ATOM      8  N   UNL     1     -13.590   7.249  32.885  0.00  0.00    -0.251 N 
ATOM     25  C   UNL     1     -14.782   7.474  32.224  0.00  0.00    +0.405 C 
ATOM     38  H   UNL     1     -13.459   6.317  33.272  0.00  0.00    +0.158 HD
BRANCH   8  30
ATOM     30  C   UNL     1     -12.526   8.155  33.092  0.00  0.00    +0.036 A 
ATOM     31  C   UNL     1     -11.672   8.480  32.039  0.00  0.00    +0.023 A 
ATOM     32  C   UNL     1     -12.330   8.724  34.351  0.00  0.00    +0.023 A 
ATOM     33  C   UNL     1     -10.621   9.375  32.244  0.00  0.00    +0.002 A 
ATOM     34  C   UNL     1     -11.278   9.617  34.556  0.00  0.00    +0.002 A 
ATOM     35  C   UNL     1     -10.424   9.943  33.502  0.00  0.00    +0.000 A 
ENDBRANCH   8  30
ENDBRANCH   1  25
ENDBRANCH  15   1
BRANCH  12  20
ATOM     20  C   UNL     1     -17.297   2.924  26.710  0.00  0.00    +0.102 C 
BRANCH  20  23
ATOM      4  O   UNL     1     -15.901   2.030  25.001  0.00  0.00    -0.276 OA
ATOM      7  N   UNL     1     -16.634   4.208  24.733  0.00  0.00    -0.296 N 
ATOM     23  C   UNL     1     -16.545   3.000  25.405  0.00  0.00    +0.216 C 
ATOM     24  C   UNL     1     -16.046   4.419  23.409  0.00  0.00    +0.101 C 
ATOM     26  C   UNL     1     -17.384   5.381  25.173  0.00  0.00    +0.108 C 
ATOM     27  C   UNL     1     -16.751   5.678  22.894  0.00  0.00    +0.026 C 
ATOM     28  C   UNL     1     -17.035   6.468  24.167  0.00  0.00    +0.021 C 
BRANCH  24  29
ATOM     29  C   UNL     1     -14.531   4.599  23.493  0.00  0.00    +0.178 C 
BRANCH  29   6
ATOM      6  O   UNL     1     -13.962   4.189  22.264  0.00  0.00    -0.393 OA
ATOM     39  H   UNL     1     -14.545   4.512  21.556  0.00  0.00    +0.209 HD
ENDBRANCH  29   6
ENDBRANCH  24  29
ENDBRANCH  20  23
ENDBRANCH  12  20
BRANCH  11  21
ATOM     21  C   UNL     1     -16.463   3.642  32.581  0.00  0.00    +0.166 C 
BRANCH  21   3
ATOM      3  O   UNL     1     -15.878   3.789  33.855  0.00  0.00    -0.394 OA
ATOM     37  H   UNL     1     -16.576   3.632  34.514  0.00  0.00    +0.209 HD
ENDBRANCH  21   3
ENDBRANCH  11  21
TORSDOF 10
ENDMDL
MODEL 2
REMARK VINA RESULT:      -6.8     18.591     22.565
REMARK  Name = 44716910
REMARK  12 active torsions:
REMARK  status: ('A' for Active; 'I' for Inactive)
REMARK    1  A    between atoms: O_1  and  C_15
REMARK    2  A    between atoms: O_1  and  C_25
REMARK    3  A    between atoms: O_2  and  C_16
REMARK    4  A    between atoms: O_3  and  C_21
REMARK    5  A    between atoms: O_6  and  C_29
REMARK    6  A    between atoms: N_8  and  C_30
REMARK    7  A    between atoms: C_9  and  C_19
REMARK    8  A    between atoms: C_11  and  C_21
REMARK    9  A    between atoms: C_11  and  C_22
REMARK   10  A    between atoms: C_12  and  C_20
REMARK   11  A    between atoms: C_20  and  C_23
REMARK   12  A    between atoms: C_24  and  C_29
REMARK                            x       y       z     vdW  Elec       q    Type
REMARK                         _______ _______ _______ _____ _____    ______ ____
ROOT
ATOM      9  C   UNL     1      -7.253 -10.509  18.051  0.00  0.00    -0.023 C 
ATOM     10  C   UNL     1      -6.718 -11.989  18.157  0.00  0.00    +0.007 C 
ATOM     11  C   UNL     1      -5.160 -12.189  18.017  0.00  0.00    +0.031 C 
ATOM     12  C   UNL     1      -8.829 -10.596  17.898  0.00  0.00    +0.032 C 
ATOM     13  C   UNL     1      -6.652  -9.857  16.777  0.00  0.00    +0.011 C 
ATOM     14  C   UNL     1      -7.357 -12.722  19.356  0.00  0.00    +0.007 C 
ATOM     15  C   UNL     1      -4.665 -11.426  16.751  0.00  0.00    +0.186 C 
ATOM     16  C   UNL     1      -9.514 -11.398  19.028  0.00  0.00    +0.119 C 
ATOM     17  C   UNL     1      -5.134  -9.977  16.683  0.00  0.00    +0.046 C 
ATOM     18  C   UNL     1      -8.880 -12.773  19.229  0.00  0.00    +0.032 C 
ATOM     19  C   UNL     1      -6.875  -9.624  19.264  0.00  0.00    +0.012 C 
ATOM     22  C   UNL     1      -4.859 -13.700  17.798  0.00  0.00    +0.017 C 
ENDROOT
BRANCH  16   2
ATOM      2  O   UNL     1      -9.489 -10.674  20.253  0.00  0.00    -0.391 OA
ATOM     36  H   UNL     1      -8.706 -10.962  20.753  0.00  0.00    +0.210 HD
ENDBRANCH  16   2
BRANCH  15   1
ATOM      1  O   UNL     1      -3.240 -11.410  16.665  0.00  0.00    -0.446 OA
BRANCH   1  25
ATOM      5  O   UNL     1      -1.719 -10.019  15.676  0.00  0.00    -0.226 OA
ATOM      8  N   UNL     1      -3.455 -11.024  14.469  0.00  0.00    -0.251 N 
ATOM     25  C   UNL     1      -2.705 -10.740  15.594  0.00  0.00    +0.405 C 
ATOM     38  H   UNL     1      -4.245 -11.651  14.602  0.00  0.00    +0.158 HD
BRANCH   8  30
ATOM     30  C   UNL     1      -3.261 -10.550  13.152  0.00  0.00    +0.036 A 
ATOM     31  C   UNL     1      -1.970 -10.399  12.647  0.00  0.00    +0.023 A 
ATOM     32  C   UNL     1      -4.363 -10.233  12.357  0.00  0.00    +0.023 A 
ATOM     33  C   UNL     1      -1.779  -9.931  11.347  0.00  0.00    +0.002 A 
ATOM     34  C   UNL     1      -4.172  -9.764  11.057  0.00  0.00    +0.002 A 
ATOM     35  C   UNL     1      -2.880  -9.614  10.552  0.00  0.00    +0.000 A 
ENDBRANCH   8  30
ENDBRANCH   1  25
ENDBRANCH  15   1
BRANCH  12  20
ATOM     20  C   UNL     1      -9.537  -9.245  17.714  0.00  0.00    +0.102 C 
BRANCH  20  23
ATOM      4  O   UNL     1     -10.860 -10.454  16.148  0.00  0.00    -0.276 OA
ATOM      7  N   UNL     1     -11.128  -8.156  16.204  0.00  0.00    -0.296 N 
ATOM     23  C   UNL     1     -10.568  -9.353  16.619  0.00  0.00    +0.216 C 
ATOM     24  C   UNL     1     -12.212  -8.091  15.221  0.00  0.00    +0.101 C 
ATOM     26  C   UNL     1     -10.813  -6.832  16.733  0.00  0.00    +0.108 C 
ATOM     27  C   UNL     1     -12.788  -6.685  15.408  0.00  0.00    +0.026 C 
ATOM     28  C   UNL     1     -11.580  -5.864  15.846  0.00  0.00    +0.021 C 
BRANCH  24  29
ATOM     29  C   UNL     1     -11.692  -8.318  13.802  0.00  0.00    +0.178 C 
BRANCH  29   6
ATOM      6  O   UNL     1     -12.016  -9.639  13.413  0.00  0.00    -0.393 OA
ATOM     39  H   UNL     1     -11.420  -9.878  12.682  0.00  0.00    +0.209 HD
ENDBRANCH  29   6
ENDBRANCH  24  29
ENDBRANCH  20  23
ENDBRANCH  12  20
BRANCH  11  21
ATOM     21  C   UNL     1      -4.357 -11.781  19.270  0.00  0.00    +0.166 C 
BRANCH  21   3
ATOM      3  O   UNL     1      -3.087 -12.388  19.189  0.00  0.00    -0.394 OA
ATOM     37  H   UNL     1      -2.605 -11.955  18.464  0.00  0.00    +0.209 HD
ENDBRANCH  21   3
ENDBRANCH  11  21
TORSDOF 10
ENDMDL
MODEL 3
REMARK VINA RESULT:      -6.8      3.503      6.425
REMARK  Name = 44716910
REMARK  12 active torsions:
REMARK  status: ('A' for Active; 'I' for Inactive)
REMARK    1  A    between atoms: O_1  and  C_15
REMARK    2  A    between atoms: O_1  and  C_25
REMARK    3  A    between atoms: O_2  and  C_16
REMARK    4  A    between atoms: O_3  and  C_21
REMARK    5  A    between atoms: O_6  and  C_29
REMARK    6  A    between atoms: N_8  and  C_30
REMARK    7  A    between atoms: C_9  and  C_19
REMARK    8  A    between atoms: C_11  and  C_21
REMARK    9  A    between atoms: C_11  and  C_22
REMARK   10  A    between atoms: C_12  and  C_20
REMARK   11  A    between atoms: C_20  and  C_23
REMARK   12  A    between atoms: C_24  and  C_29
REMARK                            x       y       z     vdW  Elec       q    Type
REMARK                         _______ _______ _______ _____ _____    ______ ____
ROOT
ATOM      9  C   UNL     1     -15.351   6.699  33.048  0.00  0.00    -0.023 C 
ATOM     10  C   UNL     1     -14.067   7.432  33.598  0.00  0.00    +0.007 C 
ATOM     11  C   UNL     1     -13.904   8.954  33.218  0.00  0.00    +0.031 C 
ATOM     12  C   UNL     1     -15.132   5.145  33.277  0.00  0.00    +0.032 C 
ATOM     13  C   UNL     1     -15.464   6.979  31.525  0.00  0.00    +0.011 C 
ATOM     14  C   UNL     1     -13.847   7.113  35.092  0.00  0.00    +0.007 C 
ATOM     15  C   UNL     1     -14.117   9.116  31.682  0.00  0.00    +0.186 C 
ATOM     16  C   UNL     1     -14.819   4.779  34.746  0.00  0.00    +0.119 C 
ATOM     17  C   UNL     1     -15.391   8.458  31.164  0.00  0.00    +0.046 C 
ATOM     18  C   UNL     1     -13.674   5.610  35.320  0.00  0.00    +0.032 C 
ATOM     19  C   UNL     1     -16.667   7.166  33.718  0.00  0.00    +0.012 C 
ATOM     22  C   UNL     1     -12.449   9.404  33.537  0.00  0.00    +0.017 C 
ENDROOT
BRANCH  16   2
ATOM      2  O   UNL     1     -15.975   4.924  35.564  0.00  0.00    -0.391 OA
ATOM     36  H   UNL     1     -16.220   4.042  35.892  0.00  0.00    +0.210 HD
ENDBRANCH  16   2
BRANCH  15   1
ATOM      1  O   UNL     1     -14.168  10.490  31.297  0.00  0.00    -0.446 OA
BRANCH   1  25
ATOM      5  O   UNL     1     -12.306  11.723  30.806  0.00  0.00    -0.226 OA
ATOM      8  N   UNL     1     -13.315  10.313  29.233  0.00  0.00    -0.251 N 
ATOM     25  C   UNL     1     -13.167  10.923  30.464  0.00  0.00    +0.405 C 
ATOM     38  H   UNL     1     -14.100   9.673  29.140  0.00  0.00    +0.158 HD
BRANCH   8  30
ATOM     30  C   UNL     1     -12.509  10.469  28.083  0.00  0.00    +0.036 A 
ATOM     31  C   UNL     1     -12.991  11.179  26.984  0.00  0.00    +0.023 A 
ATOM     32  C   UNL     1     -11.230   9.912  28.047  0.00  0.00    +0.023 A 
ATOM     33  C   UNL     1     -12.195  11.333  25.848  0.00  0.00    +0.002 A 
ATOM     34  C   UNL     1     -10.435  10.064  26.911  0.00  0.00    +0.002 A 
ATOM     35  C   UNL     1     -10.918  10.776  25.812  0.00  0.00    +0.000 A 
ENDBRANCH   8  30
ENDBRANCH   1  25
ENDBRANCH  15   1
BRANCH  12  20
ATOM     20  C   UNL     1     -16.259   4.248  32.744  0.00  0.00    +0.102 C 
BRANCH  20  23
ATOM      4  O   UNL     1     -15.358   2.086  33.175  0.00  0.00    -0.276 OA
ATOM      7  N   UNL     1     -15.585   2.713  30.959  0.00  0.00    -0.296 N 
ATOM     23  C   UNL     1     -15.693   2.914  32.325  0.00  0.00    +0.216 C 
ATOM     24  C   UNL     1     -15.148   1.440  30.381  0.00  0.00    +0.101 C 
ATOM     26  C   UNL     1     -15.969   3.663  29.918  0.00  0.00    +0.108 C 
ATOM     27  C   UNL     1     -15.597   1.530  28.920  0.00  0.00    +0.026 C 
ATOM     28  C   UNL     1     -15.512   3.022  28.617  0.00  0.00    +0.021 C 
BRANCH  24  29
ATOM     29  C   UNL     1     -13.636   1.259  30.509  0.00  0.00    +0.178 C 
BRANCH  29   6
ATOM      6  O   UNL     1     -13.246   0.161  29.706  0.00  0.00    -0.393 OA
ATOM     39  H   UNL     1     -13.923   0.056  29.015  0.00  0.00    +0.209 HD
ENDBRANCH  29   6
ENDBRANCH  24  29
ENDBRANCH  20  23
ENDBRANCH  12  20
BRANCH  11  21
ATOM     21  C   UNL     1     -14.821   9.903  34.017  0.00  0.00    +0.166 C 
BRANCH  21   3
ATOM      3  O   UNL     1     -14.142  11.129  34.176  0.00  0.00    -0.394 OA
ATOM     37  H   UNL     1     -14.197  11.372  35.116  0.00  0.00    +0.209 HD
ENDBRANCH  21   3
ENDBRANCH  11  21
TORSDOF 10
ENDMDL
MODEL 4
REMARK VINA RESULT:      -6.5     20.135     24.148
REMARK  Name = 44716910
REMARK  12 active torsions:
REMARK  status: ('A' for Active; 'I' for Inactive)
REMARK    1  A    between atoms: O_1  and  C_15
REMARK    2  A    between atoms: O_1  and  C_25
REMARK    3  A    between atoms: O_2  and  C_16
REMARK    4  A    between atoms: O_3  and  C_21
REMARK    5  A    between atoms: O_6  and  C_29
REMARK    6  A    between atoms: N_8  and  C_30
REMARK    7  A    between atoms: C_9  and  C_19
REMARK    8  A    between atoms: C_11  and  C_21
REMARK    9  A    between atoms: C_11  and  C_22
REMARK   10  A    between atoms: C_12  and  C_20
REMARK   11  A    between atoms: C_20  and  C_23
REMARK   12  A    between atoms: C_24  and  C_29
REMARK                            x       y       z     vdW  Elec       q    Type
REMARK                         _______ _______ _______ _____ _____    ______ ____
ROOT
ATOM      9  C   UNL     1      -4.194 -11.962  14.697  0.00  0.00    -0.023 C 
ATOM     10  C   UNL     1      -4.347 -11.206  16.074  0.00  0.00    +0.007 C 
ATOM     11  C   UNL     1      -5.607 -11.576  16.947  0.00  0.00    +0.031 C 
ATOM     12  C   UNL     1      -3.067 -11.206  13.877  0.00  0.00    +0.032 C 
ATOM     13  C   UNL     1      -5.538 -11.863  13.928  0.00  0.00    +0.011 C 
ATOM     14  C   UNL     1      -3.010 -11.188  16.845  0.00  0.00    +0.007 C 
ATOM     15  C   UNL     1      -6.879 -11.518  16.048  0.00  0.00    +0.186 C 
ATOM     16  C   UNL     1      -1.729 -11.081  14.641  0.00  0.00    +0.119 C 
ATOM     17  C   UNL     1      -6.749 -12.301  14.746  0.00  0.00    +0.046 C 
ATOM     18  C   UNL     1      -1.912 -10.494  16.038  0.00  0.00    +0.032 C 
ATOM     19  C   UNL     1      -3.840 -13.462  14.850  0.00  0.00    +0.012 C 
ATOM     22  C   UNL     1      -5.780 -10.509  18.067  0.00  0.00    +0.017 C 
ENDROOT
BRANCH  16   2
ATOM      2  O   UNL     1      -1.075 -12.342  14.732  0.00  0.00    -0.391 OA
ATOM     36  H   UNL     1      -1.030 -12.586  15.672  0.00  0.00    +0.210 HD
ENDBRANCH  16   2
BRANCH  15   1
ATOM      1  O   UNL     1      -8.031 -12.021  16.726  0.00  0.00    -0.446 OA
BRANCH   1  25
ATOM      5  O   UNL     1     -10.306 -11.811  16.641  0.00  0.00    -0.226 OA
ATOM      8  N   UNL     1      -8.875  -9.993  16.286  0.00  0.00    -0.251 N 
ATOM     25  C   UNL     1      -9.192 -11.310  16.556  0.00  0.00    +0.405 C 
ATOM     38  H   UNL     1      -7.884  -9.766  16.256  0.00  0.00    +0.158 HD
BRANCH   8  30
ATOM     30  C   UNL     1      -9.759  -8.917  16.045  0.00  0.00    +0.036 A 
ATOM     31  C   UNL     1      -9.995  -7.971  17.042  0.00  0.00    +0.023 A 
ATOM     32  C   UNL     1     -10.395  -8.801  14.809  0.00  0.00    +0.023 A 
ATOM     33  C   UNL     1     -10.867  -6.908  16.803  0.00  0.00    +0.002 A 
ATOM     34  C   UNL     1     -11.268  -7.740  14.570  0.00  0.00    +0.002 A 
ATOM     35  C   UNL     1     -11.503  -6.793  15.568  0.00  0.00    +0.000 A 
ENDBRANCH   8  30
ENDBRANCH   1  25
ENDBRANCH  15   1
BRANCH  12  20
ATOM     20  C   UNL     1      -2.813 -11.760  12.467  0.00  0.00    +0.102 C 
BRANCH  20  23
ATOM      4  O   UNL     1      -2.076  -9.694  11.541  0.00  0.00    -0.276 OA
ATOM      7  N   UNL     1      -3.841 -10.754  10.485  0.00  0.00    -0.296 N 
ATOM     23  C   UNL     1      -2.865 -10.637  11.461  0.00  0.00    +0.216 C 
ATOM     24  C   UNL     1      -3.967  -9.804   9.377  0.00  0.00    +0.101 C 
ATOM     26  C   UNL     1      -4.795 -11.852  10.352  0.00  0.00    +0.108 C 
ATOM     27  C   UNL     1      -4.835 -10.547   8.358  0.00  0.00    +0.026 C 
ATOM     28  C   UNL     1      -5.727 -11.425   9.228  0.00  0.00    +0.021 C 
BRANCH  24  29
ATOM     29  C   UNL     1      -4.607  -8.494   9.835  0.00  0.00    +0.178 C 
BRANCH  29   6
ATOM      6  O   UNL     1      -5.505  -8.060   8.832  0.00  0.00    -0.393 OA
ATOM     39  H   UNL     1      -5.814  -7.174   9.087  0.00  0.00    +0.209 HD
ENDBRANCH  29   6
ENDBRANCH  24  29
ENDBRANCH  20  23
ENDBRANCH  12  20
BRANCH  11  21
ATOM     21  C   UNL     1      -5.493 -12.932  17.675  0.00  0.00    +0.166 C 
BRANCH  21   3
ATOM      3  O   UNL     1      -6.348 -12.896  18.796  0.00  0.00    -0.394 OA
ATOM     37  H   UNL     1      -7.261 -12.924  18.464  0.00  0.00    +0.209 HD
ENDBRANCH  21   3
ENDBRANCH  11  21
TORSDOF 10
ENDMDL
MODEL 5
REMARK VINA RESULT:      -6.5     21.453     25.269
REMARK  Name = 44716910
REMARK  12 active torsions:
REMARK  status: ('A' for Active; 'I' for Inactive)
REMARK    1  A    between atoms: O_1  and  C_15
REMARK    2  A    between atoms: O_1  and  C_25
REMARK    3  A    between atoms: O_2  and  C_16
REMARK    4  A    between atoms: O_3  and  C_21
REMARK    5  A    between atoms: O_6  and  C_29
REMARK    6  A    between atoms: N_8  and  C_30
REMARK    7  A    between atoms: C_9  and  C_19
REMARK    8  A    between atoms: C_11  and  C_21
REMARK    9  A    between atoms: C_11  and  C_22
REMARK   10  A    between atoms: C_12  and  C_20
REMARK   11  A    between atoms: C_20  and  C_23
REMARK   12  A    between atoms: C_24  and  C_29
REMARK                            x       y       z     vdW  Elec       q    Type
REMARK                         _______ _______ _______ _____ _____    ______ ____
ROOT
ATOM      9  C   UNL     1      -5.378 -11.096  10.723  0.00  0.00    -0.023 C 
ATOM     10  C   UNL     1      -4.074 -10.567  11.436  0.00  0.00    +0.007 C 
ATOM     11  C   UNL     1      -3.424 -11.515  12.517  0.00  0.00    +0.031 C 
ATOM     12  C   UNL     1      -6.010  -9.868   9.944  0.00  0.00    +0.032 C 
ATOM     13  C   UNL     1      -6.374 -11.578  11.811  0.00  0.00    +0.011 C 
ATOM     14  C   UNL     1      -3.080  -9.985  10.409  0.00  0.00    +0.007 C 
ATOM     15  C   UNL     1      -4.535 -11.994  13.500  0.00  0.00    +0.186 C 
ATOM     16  C   UNL     1      -5.027  -9.190   8.963  0.00  0.00    +0.119 C 
ATOM     17  C   UNL     1      -5.769 -12.561  12.808  0.00  0.00    +0.046 C 
ATOM     18  C   UNL     1      -3.702  -8.826   9.629  0.00  0.00    +0.032 C 
ATOM     19  C   UNL     1      -5.119 -12.277   9.755  0.00  0.00    +0.012 C 
ATOM     22  C   UNL     1      -2.385 -10.705  13.345  0.00  0.00    +0.017 C 
ENDROOT
BRANCH  16   2
ATOM      2  O   UNL     1      -4.783 -10.019   7.832  0.00  0.00    -0.391 OA
ATOM     36  H   UNL     1      -3.826 -10.016   7.662  0.00  0.00    +0.210 HD
ENDBRANCH  16   2
BRANCH  15   1
ATOM      1  O   UNL     1      -4.055 -13.000  14.392  0.00  0.00    -0.446 OA
BRANCH   1  25
ATOM      5  O   UNL     1      -5.058 -14.108  16.123  0.00  0.00    -0.226 OA
ATOM      8  N   UNL     1      -4.743 -11.788  16.146  0.00  0.00    -0.251 N 
ATOM     25  C   UNL     1      -4.665 -13.063  15.620  0.00  0.00    +0.405 C 
ATOM     38  H   UNL     1      -4.358 -11.041  15.574  0.00  0.00    +0.158 HD
BRANCH   8  30
ATOM     30  C   UNL     1      -5.294 -11.391  17.386  0.00  0.00    +0.036 A 
ATOM     31  C   UNL     1      -4.665 -11.751  18.576  0.00  0.00    +0.023 A 
ATOM     32  C   UNL     1      -6.467 -10.637  17.417  0.00  0.00    +0.023 A 
ATOM     33  C   UNL     1      -5.208 -11.359  19.800  0.00  0.00    +0.002 A 
ATOM     34  C   UNL     1      -7.012 -10.246  18.640  0.00  0.00    +0.002 A 
ATOM     35  C   UNL     1      -6.382 -10.606  19.831  0.00  0.00    +0.000 A 
ENDBRANCH   8  30
ENDBRANCH   1  25
ENDBRANCH  15   1
BRANCH  12  20
ATOM     20  C   UNL     1      -7.336 -10.170   9.229  0.00  0.00    +0.102 C 
BRANCH  20  23
ATOM      4  O   UNL     1      -8.904  -9.238  10.759  0.00  0.00    -0.276 OA
ATOM      7  N   UNL     1      -8.688  -8.197   8.704  0.00  0.00    -0.296 N 
ATOM     23  C   UNL     1      -8.380  -9.165   9.646  0.00  0.00    +0.216 C 
ATOM     24  C   UNL     1      -9.607  -7.091   8.980  0.00  0.00    +0.101 C 
ATOM     26  C   UNL     1      -8.094  -8.072   7.375  0.00  0.00    +0.108 C 
ATOM     27  C   UNL     1      -9.302  -6.078   7.873  0.00  0.00    +0.026 C 
ATOM     28  C   UNL     1      -8.877  -6.955   6.701  0.00  0.00    +0.021 C 
BRANCH  24  29
ATOM     29  C   UNL     1     -11.063  -7.554   8.954  0.00  0.00    +0.178 C 
BRANCH  29   6
ATOM      6  O   UNL     1     -11.506  -7.716  10.287  0.00  0.00    -0.393 OA
ATOM     39  H   UNL     1     -12.347  -8.204  10.253  0.00  0.00    +0.209 HD
ENDBRANCH  29   6
ENDBRANCH  24  29
ENDBRANCH  20  23
ENDBRANCH  12  20
BRANCH  11  21
ATOM     21  C   UNL     1      -2.647 -12.708  11.922  0.00  0.00    +0.166 C 
BRANCH  21   3
ATOM      3  O   UNL     1      -1.576 -13.004  12.790  0.00  0.00    -0.394 OA
ATOM     37  H   UNL     1      -0.868 -12.363  12.605  0.00  0.00    +0.209 HD
ENDBRANCH  21   3
ENDBRANCH  11  21
TORSDOF 10
ENDMDL
MODEL 6
REMARK VINA RESULT:      -6.4     22.453     26.594
REMARK  Name = 44716910
REMARK  12 active torsions:
REMARK  status: ('A' for Active; 'I' for Inactive)
REMARK    1  A    between atoms: O_1  and  C_15
REMARK    2  A    between atoms: O_1  and  C_25
REMARK    3  A    between atoms: O_2  and  C_16
REMARK    4  A    between atoms: O_3  and  C_21
REMARK    5  A    between atoms: O_6  and  C_29
REMARK    6  A    between atoms: N_8  and  C_30
REMARK    7  A    between atoms: C_9  and  C_19
REMARK    8  A    between atoms: C_11  and  C_21
REMARK    9  A    between atoms: C_11  and  C_22
REMARK   10  A    between atoms: C_12  and  C_20
REMARK   11  A    between atoms: C_20  and  C_23
REMARK   12  A    between atoms: C_24  and  C_29
REMARK                            x       y       z     vdW  Elec       q    Type
REMARK                         _______ _______ _______ _____ _____    ______ ____
ROOT
ATOM      9  C   UNL     1      -4.236 -11.170  12.480  0.00  0.00    -0.023 C 
ATOM     10  C   UNL     1      -4.626 -11.532  10.994  0.00  0.00    +0.007 C 
ATOM     11  C   UNL     1      -5.102 -10.341  10.078  0.00  0.00    +0.031 C 
ATOM     12  C   UNL     1      -4.109 -12.538  13.272  0.00  0.00    +0.032 C 
ATOM     13  C   UNL     1      -5.382 -10.326  13.098  0.00  0.00    +0.011 C 
ATOM     14  C   UNL     1      -3.565 -12.454  10.354  0.00  0.00    +0.007 C 
ATOM     15  C   UNL     1      -6.192  -9.525  10.838  0.00  0.00    +0.186 C 
ATOM     16  C   UNL     1      -3.123 -13.536  12.623  0.00  0.00    +0.119 C 
ATOM     17  C   UNL     1      -5.787  -9.124  12.252  0.00  0.00    +0.046 C 
ATOM     18  C   UNL     1      -3.414 -13.757  11.140  0.00  0.00    +0.032 C 
ATOM     19  C   UNL     1      -2.925 -10.354  12.595  0.00  0.00    +0.012 C 
ATOM     22  C   UNL     1      -5.765 -10.920   8.794  0.00  0.00    +0.017 C 
ENDROOT
BRANCH  16   2
ATOM      2  O   UNL     1      -1.778 -13.103  12.789  0.00  0.00    -0.391 OA
ATOM     36  H   UNL     1      -1.795 -12.158  13.017  0.00  0.00    +0.210 HD
ENDBRANCH  16   2
BRANCH  15   1
ATOM      1  O   UNL     1      -6.535  -8.325  10.144  0.00  0.00    -0.446 OA
BRANCH   1  25
ATOM      5  O   UNL     1      -8.701  -8.926   9.725  0.00  0.00    -0.226 OA
ATOM      8  N   UNL     1      -7.422  -7.720   8.178  0.00  0.00    -0.251 N 
ATOM     25  C   UNL     1      -7.666  -8.375   9.370  0.00  0.00    +0.405 C 
ATOM     38  H   UNL     1      -6.492  -7.324   8.065  0.00  0.00    +0.158 HD
BRANCH   8  30
ATOM     30  C   UNL     1      -8.306  -7.532   7.092  0.00  0.00    +0.036 A 
ATOM     31  C   UNL     1      -9.538  -6.911   7.294  0.00  0.00    +0.023 A 
ATOM     32  C   UNL     1      -7.945  -7.966   5.816  0.00  0.00    +0.023 A 
ATOM     33  C   UNL     1     -10.411  -6.725   6.221  0.00  0.00    +0.002 A 
ATOM     34  C   UNL     1      -8.817  -7.782   4.743  0.00  0.00    +0.002 A 
ATOM     35  C   UNL     1     -10.050  -7.160   4.946  0.00  0.00    +0.000 A 
ENDBRANCH   8  30
ENDBRANCH   1  25
ENDBRANCH  15   1
BRANCH  12  20
ATOM     20  C   UNL     1      -3.794 -12.392  14.768  0.00  0.00    +0.102 C 
BRANCH  20  23
ATOM      4  O   UNL     1      -5.620 -13.866  15.170  0.00  0.00    -0.276 OA
ATOM      7  N   UNL     1      -5.168 -12.280  16.792  0.00  0.00    -0.296 N 
ATOM     23  C   UNL     1      -4.944 -12.923  15.586  0.00  0.00    +0.216 C 
ATOM     24  C   UNL     1      -6.179 -12.729  17.751  0.00  0.00    +0.101 C 
ATOM     26  C   UNL     1      -4.395 -11.161  17.325  0.00  0.00    +0.108 C 
ATOM     27  C   UNL     1      -5.776 -12.040  19.057  0.00  0.00    +0.026 C 
ATOM     28  C   UNL     1      -5.135 -10.740  18.586  0.00  0.00    +0.021 C 
BRANCH  24  29
ATOM     29  C   UNL     1      -7.587 -12.337  17.302  0.00  0.00    +0.178 C 
BRANCH  29   6
ATOM      6  O   UNL     1      -8.200 -13.467  16.712  0.00  0.00    -0.393 OA
ATOM     39  H   UNL     1      -8.298 -13.277  15.763  0.00  0.00    +0.209 HD
ENDBRANCH  29   6
ENDBRANCH  24  29
ENDBRANCH  20  23
ENDBRANCH  12  20
BRANCH  11  21
ATOM     21  C   UNL     1      -3.959  -9.430   9.584  0.00  0.00    +0.166 C 
BRANCH  21   3
ATOM      3  O   UNL     1      -4.428  -8.717   8.461  0.00  0.00    -0.394 OA
ATOM     37  H   UNL     1      -5.193  -8.192   8.751  0.00  0.00    +0.209 HD
ENDBRANCH  21   3
ENDBRANCH  11  21
TORSDOF 10
ENDMDL
MODEL 7
REMARK VINA RESULT:      -6.2     20.784     25.430
REMARK  Name = 44716910
REMARK  12 active torsions:
REMARK  status: ('A' for Active; 'I' for Inactive)
REMARK    1  A    between atoms: O_1  and  C_15
REMARK    2  A    between atoms: O_1  and  C_25
REMARK    3  A    between atoms: O_2  and  C_16
REMARK    4  A    between atoms: O_3  and  C_21
REMARK    5  A    between atoms: O_6  and  C_29
REMARK    6  A    between atoms: N_8  and  C_30
REMARK    7  A    between atoms: C_9  and  C_19
REMARK    8  A    between atoms: C_11  and  C_21
REMARK    9  A    between atoms: C_11  and  C_22
REMARK   10  A    between atoms: C_12  and  C_20
REMARK   11  A    between atoms: C_20  and  C_23
REMARK   12  A    between atoms: C_24  and  C_29
REMARK                            x       y       z     vdW  Elec       q    Type
REMARK                         _______ _______ _______ _____ _____    ______ ____
ROOT
ATOM      9  C   UNL     1      -4.818 -11.651  15.685  0.00  0.00    -0.023 C 
ATOM     10  C   UNL     1      -4.595 -12.975  14.856  0.00  0.00    +0.007 C 
ATOM     11  C   UNL     1      -3.532 -12.911  13.693  0.00  0.00    +0.031 C 
ATOM     12  C   UNL     1      -6.127 -11.863  16.553  0.00  0.00    +0.032 C 
ATOM     13  C   UNL     1      -5.048 -10.481  14.691  0.00  0.00    +0.011 C 
ATOM     14  C   UNL     1      -4.454 -14.195  15.792  0.00  0.00    +0.007 C 
ATOM     15  C   UNL     1      -3.820 -11.655  12.815  0.00  0.00    +0.186 C 
ATOM     16  C   UNL     1      -6.075 -13.124  17.446  0.00  0.00    +0.119 C 
ATOM     17  C   UNL     1      -3.974 -10.366  13.615  0.00  0.00    +0.046 C 
ATOM     18  C   UNL     1      -5.700 -14.377  16.658  0.00  0.00    +0.032 C 
ATOM     19  C   UNL     1      -3.619 -11.278  16.592  0.00  0.00    +0.012 C 
ATOM     22  C   UNL     1      -3.697 -14.163  12.783  0.00  0.00    +0.017 C 
ENDROOT
BRANCH  16   2
ATOM      2  O   UNL     1      -5.165 -12.946  18.526  0.00  0.00    -0.391 OA
ATOM     36  H   UNL     1      -5.029 -11.991  18.645  0.00  0.00    +0.210 HD
ENDBRANCH  16   2
BRANCH  15   1
ATOM      1  O   UNL     1      -2.787 -11.431  11.855  0.00  0.00    -0.446 OA
BRANCH   1  25
ATOM      5  O   UNL     1      -2.543  -9.626  10.474  0.00  0.00    -0.226 OA
ATOM      8  N   UNL     1      -4.188 -11.252  10.116  0.00  0.00    -0.251 N 
ATOM     25  C   UNL     1      -3.124 -10.662  10.770  0.00  0.00    +0.405 C 
ATOM     38  H   UNL     1      -4.538 -12.119  10.518  0.00  0.00    +0.158 HD
BRANCH   8  30
ATOM     30  C   UNL     1      -4.854 -10.801   8.954  0.00  0.00    +0.036 A 
ATOM     31  C   UNL     1      -5.839  -9.819   9.052  0.00  0.00    +0.023 A 
ATOM     32  C   UNL     1      -4.525 -11.337   7.709  0.00  0.00    +0.023 A 
ATOM     33  C   UNL     1      -6.496  -9.373   7.905  0.00  0.00    +0.002 A 
ATOM     34  C   UNL     1      -5.183 -10.893   6.562  0.00  0.00    +0.002 A 
ATOM     35  C   UNL     1      -6.168  -9.910   6.660  0.00  0.00    +0.000 A 
ENDBRANCH   8  30
ENDBRANCH   1  25
ENDBRANCH  15   1
BRANCH  12  20
ATOM     20  C   UNL     1      -6.551 -10.648  17.392  0.00  0.00    +0.102 C 
BRANCH  20  23
ATOM      4  O   UNL     1      -8.192  -9.735  15.927  0.00  0.00    -0.276 OA
ATOM      7  N   UNL     1      -8.917 -10.473  17.997  0.00  0.00    -0.296 N 
ATOM     23  C   UNL     1      -7.957 -10.241  17.026  0.00  0.00    +0.216 C 
ATOM     24  C   UNL     1     -10.343 -10.228  17.770  0.00  0.00    +0.101 C 
ATOM     26  C   UNL     1      -8.685 -11.069  19.310  0.00  0.00    +0.108 C 
ATOM     27  C   UNL     1     -11.030 -11.016  18.889  0.00  0.00    +0.026 C 
ATOM     28  C   UNL     1     -10.020 -10.961  20.030  0.00  0.00    +0.021 C 
BRANCH  24  29
ATOM     29  C   UNL     1     -10.670  -8.737  17.829  0.00  0.00    +0.178 C 
BRANCH  29   6
ATOM      6  O   UNL     1     -10.762  -8.245  16.506  0.00  0.00    -0.393 OA
ATOM     39  H   UNL     1      -9.893  -8.377  16.089  0.00  0.00    +0.209 HD
ENDBRANCH  29   6
ENDBRANCH  24  29
ENDBRANCH  20  23
ENDBRANCH  12  20
BRANCH  11  21
ATOM     21  C   UNL     1      -2.067 -12.936  14.177  0.00  0.00    +0.166 C 
BRANCH  21   3
ATOM      3  O   UNL     1      -1.263 -13.367  13.101  0.00  0.00    -0.394 OA
ATOM     37  H   UNL     1      -0.456 -12.823  13.107  0.00  0.00    +0.209 HD
ENDBRANCH  21   3
ENDBRANCH  11  21
TORSDOF 10
ENDMDL
MODEL 8
REMARK VINA RESULT:      -6.1     35.102     39.661
REMARK  Name = 44716910
REMARK  12 active torsions:
REMARK  status: ('A' for Active; 'I' for Inactive)
REMARK    1  A    between atoms: O_1  and  C_15
REMARK    2  A    between atoms: O_1  and  C_25
REMARK    3  A    between atoms: O_2  and  C_16
REMARK    4  A    between atoms: O_3  and  C_21
REMARK    5  A    between atoms: O_6  and  C_29
REMARK    6  A    between atoms: N_8  and  C_30
REMARK    7  A    between atoms: C_9  and  C_19
REMARK    8  A    between atoms: C_11  and  C_21
REMARK    9  A    between atoms: C_11  and  C_22
REMARK   10  A    between atoms: C_12  and  C_20
REMARK   11  A    between atoms: C_20  and  C_23
REMARK   12  A    between atoms: C_24  and  C_29
REMARK                            x       y       z     vdW  Elec       q    Type
REMARK                         _______ _______ _______ _____ _____    ______ ____
ROOT
ATOM      9  C   UNL     1      12.000   4.253  -1.576  0.00  0.00    -0.023 C 
ATOM     10  C   UNL     1      13.259   4.781  -0.787  0.00  0.00    +0.007 C 
ATOM     11  C   UNL     1      13.251   4.579   0.777  0.00  0.00    +0.031 C 
ATOM     12  C   UNL     1      12.089   4.847  -3.044  0.00  0.00    +0.032 C 
ATOM     13  C   UNL     1      10.721   4.795  -0.883  0.00  0.00    +0.011 C 
ATOM     14  C   UNL     1      14.568   4.353  -1.486  0.00  0.00    +0.007 C 
ATOM     15  C   UNL     1      11.890   5.086   1.343  0.00  0.00    +0.186 C 
ATOM     16  C   UNL     1      13.420   4.522  -3.759  0.00  0.00    +0.119 C 
ATOM     17  C   UNL     1      10.673   4.525   0.617  0.00  0.00    +0.046 C 
ATOM     18  C   UNL     1      14.637   4.892  -2.915  0.00  0.00    +0.032 C 
ATOM     19  C   UNL     1      11.900   2.708  -1.621  0.00  0.00    +0.012 C 
ATOM     22  C   UNL     1      14.373   5.453   1.409  0.00  0.00    +0.017 C 
ENDROOT
BRANCH  16   2
ATOM      2  O   UNL     1      13.484   3.144  -4.114  0.00  0.00    -0.391 OA
ATOM     36  H   UNL     1      12.721   2.698  -3.711  0.00  0.00    +0.210 HD
ENDBRANCH  16   2
BRANCH  15   1
ATOM      1  O   UNL     1      11.738   4.764   2.726  0.00  0.00    -0.446 OA
BRANCH   1  25
ATOM      5  O   UNL     1      11.491   6.962   3.305  0.00  0.00    -0.226 OA
ATOM      8  N   UNL     1      10.621   5.226   4.612  0.00  0.00    -0.251 N 
ATOM     25  C   UNL     1      11.295   5.776   3.539  0.00  0.00    +0.405 C 
ATOM     38  H   UNL     1      10.562   4.210   4.632  0.00  0.00    +0.158 HD
BRANCH   8  30
ATOM     30  C   UNL     1      10.002   5.899   5.689  0.00  0.00    +0.036 A 
ATOM     31  C   UNL     1      10.495   5.744   6.984  0.00  0.00    +0.023 A 
ATOM     32  C   UNL     1       8.898   6.720   5.457  0.00  0.00    +0.023 A 
ATOM     33  C   UNL     1       9.885   6.409   8.048  0.00  0.00    +0.002 A 
ATOM     34  C   UNL     1       8.286   7.383   6.520  0.00  0.00    +0.002 A 
ATOM     35  C   UNL     1       8.781   7.229   7.816  0.00  0.00    +0.000 A 
ENDBRANCH   8  30
ENDBRANCH   1  25
ENDBRANCH  15   1
BRANCH  12  20
ATOM     20  C   UNL     1      10.906   4.493  -3.958  0.00  0.00    +0.102 C 
BRANCH  20  23
ATOM      4  O   UNL     1      11.185   6.216  -5.577  0.00  0.00    -0.276 OA
ATOM      7  N   UNL     1       9.219   6.222  -4.358  0.00  0.00    -0.296 N 
ATOM     23  C   UNL     1      10.460   5.720  -4.713  0.00  0.00    +0.216 C 
ATOM     24  C   UNL     1       8.593   7.347  -5.057  0.00  0.00    +0.101 C 
ATOM     26  C   UNL     1       8.327   5.668  -3.343  0.00  0.00    +0.108 C 
ATOM     27  C   UNL     1       7.121   7.257  -4.647  0.00  0.00    +0.026 C 
ATOM     28  C   UNL     1       7.181   6.664  -3.244  0.00  0.00    +0.021 C 
BRANCH  24  29
ATOM     29  C   UNL     1       9.226   8.677  -4.650  0.00  0.00    +0.178 C 
BRANCH  29   6
ATOM      6  O   UNL     1      10.135   9.069  -5.662  0.00  0.00    -0.393 OA
ATOM     39  H   UNL     1       9.694   8.923  -6.516  0.00  0.00    +0.209 HD
ENDBRANCH  29   6
ENDBRANCH  24  29
ENDBRANCH  20  23
ENDBRANCH  12  20
BRANCH  11  21
ATOM     21  C   UNL     1      13.544   3.132   1.226  0.00  0.00    +0.166 C 
BRANCH  21   3
ATOM      3  O   UNL     1      14.609   3.173   2.149  0.00  0.00    -0.394 OA
ATOM     37  H   UNL     1      14.841   2.253   2.364  0.00  0.00    +0.209 HD
ENDBRANCH  21   3
ENDBRANCH  11  21
TORSDOF 10
ENDMDL
MODEL 9
REMARK VINA RESULT:      -6.0     35.833     39.547
REMARK  Name = 44716910
REMARK  12 active torsions:
REMARK  status: ('A' for Active; 'I' for Inactive)
REMARK    1  A    between atoms: O_1  and  C_15
REMARK    2  A    between atoms: O_1  and  C_25
REMARK    3  A    between atoms: O_2  and  C_16
REMARK    4  A    between atoms: O_3  and  C_21
REMARK    5  A    between atoms: O_6  and  C_29
REMARK    6  A    between atoms: N_8  and  C_30
REMARK    7  A    between atoms: C_9  and  C_19
REMARK    8  A    between atoms: C_11  and  C_21
REMARK    9  A    between atoms: C_11  and  C_22
REMARK   10  A    between atoms: C_12  and  C_20
REMARK   11  A    between atoms: C_20  and  C_23
REMARK   12  A    between atoms: C_24  and  C_29
REMARK                            x       y       z     vdW  Elec       q    Type
REMARK                         _______ _______ _______ _____ _____    ______ ____
ROOT
ATOM      9  C   UNL     1      12.296   7.005   3.387  0.00  0.00    -0.023 C 
ATOM     10  C   UNL     1      12.448   7.203   4.945  0.00  0.00    +0.007 C 
ATOM     11  C   UNL     1      13.252   8.473   5.422  0.00  0.00    +0.031 C 
ATOM     12  C   UNL     1      11.753   5.533   3.158  0.00  0.00    +0.032 C 
ATOM     13  C   UNL     1      13.698   7.139   2.735  0.00  0.00    +0.011 C 
ATOM     14  C   UNL     1      11.099   6.986   5.663  0.00  0.00    +0.007 C 
ATOM     15  C   UNL     1      14.599   8.540   4.641  0.00  0.00    +0.186 C 
ATOM     16  C   UNL     1      10.446   5.233   3.928  0.00  0.00    +0.119 C 
ATOM     17  C   UNL     1      14.442   8.410   3.130  0.00  0.00    +0.046 C 
ATOM     18  C   UNL     1      10.554   5.579   5.410  0.00  0.00    +0.032 C 
ATOM     19  C   UNL     1      11.357   8.040   2.720  0.00  0.00    +0.012 C 
ATOM     22  C   UNL     1      13.596   8.320   6.932  0.00  0.00    +0.017 C 
ENDROOT
BRANCH  16   2
ATOM      2  O   UNL     1       9.345   5.927   3.351  0.00  0.00    -0.391 OA
ATOM     36  H   UNL     1       9.278   6.793   3.788  0.00  0.00    +0.210 HD
ENDBRANCH  16   2
BRANCH  15   1
ATOM      1  O   UNL     1      15.293   9.763   4.886  0.00  0.00    -0.446 OA
BRANCH   1  25
ATOM      5  O   UNL     1      17.221  10.514   3.913  0.00  0.00    -0.226 OA
ATOM      8  N   UNL     1      17.208   8.742   5.442  0.00  0.00    -0.251 N 
ATOM     25  C   UNL     1      16.649   9.744   4.673  0.00  0.00    +0.405 C 
ATOM     38  H   UNL     1      16.564   8.202   6.015  0.00  0.00    +0.158 HD
BRANCH   8  30
ATOM     30  C   UNL     1      18.569   8.370   5.531  0.00  0.00    +0.036 A 
ATOM     31  C   UNL     1      19.201   7.772   4.442  0.00  0.00    +0.023 A 
ATOM     32  C   UNL     1      19.279   8.603   6.709  0.00  0.00    +0.023 A 
ATOM     33  C   UNL     1      20.545   7.406   4.530  0.00  0.00    +0.002 A 
ATOM     34  C   UNL     1      20.622   8.235   6.798  0.00  0.00    +0.002 A 
ATOM     35  C   UNL     1      21.255   7.637   5.707  0.00  0.00    +0.000 A 
ENDBRANCH   8  30
ENDBRANCH   1  25
ENDBRANCH  15   1
BRANCH  12  20
ATOM     20  C   UNL     1      11.597   5.124   1.685  0.00  0.00    +0.102 C 
BRANCH  20  23
ATOM      4  O   UNL     1      13.062   3.265   1.941  0.00  0.00    -0.276 OA
ATOM      7  N   UNL     1      13.425   4.653   0.126  0.00  0.00    -0.296 N 
ATOM     23  C   UNL     1      12.757   4.254   1.272  0.00  0.00    +0.216 C 
ATOM     24  C   UNL     1      14.511   3.870  -0.468  0.00  0.00    +0.101 C 
ATOM     26  C   UNL     1      13.100   5.816  -0.697  0.00  0.00    +0.108 C 
ATOM     27  C   UNL     1      14.627   4.427  -1.889  0.00  0.00    +0.026 C 
ATOM     28  C   UNL     1      14.214   5.886  -1.731  0.00  0.00    +0.021 C 
BRANCH  24  29
ATOM     29  C   UNL     1      15.810   4.028   0.322  0.00  0.00    +0.178 C 
BRANCH  29   6
ATOM      6  O   UNL     1      15.788   3.120   1.407  0.00  0.00    -0.393 OA
ATOM     39  H   UNL     1      15.237   2.365   1.138  0.00  0.00    +0.209 HD
ENDBRANCH  29   6
ENDBRANCH  24  29
ENDBRANCH  20  23
ENDBRANCH  12  20
BRANCH  11  21
ATOM     21  C   UNL     1      12.466   9.795   5.305  0.00  0.00    +0.166 C 
BRANCH  21   3
ATOM      3  O   UNL     1      12.271  10.301   6.607  0.00  0.00    -0.394 OA
ATOM     37  H   UNL     1      12.664  11.190   6.634  0.00  0.00    +0.209 HD
ENDBRANCH  21   3
ENDBRANCH  11  21
TORSDOF 10
ENDMDL
MODEL 10
REMARK VINA RESULT:      -6.0      3.442      6.117
REMARK  Name = 44716910
REMARK  12 active torsions:
REMARK  status: ('A' for Active; 'I' for Inactive)
REMARK    1  A    between atoms: O_1  and  C_15
REMARK    2  A    between atoms: O_1  and  C_25
REMARK    3  A    between atoms: O_2  and  C_16
REMARK    4  A    between atoms: O_3  and  C_21
REMARK    5  A    between atoms: O_6  and  C_29
REMARK    6  A    between atoms: N_8  and  C_30
REMARK    7  A    between atoms: C_9  and  C_19
REMARK    8  A    between atoms: C_11  and  C_21
REMARK    9  A    between atoms: C_11  and  C_22
REMARK   10  A    between atoms: C_12  and  C_20
REMARK   11  A    between atoms: C_20  and  C_23
REMARK   12  A    between atoms: C_24  and  C_29
REMARK                            x       y       z     vdW  Elec       q    Type
REMARK                         _______ _______ _______ _____ _____    ______ ____
ROOT
ATOM      9  C   UNL     1     -15.020   6.696  33.197  0.00  0.00    -0.023 C 
ATOM     10  C   UNL     1     -13.736   7.253  33.924  0.00  0.00    +0.007 C 
ATOM     11  C   UNL     1     -13.369   8.763  33.654  0.00  0.00    +0.031 C 
ATOM     12  C   UNL     1     -14.995   5.119  33.358  0.00  0.00    +0.032 C 
ATOM     13  C   UNL     1     -14.928   7.056  31.690  0.00  0.00    +0.011 C 
ATOM     14  C   UNL     1     -13.723   6.843  35.412  0.00  0.00    +0.007 C 
ATOM     15  C   UNL     1     -13.387   9.019  32.116  0.00  0.00    +0.186 C 
ATOM     16  C   UNL     1     -14.893   4.652  34.828  0.00  0.00    +0.119 C 
ATOM     17  C   UNL     1     -14.657   8.533  31.426  0.00  0.00    +0.046 C 
ATOM     18  C   UNL     1     -13.739   5.322  35.570  0.00  0.00    +0.032 C 
ATOM     19  C   UNL     1     -16.346   7.277  33.747  0.00  0.00    +0.012 C 
ATOM     22  C   UNL     1     -11.920   9.032  34.154  0.00  0.00    +0.017 C 
ENDROOT
BRANCH  16   2
ATOM      2  O   UNL     1     -16.112   4.889  35.524  0.00  0.00    -0.391 OA
ATOM     36  H   UNL     1     -16.674   5.444  34.957  0.00  0.00    +0.210 HD
ENDBRANCH  16   2
BRANCH  15   1
ATOM      1  O   UNL     1     -13.247  10.406  31.808  0.00  0.00    -0.446 OA
BRANCH   1  25
ATOM      5  O   UNL     1     -11.612  10.410  30.209  0.00  0.00    -0.226 OA
ATOM      8  N   UNL     1     -11.422  11.649  32.186  0.00  0.00    -0.251 N 
ATOM     25  C   UNL     1     -12.035  10.793  31.293  0.00  0.00    +0.405 C 
ATOM     38  H   UNL     1     -11.935  11.849  33.041  0.00  0.00    +0.158 HD
BRANCH   8  30
ATOM     30  C   UNL     1     -10.166  12.284  32.061  0.00  0.00    +0.036 A 
ATOM     31  C   UNL     1     -10.079  13.555  31.494  0.00  0.00    +0.023 A 
ATOM     32  C   UNL     1      -9.011  11.639  32.505  0.00  0.00    +0.023 A 
ATOM     33  C   UNL     1      -8.839  14.182  31.371  0.00  0.00    +0.002 A 
ATOM     34  C   UNL     1      -7.771  12.264  32.381  0.00  0.00    +0.002 A 
ATOM     35  C   UNL     1      -7.685  13.536  31.814  0.00  0.00    +0.000 A 
ENDBRANCH   8  30
ENDBRANCH   1  25
ENDBRANCH  15   1
BRANCH  12  20
ATOM     20  C   UNL     1     -16.144   4.379  32.655  0.00  0.00    +0.102 C 
BRANCH  20  23
ATOM      4  O   UNL     1     -15.322   2.166  32.963  0.00  0.00    -0.276 OA
ATOM      7  N   UNL     1     -15.626   2.885  30.785  0.00  0.00    -0.296 N 
ATOM     23  C   UNL     1     -15.660   3.038  32.161  0.00  0.00    +0.216 C 
ATOM     24  C   UNL     1     -15.276   1.617  30.141  0.00  0.00    +0.101 C 
ATOM     26  C   UNL     1     -16.017   3.889  29.799  0.00  0.00    +0.108 C 
ATOM     27  C   UNL     1     -15.790   1.782  28.708  0.00  0.00    +0.026 C 
ATOM     28  C   UNL     1     -15.652   3.279  28.454  0.00  0.00    +0.021 C 
BRANCH  24  29
ATOM     29  C   UNL     1     -13.769   1.365  30.187  0.00  0.00    +0.178 C 
BRANCH  29   6
ATOM      6  O   UNL     1     -13.108   2.614  30.257  0.00  0.00    -0.393 OA
ATOM     39  H   UNL     1     -13.701   3.227  30.724  0.00  0.00    +0.209 HD
ENDBRANCH  29   6
ENDBRANCH  24  29
ENDBRANCH  20  23
ENDBRANCH  12  20
BRANCH  11  21
ATOM     21  C   UNL     1     -14.264   9.772  34.403  0.00  0.00    +0.166 C 
BRANCH  21   3
ATOM      3  O   UNL     1     -13.526  10.962  34.575  0.00  0.00    -0.394 OA
ATOM     37  H   UNL     1     -14.006  11.509  35.219  0.00  0.00    +0.209 HD
ENDBRANCH  21   3
ENDBRANCH  11  21
TORSDOF 10
ENDMDL
