MODEL 1
REMARK VINA RESULT:      -7.7      0.000      0.000
REMARK  Name = 40533380
REMARK  5 active torsions:
REMARK  status: ('A' for Active; 'I' for Inactive)
REMARK    1  A    between atoms: N_3  and  C_10
REMARK    2  A    between atoms: N_3  and  C_15
REMARK    3  A    between atoms: N_4  and  C_11
REMARK    4  A    between atoms: C_14  and  C_15
REMARK    5  A    between atoms: C_22  and  C_23
REMARK                            x       y       z     vdW  Elec       q    Type
REMARK                         _______ _______ _______ _____ _____    ______ ____
ROOT
ATOM      1  O   UNL     1      13.487   9.062  20.888  0.00  0.00    -0.370 OA
ATOM      2  O   UNL     1      11.992   7.208  18.866  0.00  0.00    -0.370 OA
ATOM      8  C   UNL     1      13.361   7.304  19.291  0.00  0.00    +0.168 C 
ATOM      9  C   UNL     1      13.673   8.774  19.489  0.00  0.00    +0.175 C 
ATOM     10  C   UNL     1      13.528   6.700  20.667  0.00  0.00    +0.111 C 
ATOM     11  C   UNL     1      12.625   9.502  18.665  0.00  0.00    +0.166 C 
ATOM     12  C   UNL     1      13.138   7.852  21.575  0.00  0.00    +0.181 C 
ATOM     13  C   UNL     1      11.452   8.529  18.712  0.00  0.00    +0.189 C 
ENDROOT
BRANCH  11   4
ATOM      4  N   UNL     1      13.145   9.833  17.278  0.00  0.00    -0.243 N 
ATOM      5  N   UNL     1      12.500   9.398  16.183  0.00  0.00    -0.065 NA
ATOM      6  N   UNL     1      13.178   9.837  15.128  0.00  0.00    -0.128 NA
ATOM     21  C   UNL     1      14.249  10.560  16.955  0.00  0.00    +0.140 A 
ATOM     22  C   UNL     1      14.252  10.549  15.583  0.00  0.00    +0.131 A 
BRANCH  22  23
ATOM      7  N   UNL     1      14.909  11.247  13.434  0.00  0.00    -0.253 NA
ATOM     23  C   UNL     1      15.221  11.183  14.748  0.00  0.00    +0.092 A 
ATOM     24  C   UNL     1      16.393  11.683  15.292  0.00  0.00    +0.030 A 
ATOM     25  C   UNL     1      17.303  12.290  14.433  0.00  0.00    +0.004 A 
ATOM     26  C   UNL     1      15.818  11.843  12.629  0.00  0.00    +0.111 A 
ATOM     27  C   UNL     1      17.017  12.376  13.075  0.00  0.00    +0.020 A 
ENDBRANCH  22  23
ENDBRANCH  11   4
BRANCH  10   3
ATOM      3  N   UNL     1      14.892   6.292  20.896  0.00  0.00    -0.309 NA
ATOM     28  H   UNL     1      15.312   6.866  21.627  0.00  0.00    +0.122 HD
BRANCH   3  15
ATOM     15  C   UNL     1      15.687   6.420  19.684  0.00  0.00    +0.084 C 
BRANCH  15  14
ATOM     14  C   UNL     1      17.046   7.045  19.988  0.00  0.00    +0.003 C 
ATOM     16  C   UNL     1      16.965   7.942  21.231  0.00  0.00    +0.005 C 
ATOM     17  C   UNL     1      18.114   5.958  20.168  0.00  0.00    +0.005 C 
ATOM     18  C   UNL     1      18.326   8.539  21.586  0.00  0.00    +0.000 C 
ATOM     19  C   UNL     1      19.474   6.557  20.525  0.00  0.00    +0.000 C 
ATOM     20  C   UNL     1      19.387   7.455  21.756  0.00  0.00    +0.000 C 
ENDBRANCH  15  14
ENDBRANCH   3  15
ENDBRANCH  10   3
TORSDOF 5
ENDMDL
MODEL 2
REMARK VINA RESULT:      -7.4     29.106     32.932
REMARK  Name = 40533380
REMARK  5 active torsions:
REMARK  status: ('A' for Active; 'I' for Inactive)
REMARK    1  A    between atoms: N_3  and  C_10
REMARK    2  A    between atoms: N_3  and  C_15
REMARK    3  A    between atoms: N_4  and  C_11
REMARK    4  A    between atoms: C_14  and  C_15
REMARK    5  A    between atoms: C_22  and  C_23
REMARK                            x       y       z     vdW  Elec       q    Type
REMARK                         _______ _______ _______ _____ _____    ______ ____
ROOT
ATOM      1  O   UNL     1     -16.406   2.868  23.160  0.00  0.00    -0.370 OA
ATOM      2  O   UNL     1     -17.625   4.740  25.344  0.00  0.00    -0.370 OA
ATOM      8  C   UNL     1     -16.282   4.340  25.024  0.00  0.00    +0.168 C 
ATOM      9  C   UNL     1     -16.331   2.886  24.597  0.00  0.00    +0.175 C 
ATOM     10  C   UNL     1     -15.795   5.071  23.795  0.00  0.00    +0.111 C 
ATOM     11  C   UNL     1     -17.626   2.357  25.191  0.00  0.00    +0.166 C 
ATOM     12  C   UNL     1     -16.346   4.215  22.669  0.00  0.00    +0.181 C 
ATOM     13  C   UNL     1     -18.498   3.608  25.218  0.00  0.00    +0.189 C 
ENDROOT
BRANCH  11   4
ATOM      4  N   UNL     1     -17.387   1.696  26.537  0.00  0.00    -0.243 N 
ATOM      5  N   UNL     1     -18.063   0.589  26.886  0.00  0.00    -0.065 NA
ATOM      6  N   UNL     1     -17.650   0.243  28.100  0.00  0.00    -0.128 NA
ATOM     21  C   UNL     1     -16.526   2.088  27.515  0.00  0.00    +0.140 A 
ATOM     22  C   UNL     1     -16.710   1.150  28.499  0.00  0.00    +0.131 A 
BRANCH  22  23
ATOM      7  N   UNL     1     -15.696  -0.114  30.206  0.00  0.00    -0.253 NA
ATOM     23  C   UNL     1     -16.028   1.116  29.753  0.00  0.00    +0.092 A 
ATOM     24  C   UNL     1     -15.746   2.293  30.429  0.00  0.00    +0.030 A 
ATOM     25  C   UNL     1     -15.081   2.202  31.646  0.00  0.00    +0.004 A 
ATOM     26  C   UNL     1     -15.051  -0.163  31.393  0.00  0.00    +0.111 A 
ATOM     27  C   UNL     1     -14.723   0.954  32.144  0.00  0.00    +0.020 A 
ENDBRANCH  22  23
ENDBRANCH  11   4
BRANCH  10   3
ATOM      3  N   UNL     1     -14.354   5.123  23.754  0.00  0.00    -0.309 NA
ATOM     28  H   UNL     1     -14.025   6.018  24.115  0.00  0.00    +0.122 HD
BRANCH   3  15
ATOM     15  C   UNL     1     -13.863   4.956  22.395  0.00  0.00    +0.084 C 
BRANCH  15  14
ATOM     14  C   UNL     1     -13.462   6.300  21.791  0.00  0.00    +0.003 C 
ATOM     16  C   UNL     1     -12.043   6.232  21.212  0.00  0.00    +0.005 C 
ATOM     17  C   UNL     1     -14.470   6.733  20.718  0.00  0.00    +0.005 C 
ATOM     18  C   UNL     1     -11.639   7.551  20.555  0.00  0.00    +0.000 C 
ATOM     19  C   UNL     1     -14.063   8.051  20.061  0.00  0.00    +0.000 C 
ATOM     20  C   UNL     1     -12.647   7.982  19.494  0.00  0.00    +0.000 C 
ENDBRANCH  15  14
ENDBRANCH   3  15
ENDBRANCH  10   3
TORSDOF 5
ENDMDL
MODEL 3
REMARK VINA RESULT:      -7.4      3.799      5.747
REMARK  Name = 40533380
REMARK  5 active torsions:
REMARK  status: ('A' for Active; 'I' for Inactive)
REMARK    1  A    between atoms: N_3  and  C_10
REMARK    2  A    between atoms: N_3  and  C_15
REMARK    3  A    between atoms: N_4  and  C_11
REMARK    4  A    between atoms: C_14  and  C_15
REMARK    5  A    between atoms: C_22  and  C_23
REMARK                            x       y       z     vdW  Elec       q    Type
REMARK                         _______ _______ _______ _____ _____    ______ ____
ROOT
ATOM      1  O   UNL     1      10.497   7.495  20.821  0.00  0.00    -0.370 OA
ATOM      2  O   UNL     1      13.485   8.195  21.410  0.00  0.00    -0.370 OA
ATOM      8  C   UNL     1      12.308   8.991  21.195  0.00  0.00    +0.168 C 
ATOM      9  C   UNL     1      11.477   8.297  20.135  0.00  0.00    +0.175 C 
ATOM     10  C   UNL     1      11.430   8.973  22.425  0.00  0.00    +0.111 C 
ATOM     11  C   UNL     1      12.462   7.400  19.404  0.00  0.00    +0.166 C 
ATOM     12  C   UNL     1      10.632   7.696  22.235  0.00  0.00    +0.181 C 
ATOM     13  C   UNL     1      13.479   7.088  20.496  0.00  0.00    +0.189 C 
ENDROOT
BRANCH  11   4
ATOM      4  N   UNL     1      13.018   8.083  18.167  0.00  0.00    -0.243 N 
ATOM      5  N   UNL     1      13.184   7.399  17.023  0.00  0.00    -0.065 NA
ATOM      6  N   UNL     1      13.679   8.245  16.127  0.00  0.00    -0.128 NA
ATOM     21  C   UNL     1      13.400   9.382  18.035  0.00  0.00    +0.140 A 
ATOM     22  C   UNL     1      13.818   9.464  16.731  0.00  0.00    +0.131 A 
BRANCH  22  23
ATOM      7  N   UNL     1      13.877  10.852  14.832  0.00  0.00    -0.253 NA
ATOM     23  C   UNL     1      14.322  10.636  16.091  0.00  0.00    +0.092 A 
ATOM     24  C   UNL     1      15.209  11.469  16.754  0.00  0.00    +0.030 A 
ATOM     25  C   UNL     1      15.668  12.597  16.083  0.00  0.00    +0.004 A 
ATOM     26  C   UNL     1      14.346  11.959  14.211  0.00  0.00    +0.111 A 
ATOM     27  C   UNL     1      15.233  12.853  14.788  0.00  0.00    +0.020 A 
ENDBRANCH  22  23
ENDBRANCH  11   4
BRANCH  10   3
ATOM      3  N   UNL     1      10.566  10.128  22.468  0.00  0.00    -0.309 NA
ATOM     28  H   UNL     1      10.020  10.188  21.609  0.00  0.00    +0.122 HD
BRANCH   3  15
ATOM     15  C   UNL     1      11.337  11.352  22.622  0.00  0.00    +0.084 C 
BRANCH  15  14
ATOM     14  C   UNL     1      10.597  12.354  23.505  0.00  0.00    +0.003 C 
ATOM     16  C   UNL     1      11.289  12.488  24.869  0.00  0.00    +0.005 C 
ATOM     17  C   UNL     1      10.494  13.717  22.809  0.00  0.00    +0.005 C 
ATOM     18  C   UNL     1      10.597  13.525  25.752  0.00  0.00    +0.000 C 
ATOM     19  C   UNL     1       9.804  14.752  23.695  0.00  0.00    +0.000 C 
ATOM     20  C   UNL     1      10.489  14.877  25.053  0.00  0.00    +0.000 C 
ENDBRANCH  15  14
ENDBRANCH   3  15
ENDBRANCH  10   3
TORSDOF 5
ENDMDL
MODEL 4
REMARK VINA RESULT:      -7.4     28.792     32.612
REMARK  Name = 40533380
REMARK  5 active torsions:
REMARK  status: ('A' for Active; 'I' for Inactive)
REMARK    1  A    between atoms: N_3  and  C_10
REMARK    2  A    between atoms: N_3  and  C_15
REMARK    3  A    between atoms: N_4  and  C_11
REMARK    4  A    between atoms: C_14  and  C_15
REMARK    5  A    between atoms: C_22  and  C_23
REMARK                            x       y       z     vdW  Elec       q    Type
REMARK                         _______ _______ _______ _____ _____    ______ ____
ROOT
ATOM      1  O   UNL     1     -16.124   2.721  23.662  0.00  0.00    -0.370 OA
ATOM      2  O   UNL     1     -17.609   4.561  25.703  0.00  0.00    -0.370 OA
ATOM      8  C   UNL     1     -16.233   4.433  25.309  0.00  0.00    +0.168 C 
ATOM      9  C   UNL     1     -15.964   2.960  25.073  0.00  0.00    +0.175 C 
ATOM     10  C   UNL     1     -16.013   5.072  23.957  0.00  0.00    +0.111 C 
ATOM     11  C   UNL     1     -17.056   2.243  25.848  0.00  0.00    +0.166 C 
ATOM     12  C   UNL     1     -16.416   3.961  23.004  0.00  0.00    +0.181 C 
ATOM     13  C   UNL     1     -18.195   3.255  25.803  0.00  0.00    +0.189 C 
ENDROOT
BRANCH  11   4
ATOM      4  N   UNL     1     -16.582   1.853  27.237  0.00  0.00    -0.243 N 
ATOM      5  N   UNL     1     -16.730   0.594  27.683  0.00  0.00    -0.065 NA
ATOM      6  N   UNL     1     -16.229   0.551  28.912  0.00  0.00    -0.128 NA
ATOM     21  C   UNL     1     -15.984   2.647  28.166  0.00  0.00    +0.140 A 
ATOM     22  C   UNL     1     -15.769   1.800  29.223  0.00  0.00    +0.131 A 
BRANCH  22  23
ATOM      7  N   UNL     1     -14.634   3.401  30.522  0.00  0.00    -0.253 NA
ATOM     23  C   UNL     1     -15.159   2.156  30.464  0.00  0.00    +0.092 A 
ATOM     24  C   UNL     1     -15.127   1.252  31.513  0.00  0.00    +0.030 A 
ATOM     25  C   UNL     1     -14.520   1.651  32.699  0.00  0.00    +0.004 A 
ATOM     26  C   UNL     1     -14.051   3.754  31.690  0.00  0.00    +0.111 A 
ATOM     27  C   UNL     1     -13.969   2.924  32.797  0.00  0.00    +0.020 A 
ENDBRANCH  22  23
ENDBRANCH  11   4
BRANCH  10   3
ATOM      3  N   UNL     1     -14.631   5.442  23.773  0.00  0.00    -0.309 NA
ATOM     28  H   UNL     1     -14.509   6.440  23.947  0.00  0.00    +0.122 HD
BRANCH   3  15
ATOM     15  C   UNL     1     -14.185   5.143  22.421  0.00  0.00    +0.084 C 
BRANCH  15  14
ATOM     14  C   UNL     1     -13.638   6.395  21.738  0.00  0.00    +0.003 C 
ATOM     16  C   UNL     1     -12.201   6.163  21.252  0.00  0.00    +0.005 C 
ATOM     17  C   UNL     1     -14.546   6.819  20.576  0.00  0.00    +0.005 C 
ATOM     18  C   UNL     1     -11.650   7.384  20.519  0.00  0.00    +0.000 C 
ATOM     19  C   UNL     1     -13.991   8.039  19.843  0.00  0.00    +0.000 C 
ATOM     20  C   UNL     1     -12.559   7.808  19.369  0.00  0.00    +0.000 C 
ENDBRANCH  15  14
ENDBRANCH   3  15
ENDBRANCH  10   3
TORSDOF 5
ENDMDL
MODEL 5
REMARK VINA RESULT:      -7.3      3.881      6.988
REMARK  Name = 40533380
REMARK  5 active torsions:
REMARK  status: ('A' for Active; 'I' for Inactive)
REMARK    1  A    between atoms: N_3  and  C_10
REMARK    2  A    between atoms: N_3  and  C_15
REMARK    3  A    between atoms: N_4  and  C_11
REMARK    4  A    between atoms: C_14  and  C_15
REMARK    5  A    between atoms: C_22  and  C_23
REMARK                            x       y       z     vdW  Elec       q    Type
REMARK                         _______ _______ _______ _____ _____    ______ ____
ROOT
ATOM      1  O   UNL     1      12.790   9.734  19.952  0.00  0.00    -0.370 OA
ATOM      2  O   UNL     1      12.158   6.679  19.799  0.00  0.00    -0.370 OA
ATOM      8  C   UNL     1      12.612   7.541  20.855  0.00  0.00    +0.168 C 
ATOM      9  C   UNL     1      13.560   8.552  20.239  0.00  0.00    +0.175 C 
ATOM     10  C   UNL     1      11.468   8.377  21.379  0.00  0.00    +0.111 C 
ATOM     11  C   UNL     1      14.021   7.905  18.944  0.00  0.00    +0.166 C 
ATOM     12  C   UNL     1      11.443   9.540  20.405  0.00  0.00    +0.181 C 
ATOM     13  C   UNL     1      12.821   7.038  18.577  0.00  0.00    +0.189 C 
ENDROOT
BRANCH  11   4
ATOM      4  N   UNL     1      15.331   7.162  19.133  0.00  0.00    -0.243 N 
ATOM      5  N   UNL     1      15.667   6.148  18.319  0.00  0.00    -0.065 NA
ATOM      6  N   UNL     1      16.851   5.698  18.720  0.00  0.00    -0.128 NA
ATOM     21  C   UNL     1      16.287   7.388  20.075  0.00  0.00    +0.140 A 
ATOM     22  C   UNL     1      17.244   6.446  19.795  0.00  0.00    +0.131 A 
BRANCH  22  23
ATOM      7  N   UNL     1      19.283   5.295  20.035  0.00  0.00    -0.253 NA
ATOM     23  C   UNL     1      18.467   6.265  20.507  0.00  0.00    +0.092 A 
ATOM     24  C   UNL     1      18.759   7.055  21.608  0.00  0.00    +0.030 A 
ATOM     25  C   UNL     1      19.965   6.836  22.265  0.00  0.00    +0.004 A 
ATOM     26  C   UNL     1      20.446   5.111  20.700  0.00  0.00    +0.111 A 
ATOM     27  C   UNL     1      20.829   5.848  21.809  0.00  0.00    +0.020 A 
ENDBRANCH  22  23
ENDBRANCH  11   4
BRANCH  10   3
ATOM      3  N   UNL     1      11.724   8.828  22.725  0.00  0.00    -0.309 NA
ATOM     28  H   UNL     1      11.499   8.089  23.391  0.00  0.00    +0.122 HD
BRANCH   3  15
ATOM     15  C   UNL     1      10.930  10.005  23.042  0.00  0.00    +0.084 C 
BRANCH  15  14
ATOM     14  C   UNL     1      11.745  11.011  23.850  0.00  0.00    +0.003 C 
ATOM     16  C   UNL     1      12.649  11.842  22.929  0.00  0.00    +0.005 C 
ATOM     17  C   UNL     1      10.823  11.919  24.674  0.00  0.00    +0.005 C 
ATOM     18  C   UNL     1      13.437  12.892  23.709  0.00  0.00    +0.000 C 
ATOM     19  C   UNL     1      11.613  12.970  25.451  0.00  0.00    +0.000 C 
ATOM     20  C   UNL     1      12.516  13.788  24.533  0.00  0.00    +0.000 C 
ENDBRANCH  15  14
ENDBRANCH   3  15
ENDBRANCH  10   3
TORSDOF 5
ENDMDL
MODEL 6
REMARK VINA RESULT:      -6.9     26.560     29.538
REMARK  Name = 40533380
REMARK  5 active torsions:
REMARK  status: ('A' for Active; 'I' for Inactive)
REMARK    1  A    between atoms: N_3  and  C_10
REMARK    2  A    between atoms: N_3  and  C_15
REMARK    3  A    between atoms: N_4  and  C_11
REMARK    4  A    between atoms: C_14  and  C_15
REMARK    5  A    between atoms: C_22  and  C_23
REMARK                            x       y       z     vdW  Elec       q    Type
REMARK                         _______ _______ _______ _____ _____    ______ ____
ROOT
ATOM      1  O   UNL     1      -2.194 -10.751  16.350  0.00  0.00    -0.370 OA
ATOM      2  O   UNL     1      -4.314 -12.592  14.981  0.00  0.00    -0.370 OA
ATOM      8  C   UNL     1      -3.816 -11.276  14.692  0.00  0.00    +0.168 C 
ATOM      9  C   UNL     1      -3.584 -10.577  16.016  0.00  0.00    +0.175 C 
ATOM     10  C   UNL     1      -2.441 -11.360  14.070  0.00  0.00    +0.111 C 
ATOM     11  C   UNL     1      -4.454 -11.334  17.005  0.00  0.00    +0.166 C 
ATOM     12  C   UNL     1      -1.541 -11.460  15.288  0.00  0.00    +0.181 C 
ATOM     13  C   UNL     1      -4.481 -12.733  16.400  0.00  0.00    +0.189 C 
ENDROOT
BRANCH  11   4
ATOM      4  N   UNL     1      -5.808 -10.667  17.174  0.00  0.00    -0.243 N 
ATOM      5  N   UNL     1      -6.089  -9.519  16.536  0.00  0.00    -0.065 NA
ATOM      6  N   UNL     1      -7.329  -9.178  16.870  0.00  0.00    -0.128 NA
ATOM     21  C   UNL     1      -6.856 -11.092  17.930  0.00  0.00    +0.140 A 
ATOM     22  C   UNL     1      -7.812 -10.130  17.724  0.00  0.00    +0.131 A 
BRANCH  22  23
ATOM      7  N   UNL     1      -9.248 -10.796  19.465  0.00  0.00    -0.253 NA
ATOM     23  C   UNL     1      -9.116 -10.116  18.304  0.00  0.00    +0.092 A 
ATOM     24  C   UNL     1     -10.151  -9.437  17.681  0.00  0.00    +0.030 A 
ATOM     25  C   UNL     1     -11.402  -9.455  18.290  0.00  0.00    +0.004 A 
ATOM     26  C   UNL     1     -10.478 -10.792  20.027  0.00  0.00    +0.111 A 
ATOM     27  C   UNL     1     -11.576 -10.144  19.485  0.00  0.00    +0.020 A 
ENDBRANCH  22  23
ENDBRANCH  11   4
BRANCH  10   3
ATOM      3  N   UNL     1      -2.144 -10.178  13.297  0.00  0.00    -0.309 NA
ATOM     28  H   UNL     1      -2.915  -9.514  13.363  0.00  0.00    +0.122 HD
BRANCH   3  15
ATOM     15  C   UNL     1      -1.929 -10.511  11.897  0.00  0.00    +0.084 C 
BRANCH  15  14
ATOM     14  C   UNL     1      -3.205 -10.304  11.085  0.00  0.00    +0.003 C 
ATOM     16  C   UNL     1      -3.043  -9.130  10.110  0.00  0.00    +0.005 C 
ATOM     17  C   UNL     1      -3.585 -11.588  10.337  0.00  0.00    +0.005 C 
ATOM     18  C   UNL     1      -4.290  -8.936   9.249  0.00  0.00    +0.000 C 
ATOM     19  C   UNL     1      -4.831 -11.391   9.475  0.00  0.00    +0.000 C 
ATOM     20  C   UNL     1      -4.669 -10.218   8.512  0.00  0.00    +0.000 C 
ENDBRANCH  15  14
ENDBRANCH   3  15
ENDBRANCH  10   3
TORSDOF 5
ENDMDL
MODEL 7
REMARK VINA RESULT:      -6.9     27.496     31.370
REMARK  Name = 40533380
REMARK  5 active torsions:
REMARK  status: ('A' for Active; 'I' for Inactive)
REMARK    1  A    between atoms: N_3  and  C_10
REMARK    2  A    between atoms: N_3  and  C_15
REMARK    3  A    between atoms: N_4  and  C_11
REMARK    4  A    between atoms: C_14  and  C_15
REMARK    5  A    between atoms: C_22  and  C_23
REMARK                            x       y       z     vdW  Elec       q    Type
REMARK                         _______ _______ _______ _____ _____    ______ ____
ROOT
ATOM      1  O   UNL     1     -15.862   5.327  20.696  0.00  0.00    -0.370 OA
ATOM      2  O   UNL     1     -15.743   6.947  23.365  0.00  0.00    -0.370 OA
ATOM      8  C   UNL     1     -14.778   6.168  22.640  0.00  0.00    +0.168 C 
ATOM      9  C   UNL     1     -15.508   4.978  22.048  0.00  0.00    +0.175 C 
ATOM     10  C   UNL     1     -14.282   6.935  21.436  0.00  0.00    +0.111 C 
ATOM     11  C   UNL     1     -16.763   4.840  22.894  0.00  0.00    +0.166 C 
ATOM     12  C   UNL     1     -15.346   6.632  20.397  0.00  0.00    +0.181 C 
ATOM     13  C   UNL     1     -17.013   6.280  23.328  0.00  0.00    +0.189 C 
ENDROOT
BRANCH  11   4
ATOM      4  N   UNL     1     -16.562   3.842  24.020  0.00  0.00    -0.243 N 
ATOM      5  N   UNL     1     -16.356   2.541  23.753  0.00  0.00    -0.065 NA
ATOM      6  N   UNL     1     -16.216   1.919  24.918  0.00  0.00    -0.128 NA
ATOM     21  C   UNL     1     -16.559   4.086  25.358  0.00  0.00    +0.140 A 
ATOM     22  C   UNL     1     -16.338   2.850  25.911  0.00  0.00    +0.131 A 
BRANCH  22  23
ATOM      7  N   UNL     1     -15.884   3.607  28.092  0.00  0.00    -0.253 NA
ATOM     23  C   UNL     1     -16.247   2.568  27.307  0.00  0.00    +0.092 A 
ATOM     24  C   UNL     1     -16.521   1.296  27.783  0.00  0.00    +0.030 A 
ATOM     25  C   UNL     1     -16.416   1.075  29.152  0.00  0.00    +0.004 A 
ATOM     26  C   UNL     1     -15.792   3.355  29.418  0.00  0.00    +0.111 A 
ATOM     27  C   UNL     1     -16.045   2.120  29.991  0.00  0.00    +0.020 A 
ENDBRANCH  22  23
ENDBRANCH  11   4
BRANCH  10   3
ATOM      3  N   UNL     1     -12.987   6.461  21.012  0.00  0.00    -0.309 NA
ATOM     28  H   UNL     1     -12.704   5.661  21.578  0.00  0.00    +0.122 HD
BRANCH   3  15
ATOM     15  C   UNL     1     -11.981   7.505  21.137  0.00  0.00    +0.084 C 
BRANCH  15  14
ATOM     14  C   UNL     1     -11.791   8.240  19.812  0.00  0.00    +0.003 C 
ATOM     16  C   UNL     1     -10.776   9.380  19.966  0.00  0.00    +0.005 C 
ATOM     17  C   UNL     1     -11.356   7.266  18.710  0.00  0.00    +0.005 C 
ATOM     18  C   UNL     1     -10.529  10.098  18.641  0.00  0.00    +0.000 C 
ATOM     19  C   UNL     1     -11.108   7.987  17.386  0.00  0.00    +0.000 C 
ATOM     20  C   UNL     1     -10.104   9.125  17.545  0.00  0.00    +0.000 C 
ENDBRANCH  15  14
ENDBRANCH   3  15
ENDBRANCH  10   3
TORSDOF 5
ENDMDL
MODEL 8
REMARK VINA RESULT:      -6.9     26.705     29.089
REMARK  Name = 40533380
REMARK  5 active torsions:
REMARK  status: ('A' for Active; 'I' for Inactive)
REMARK    1  A    between atoms: N_3  and  C_10
REMARK    2  A    between atoms: N_3  and  C_15
REMARK    3  A    between atoms: N_4  and  C_11
REMARK    4  A    between atoms: C_14  and  C_15
REMARK    5  A    between atoms: C_22  and  C_23
REMARK                            x       y       z     vdW  Elec       q    Type
REMARK                         _______ _______ _______ _____ _____    ______ ____
ROOT
ATOM      1  O   UNL     1      -2.494 -10.318  16.364  0.00  0.00    -0.370 OA
ATOM      2  O   UNL     1      -4.398 -12.697  15.672  0.00  0.00    -0.370 OA
ATOM      8  C   UNL     1      -4.108 -11.445  15.029  0.00  0.00    +0.168 C 
ATOM      9  C   UNL     1      -3.910 -10.410  16.119  0.00  0.00    +0.175 C 
ATOM     10  C   UNL     1      -2.769 -11.510  14.331  0.00  0.00    +0.111 C 
ATOM     11  C   UNL     1      -4.610 -10.995  17.333  0.00  0.00    +0.166 C 
ATOM     12  C   UNL     1      -1.802 -11.186  15.455  0.00  0.00    +0.181 C 
ATOM     13  C   UNL     1      -4.469 -12.494  17.091  0.00  0.00    +0.189 C 
ENDROOT
BRANCH  11   4
ATOM      4  N   UNL     1      -6.035 -10.482  17.450  0.00  0.00    -0.243 N 
ATOM      5  N   UNL     1      -6.776 -10.760  18.535  0.00  0.00    -0.065 NA
ATOM      6  N   UNL     1      -7.961 -10.187  18.358  0.00  0.00    -0.128 NA
ATOM     21  C   UNL     1      -6.723  -9.727  16.551  0.00  0.00    +0.140 A 
ATOM     22  C   UNL     1      -7.946  -9.551  17.148  0.00  0.00    +0.131 A 
BRANCH  22  23
ATOM      7  N   UNL     1      -9.293  -9.034  15.289  0.00  0.00    -0.253 NA
ATOM     23  C   UNL     1      -9.041  -8.818  16.600  0.00  0.00    +0.092 A 
ATOM     24  C   UNL     1      -9.771  -7.952  17.398  0.00  0.00    +0.030 A 
ATOM     25  C   UNL     1     -10.828  -7.263  16.813  0.00  0.00    +0.004 A 
ATOM     26  C   UNL     1     -10.327  -8.346  14.755  0.00  0.00    +0.111 A 
ATOM     27  C   UNL     1     -11.118  -7.458  15.467  0.00  0.00    +0.020 A 
ENDBRANCH  22  23
ENDBRANCH  11   4
BRANCH  10   3
ATOM      3  N   UNL     1      -2.684 -10.535  13.271  0.00  0.00    -0.309 NA
ATOM     28  H   UNL     1      -3.466  -9.883  13.331  0.00  0.00    +0.122 HD
BRANCH   3  15
ATOM     15  C   UNL     1      -2.707 -11.179  11.966  0.00  0.00    +0.084 C 
BRANCH  15  14
ATOM     14  C   UNL     1      -3.755 -10.536  11.061  0.00  0.00    +0.003 C 
ATOM     16  C   UNL     1      -4.873  -9.895  11.894  0.00  0.00    +0.005 C 
ATOM     17  C   UNL     1      -3.106  -9.502  10.131  0.00  0.00    +0.005 C 
ATOM     18  C   UNL     1      -5.907  -9.199  11.011  0.00  0.00    +0.000 C 
ATOM     19  C   UNL     1      -4.143  -8.806   9.250  0.00  0.00    +0.000 C 
ATOM     20  C   UNL     1      -5.257  -8.178  10.083  0.00  0.00    +0.000 C 
ENDBRANCH  15  14
ENDBRANCH   3  15
ENDBRANCH  10   3
TORSDOF 5
ENDMDL
MODEL 9
REMARK VINA RESULT:      -6.7     26.878     29.751
REMARK  Name = 40533380
REMARK  5 active torsions:
REMARK  status: ('A' for Active; 'I' for Inactive)
REMARK    1  A    between atoms: N_3  and  C_10
REMARK    2  A    between atoms: N_3  and  C_15
REMARK    3  A    between atoms: N_4  and  C_11
REMARK    4  A    between atoms: C_14  and  C_15
REMARK    5  A    between atoms: C_22  and  C_23
REMARK                            x       y       z     vdW  Elec       q    Type
REMARK                         _______ _______ _______ _____ _____    ______ ____
ROOT
ATOM      1  O   UNL     1      -8.216 -12.538  17.861  0.00  0.00    -0.370 OA
ATOM      2  O   UNL     1      -6.539 -10.311  19.271  0.00  0.00    -0.370 OA
ATOM      8  C   UNL     1      -7.466 -10.303  18.173  0.00  0.00    +0.168 C 
ATOM      9  C   UNL     1      -7.250 -11.581  17.387  0.00  0.00    +0.175 C 
ATOM     10  C   UNL     1      -8.885 -10.415  18.681  0.00  0.00    +0.111 C 
ATOM     11  C   UNL     1      -5.848 -12.029  17.764  0.00  0.00    +0.166 C 
ATOM     12  C   UNL     1      -9.052 -11.915  18.845  0.00  0.00    +0.181 C 
ATOM     13  C   UNL     1      -5.707 -11.476  19.178  0.00  0.00    +0.189 C 
ENDROOT
BRANCH  11   4
ATOM      4  N   UNL     1      -4.821 -11.533  16.762  0.00  0.00    -0.243 N 
ATOM      5  N   UNL     1      -3.594 -11.163  17.164  0.00  0.00    -0.065 NA
ATOM      6  N   UNL     1      -2.925 -10.780  16.082  0.00  0.00    -0.128 NA
ATOM     21  C   UNL     1      -4.970 -11.398  15.416  0.00  0.00    +0.140 A 
ATOM     22  C   UNL     1      -3.753 -10.917  15.004  0.00  0.00    +0.131 A 
BRANCH  22  23
ATOM      7  N   UNL     1      -4.425 -10.349  12.821  0.00  0.00    -0.253 NA
ATOM     23  C   UNL     1      -3.394 -10.606  13.658  0.00  0.00    +0.092 A 
ATOM     24  C   UNL     1      -2.063 -10.581  13.277  0.00  0.00    +0.030 A 
ATOM     25  C   UNL     1      -1.769 -10.271  11.953  0.00  0.00    +0.004 A 
ATOM     26  C   UNL     1      -4.102 -10.053  11.542  0.00  0.00    +0.111 A 
ATOM     27  C   UNL     1      -2.803 -10.001  11.063  0.00  0.00    +0.020 A 
ENDBRANCH  22  23
ENDBRANCH  11   4
BRANCH  10   3
ATOM      3  N   UNL     1      -9.826  -9.885  17.725  0.00  0.00    -0.309 NA
ATOM     28  H   UNL     1      -9.872 -10.491  16.906  0.00  0.00    +0.122 HD
BRANCH   3  15
ATOM     15  C   UNL     1      -9.441  -8.549  17.298  0.00  0.00    +0.084 C 
BRANCH  15  14
ATOM     14  C   UNL     1     -10.672  -7.695  17.003  0.00  0.00    +0.003 C 
ATOM     16  C   UNL     1     -10.393  -6.724  15.847  0.00  0.00    +0.005 C 
ATOM     17  C   UNL     1     -11.884  -8.582  16.691  0.00  0.00    +0.005 C 
ATOM     18  C   UNL     1     -11.627  -5.895  15.498  0.00  0.00    +0.000 C 
ATOM     19  C   UNL     1     -13.116  -7.751  16.339  0.00  0.00    +0.000 C 
ATOM     20  C   UNL     1     -12.833  -6.781  15.196  0.00  0.00    +0.000 C 
ENDBRANCH  15  14
ENDBRANCH   3  15
ENDBRANCH  10   3
TORSDOF 5
ENDMDL
MODEL 10
REMARK VINA RESULT:      -6.6     27.313     30.070
REMARK  Name = 40533380
REMARK  5 active torsions:
REMARK  status: ('A' for Active; 'I' for Inactive)
REMARK    1  A    between atoms: N_3  and  C_10
REMARK    2  A    between atoms: N_3  and  C_15
REMARK    3  A    between atoms: N_4  and  C_11
REMARK    4  A    between atoms: C_14  and  C_15
REMARK    5  A    between atoms: C_22  and  C_23
REMARK                            x       y       z     vdW  Elec       q    Type
REMARK                         _______ _______ _______ _____ _____    ______ ____
ROOT
ATOM      1  O   UNL     1      -3.824 -10.051  16.705  0.00  0.00    -0.370 OA
ATOM      2  O   UNL     1      -4.620 -12.992  17.397  0.00  0.00    -0.370 OA
ATOM      8  C   UNL     1      -5.001 -12.087  16.348  0.00  0.00    +0.168 C 
ATOM      9  C   UNL     1      -5.085 -10.700  16.954  0.00  0.00    +0.175 C 
ATOM     10  C   UNL     1      -3.897 -11.977  15.322  0.00  0.00    +0.111 C 
ATOM     11  C   UNL     1      -5.259 -10.943  18.443  0.00  0.00    +0.166 C 
ATOM     12  C   UNL     1      -2.988 -10.926  15.934  0.00  0.00    +0.181 C 
ATOM     13  C   UNL     1      -4.535 -12.271  18.635  0.00  0.00    +0.189 C 
ENDROOT
BRANCH  11   4
ATOM      4  N   UNL     1      -6.725 -10.933  18.837  0.00  0.00    -0.243 N 
ATOM      5  N   UNL     1      -7.146 -11.593  19.929  0.00  0.00    -0.065 NA
ATOM      6  N   UNL     1      -8.458 -11.407  20.020  0.00  0.00    -0.128 NA
ATOM     21  C   UNL     1      -7.753 -10.309  18.201  0.00  0.00    +0.140 A 
ATOM     22  C   UNL     1      -8.846 -10.623  18.969  0.00  0.00    +0.131 A 
BRANCH  22  23
ATOM      7  N   UNL     1     -11.124 -10.711  19.552  0.00  0.00    -0.253 NA
ATOM     23  C   UNL     1     -10.187 -10.202  18.720  0.00  0.00    +0.092 A 
ATOM     24  C   UNL     1     -10.464  -9.328  17.681  0.00  0.00    +0.030 A 
ATOM     25  C   UNL     1     -11.788  -8.951  17.484  0.00  0.00    +0.004 A 
ATOM     26  C   UNL     1     -12.400 -10.322  19.328  0.00  0.00    +0.111 A 
ATOM     27  C   UNL     1     -12.780  -9.453  18.319  0.00  0.00    +0.020 A 
ENDBRANCH  22  23
ENDBRANCH  11   4
BRANCH  10   3
ATOM      3  N   UNL     1      -4.411 -11.545  14.045  0.00  0.00    -0.309 NA
ATOM     28  H   UNL     1      -4.915 -12.307  13.594  0.00  0.00    +0.122 HD
BRANCH   3  15
ATOM     15  C   UNL     1      -3.334 -11.109  13.169  0.00  0.00    +0.084 C 
BRANCH  15  14
ATOM     14  C   UNL     1      -3.885 -10.608  11.836  0.00  0.00    +0.003 C 
ATOM     16  C   UNL     1      -5.179  -9.810  12.050  0.00  0.00    +0.005 C 
ATOM     17  C   UNL     1      -2.838  -9.762  11.100  0.00  0.00    +0.005 C 
ATOM     18  C   UNL     1      -5.722  -9.254  10.736  0.00  0.00    +0.000 C 
ATOM     19  C   UNL     1      -3.384  -9.205   9.787  0.00  0.00    +0.000 C 
ATOM     20  C   UNL     1      -4.675  -8.421  10.003  0.00  0.00    +0.000 C 
ENDBRANCH  15  14
ENDBRANCH   3  15
ENDBRANCH  10   3
TORSDOF 5
ENDMDL
