MODEL 1
REMARK VINA RESULT:      -6.9      0.000      0.000
REMARK  Name = 56775103
REMARK  5 active torsions:
REMARK  status: ('A' for Active; 'I' for Inactive)
REMARK    1  A    between atoms: N_4  and  C_11
REMARK    2  A    between atoms: N_5  and  C_14
REMARK    3  A    between atoms: N_6  and  C_20
REMARK    4  A    between atoms: C_11  and  C_15
REMARK    5  A    between atoms: C_21  and  C_22
REMARK                            x       y       z     vdW  Elec       q    Type
REMARK                         _______ _______ _______ _____ _____    ______ ____
ROOT
ATOM     11  C   UNL     1      14.748   6.502  20.343  0.00  0.00    +0.119 C 
ENDROOT
BRANCH  11   4
ATOM      1  O   UNL     1      11.389   8.004  18.229  0.00  0.00    -0.364 OA
ATOM      2  O   UNL     1      11.824   9.298  14.981  0.00  0.00    -0.273 OA
ATOM      4  N   UNL     1      14.219   7.783  19.903  0.00  0.00    -0.294 NA
ATOM      5  N   UNL     1      13.242   9.475  16.818  0.00  0.00    -0.296 N 
ATOM      7  C   UNL     1      13.485   9.201  18.232  0.00  0.00    +0.120 C 
ATOM      8  C   UNL     1      12.248   8.808  19.034  0.00  0.00    +0.154 C 
ATOM      9  C   UNL     1      14.411   8.013  18.471  0.00  0.00    +0.110 C 
ATOM     10  C   UNL     1      12.782   7.930  20.170  0.00  0.00    +0.118 C 
ATOM     12  C   UNL     1      10.926   8.723  17.111  0.00  0.00    +0.256 C 
ATOM     13  C   UNL     1      12.040   9.169  16.187  0.00  0.00    +0.241 C 
ATOM     14  C   UNL     1      14.358  10.005  16.045  0.00  0.00    +0.132 C 
ENDBRANCH  11   4
BRANCH  11  15
ATOM     15  C   UNL     1      16.254   6.497  20.368  0.00  0.00    -0.033 A 
ATOM     16  C   UNL     1      16.939   7.256  21.317  0.00  0.00    +0.007 A 
ATOM     17  C   UNL     1      16.965   5.733  19.442  0.00  0.00    +0.007 A 
ATOM     18  C   UNL     1      18.333   7.252  21.340  0.00  0.00    +0.023 A 
ATOM     19  C   UNL     1      18.359   5.729  19.465  0.00  0.00    +0.023 A 
ATOM     20  C   UNL     1      19.044   6.488  20.414  0.00  0.00    +0.033 A 
BRANCH  20   6
ATOM      3  O   UNL     1      20.962   5.337  22.429  0.00  0.00    -0.276 OA
ATOM      6  N   UNL     1      20.439   6.484  20.436  0.00  0.00    -0.286 N 
ATOM     21  C   UNL     1      21.286   5.931  21.406  0.00  0.00    +0.214 C 
ATOM     22  C   UNL     1      22.740   6.137  21.061  0.00  0.00    +0.109 C 
ATOM     23  H   UNL     1      20.888   6.941  19.646  0.00  0.00    +0.155 HD
ENDBRANCH  20   6
ENDBRANCH  11  15
TORSDOF 3
ENDMDL
MODEL 2
REMARK VINA RESULT:      -6.8      2.067      3.257
REMARK  Name = 56775103
REMARK  5 active torsions:
REMARK  status: ('A' for Active; 'I' for Inactive)
REMARK    1  A    between atoms: N_4  and  C_11
REMARK    2  A    between atoms: N_5  and  C_14
REMARK    3  A    between atoms: N_6  and  C_20
REMARK    4  A    between atoms: C_11  and  C_15
REMARK    5  A    between atoms: C_21  and  C_22
REMARK                            x       y       z     vdW  Elec       q    Type
REMARK                         _______ _______ _______ _____ _____    ______ ____
ROOT
ATOM     11  C   UNL     1      16.967   7.633  21.021  0.00  0.00    +0.119 C 
ENDROOT
BRANCH  11   4
ATOM      1  O   UNL     1      13.617   8.787  18.684  0.00  0.00    -0.364 OA
ATOM      2  O   UNL     1      10.380   8.521  20.050  0.00  0.00    -0.273 OA
ATOM      4  N   UNL     1      15.847   7.009  20.336  0.00  0.00    -0.294 NA
ATOM      5  N   UNL     1      12.196   7.093  20.329  0.00  0.00    -0.296 N 
ATOM      7  C   UNL     1      13.576   6.756  19.988  0.00  0.00    +0.120 C 
ATOM      8  C   UNL     1      14.124   7.455  18.748  0.00  0.00    +0.154 C 
ATOM      9  C   UNL     1      14.584   7.166  21.057  0.00  0.00    +0.110 C 
ATOM     10  C   UNL     1      15.634   7.540  18.983  0.00  0.00    +0.118 C 
ATOM     12  C   UNL     1      12.215   8.787  18.555  0.00  0.00    +0.256 C 
ATOM     13  C   UNL     1      11.508   8.145  19.731  0.00  0.00    +0.241 C 
ATOM     14  C   UNL     1      11.576   6.335  21.408  0.00  0.00    +0.132 C 
ENDBRANCH  11   4
BRANCH  11  15
ATOM     15  C   UNL     1      18.226   6.817  20.895  0.00  0.00    -0.033 A 
ATOM     16  C   UNL     1      18.268   5.730  20.022  0.00  0.00    +0.007 A 
ATOM     17  C   UNL     1      19.351   7.148  21.651  0.00  0.00    +0.007 A 
ATOM     18  C   UNL     1      19.434   4.974  19.905  0.00  0.00    +0.023 A 
ATOM     19  C   UNL     1      20.517   6.392  21.535  0.00  0.00    +0.023 A 
ATOM     20  C   UNL     1      20.558   5.304  20.661  0.00  0.00    +0.033 A 
BRANCH  20   6
ATOM      3  O   UNL     1      21.829   3.366  22.583  0.00  0.00    -0.276 OA
ATOM      6  N   UNL     1      21.725   4.548  20.546  0.00  0.00    -0.286 N 
ATOM     21  C   UNL     1      22.274   3.657  21.478  0.00  0.00    +0.214 C 
ATOM     22  C   UNL     1      23.552   3.035  20.973  0.00  0.00    +0.109 C 
ATOM     23  H   UNL     1      22.235   4.665  19.672  0.00  0.00    +0.155 HD
ENDBRANCH  20   6
ENDBRANCH  11  15
TORSDOF 3
ENDMDL
MODEL 3
REMARK VINA RESULT:      -6.5      1.877      2.593
REMARK  Name = 56775103
REMARK  5 active torsions:
REMARK  status: ('A' for Active; 'I' for Inactive)
REMARK    1  A    between atoms: N_4  and  C_11
REMARK    2  A    between atoms: N_5  and  C_14
REMARK    3  A    between atoms: N_6  and  C_20
REMARK    4  A    between atoms: C_11  and  C_15
REMARK    5  A    between atoms: C_21  and  C_22
REMARK                            x       y       z     vdW  Elec       q    Type
REMARK                         _______ _______ _______ _____ _____    ______ ____
ROOT
ATOM     11  C   UNL     1      16.846   6.320  19.563  0.00  0.00    +0.119 C 
ENDROOT
BRANCH  11   4
ATOM      1  O   UNL     1      12.862   6.689  20.980  0.00  0.00    -0.364 OA
ATOM      2  O   UNL     1      10.524   8.545  19.108  0.00  0.00    -0.273 OA
ATOM      4  N   UNL     1      15.979   7.340  20.131  0.00  0.00    -0.294 NA
ATOM      5  N   UNL     1      12.787   8.974  19.442  0.00  0.00    -0.296 N 
ATOM      7  C   UNL     1      14.041   8.598  20.091  0.00  0.00    +0.120 C 
ATOM      8  C   UNL     1      13.897   7.629  21.260  0.00  0.00    +0.154 C 
ATOM      9  C   UNL     1      15.000   7.850  19.171  0.00  0.00    +0.110 C 
ATOM     10  C   UNL     1      15.224   6.865  21.298  0.00  0.00    +0.118 C 
ATOM     12  C   UNL     1      11.618   7.335  20.842  0.00  0.00    +0.256 C 
ATOM     13  C   UNL     1      11.583   8.323  19.696  0.00  0.00    +0.241 C 
ATOM     14  C   UNL     1      12.853  10.015  18.425  0.00  0.00    +0.132 C 
ENDBRANCH  11   4
BRANCH  11  15
ATOM     15  C   UNL     1      18.217   6.340  20.186  0.00  0.00    -0.033 A 
ATOM     16  C   UNL     1      18.606   7.417  20.982  0.00  0.00    +0.007 A 
ATOM     17  C   UNL     1      19.098   5.281  19.968  0.00  0.00    +0.007 A 
ATOM     18  C   UNL     1      19.875   7.436  21.558  0.00  0.00    +0.023 A 
ATOM     19  C   UNL     1      20.368   5.299  20.544  0.00  0.00    +0.023 A 
ATOM     20  C   UNL     1      20.756   6.377  21.340  0.00  0.00    +0.033 A 
BRANCH  20   6
ATOM      3  O   UNL     1      21.871   4.819  23.662  0.00  0.00    -0.276 OA
ATOM      6  N   UNL     1      22.027   6.395  21.916  0.00  0.00    -0.286 N 
ATOM     21  C   UNL     1      22.494   5.645  23.004  0.00  0.00    +0.214 C 
ATOM     22  C   UNL     1      23.935   5.956  23.321  0.00  0.00    +0.109 C 
ATOM     23  H   UNL     1      22.691   7.036  21.486  0.00  0.00    +0.155 HD
ENDBRANCH  20   6
ENDBRANCH  11  15
TORSDOF 3
ENDMDL
MODEL 4
REMARK VINA RESULT:      -6.1      2.810      8.796
REMARK  Name = 56775103
REMARK  5 active torsions:
REMARK  status: ('A' for Active; 'I' for Inactive)
REMARK    1  A    between atoms: N_4  and  C_11
REMARK    2  A    between atoms: N_5  and  C_14
REMARK    3  A    between atoms: N_6  and  C_20
REMARK    4  A    between atoms: C_11  and  C_15
REMARK    5  A    between atoms: C_21  and  C_22
REMARK                            x       y       z     vdW  Elec       q    Type
REMARK                         _______ _______ _______ _____ _____    ______ ____
ROOT
ATOM     11  C   UNL     1      18.056   5.903  19.479  0.00  0.00    +0.119 C 
ENDROOT
BRANCH  11   4
ATOM      1  O   UNL     1      22.037   7.263  20.033  0.00  0.00    -0.364 OA
ATOM      2  O   UNL     1      24.634   4.911  20.408  0.00  0.00    -0.273 OA
ATOM      4  N   UNL     1      19.054   5.958  20.535  0.00  0.00    -0.294 NA
ATOM      5  N   UNL     1      22.453   4.807  21.211  0.00  0.00    -0.296 N 
ATOM      7  C   UNL     1      21.151   5.454  21.363  0.00  0.00    +0.120 C 
ATOM      8  C   UNL     1      21.144   6.957  21.102  0.00  0.00    +0.154 C 
ATOM      9  C   UNL     1      20.104   4.953  20.374  0.00  0.00    +0.110 C 
ATOM     10  C   UNL     1      19.722   7.263  20.625  0.00  0.00    +0.118 C 
ATOM     12  C   UNL     1      23.362   6.923  20.371  0.00  0.00    +0.256 C 
ATOM     13  C   UNL     1      23.549   5.445  20.638  0.00  0.00    +0.241 C 
ATOM     14  C   UNL     1      22.545   3.406  21.602  0.00  0.00    +0.132 C 
ENDBRANCH  11   4
BRANCH  11  15
ATOM     15  C   UNL     1      16.714   6.399  19.950  0.00  0.00    -0.033 A 
ATOM     16  C   UNL     1      15.702   6.657  19.025  0.00  0.00    +0.007 A 
ATOM     17  C   UNL     1      16.482   6.600  21.311  0.00  0.00    +0.007 A 
ATOM     18  C   UNL     1      14.460   7.117  19.461  0.00  0.00    +0.023 A 
ATOM     19  C   UNL     1      15.240   7.059  21.747  0.00  0.00    +0.023 A 
ATOM     20  C   UNL     1      14.228   7.317  20.821  0.00  0.00    +0.033 A 
BRANCH  20   6
ATOM      3  O   UNL     1      11.479   6.135  20.489  0.00  0.00    -0.276 OA
ATOM      6  N   UNL     1      12.985   7.777  21.258  0.00  0.00    -0.286 N 
ATOM     21  C   UNL     1      11.730   7.183  21.073  0.00  0.00    +0.214 C 
ATOM     22  C   UNL     1      10.627   7.999  21.701  0.00  0.00    +0.109 C 
ATOM     23  H   UNL     1      13.003   8.654  21.774  0.00  0.00    +0.155 HD
ENDBRANCH  20   6
ENDBRANCH  11  15
TORSDOF 3
ENDMDL
MODEL 5
REMARK VINA RESULT:      -6.1      2.467      9.773
REMARK  Name = 56775103
REMARK  5 active torsions:
REMARK  status: ('A' for Active; 'I' for Inactive)
REMARK    1  A    between atoms: N_4  and  C_11
REMARK    2  A    between atoms: N_5  and  C_14
REMARK    3  A    between atoms: N_6  and  C_20
REMARK    4  A    between atoms: C_11  and  C_15
REMARK    5  A    between atoms: C_21  and  C_22
REMARK                            x       y       z     vdW  Elec       q    Type
REMARK                         _______ _______ _______ _____ _____    ______ ____
ROOT
ATOM     11  C   UNL     1      20.284   6.468  20.579  0.00  0.00    +0.119 C 
ENDROOT
BRANCH  11   4
ATOM      1  O   UNL     1      23.593   5.578  23.083  0.00  0.00    -0.364 OA
ATOM      2  O   UNL     1      25.913   3.124  22.078  0.00  0.00    -0.273 OA
ATOM      4  N   UNL     1      20.745   5.388  21.436  0.00  0.00    -0.294 NA
ATOM      5  N   UNL     1      23.604   3.145  21.790  0.00  0.00    -0.296 N 
ATOM      7  C   UNL     1      22.327   3.812  22.031  0.00  0.00    +0.120 C 
ATOM      8  C   UNL     1      22.352   4.877  23.124  0.00  0.00    +0.154 C 
ATOM      9  C   UNL     1      21.816   4.600  20.829  0.00  0.00    +0.110 C 
ATOM     10  C   UNL     1      21.245   5.861  22.734  0.00  0.00    +0.118 C 
ATOM     12  C   UNL     1      24.671   4.711  23.347  0.00  0.00    +0.256 C 
ATOM     13  C   UNL     1      24.805   3.600  22.327  0.00  0.00    +0.241 C 
ATOM     14  C   UNL     1      23.598   2.015  20.870  0.00  0.00    +0.132 C 
ENDBRANCH  11   4
BRANCH  11  15
ATOM     15  C   UNL     1      18.785   6.467  20.433  0.00  0.00    -0.033 A 
ATOM     16  C   UNL     1      18.191   5.845  19.334  0.00  0.00    +0.007 A 
ATOM     17  C   UNL     1      17.989   7.088  21.396  0.00  0.00    +0.007 A 
ATOM     18  C   UNL     1      16.804   5.844  19.199  0.00  0.00    +0.023 A 
ATOM     19  C   UNL     1      16.601   7.087  21.261  0.00  0.00    +0.023 A 
ATOM     20  C   UNL     1      16.008   6.465  20.162  0.00  0.00    +0.033 A 
BRANCH  20   6
ATOM      3  O   UNL     1      14.210   8.177  18.458  0.00  0.00    -0.276 OA
ATOM      6  N   UNL     1      14.620   6.465  20.027  0.00  0.00    -0.286 N 
ATOM     21  C   UNL     1      13.830   7.291  19.215  0.00  0.00    +0.214 C 
ATOM     22  C   UNL     1      12.362   6.974  19.355  0.00  0.00    +0.109 C 
ATOM     23  H   UNL     1      14.128   5.777  20.593  0.00  0.00    +0.155 HD
ENDBRANCH  20   6
ENDBRANCH  11  15
TORSDOF 3
ENDMDL
MODEL 6
REMARK VINA RESULT:      -6.1     30.922     32.648
REMARK  Name = 56775103
REMARK  5 active torsions:
REMARK  status: ('A' for Active; 'I' for Inactive)
REMARK    1  A    between atoms: N_4  and  C_11
REMARK    2  A    between atoms: N_5  and  C_14
REMARK    3  A    between atoms: N_6  and  C_20
REMARK    4  A    between atoms: C_11  and  C_15
REMARK    5  A    between atoms: C_21  and  C_22
REMARK                            x       y       z     vdW  Elec       q    Type
REMARK                         _______ _______ _______ _____ _____    ______ ____
ROOT
ATOM     11  C   UNL     1     -14.912   5.788  32.553  0.00  0.00    +0.119 C 
ENDROOT
BRANCH  11   4
ATOM      1  O   UNL     1     -14.133   9.372  34.689  0.00  0.00    -0.364 OA
ATOM      2  O   UNL     1     -12.964  12.204  32.949  0.00  0.00    -0.273 OA
ATOM      4  N   UNL     1     -13.768   6.583  32.972  0.00  0.00    -0.294 NA
ATOM      5  N   UNL     1     -12.444   9.964  32.593  0.00  0.00    -0.296 N 
ATOM      7  C   UNL     1     -12.593   8.572  33.011  0.00  0.00    +0.120 C 
ATOM      8  C   UNL     1     -13.148   8.376  34.418  0.00  0.00    +0.154 C 
ATOM      9  C   UNL     1     -13.588   7.787  32.162  0.00  0.00    +0.110 C 
ATOM     10  C   UNL     1     -13.856   7.019  34.372  0.00  0.00    +0.118 C 
ATOM     12  C   UNL     1     -13.567  10.661  34.659  0.00  0.00    +0.256 C 
ATOM     13  C   UNL     1     -12.987  11.027  33.309  0.00  0.00    +0.241 C 
ATOM     14  C   UNL     1     -11.772  10.207  31.323  0.00  0.00    +0.132 C 
ENDBRANCH  11   4
BRANCH  11  15
ATOM     15  C   UNL     1     -14.489   4.506  31.886  0.00  0.00    -0.033 A 
ATOM     16  C   UNL     1     -13.635   3.624  32.549  0.00  0.00    +0.007 A 
ATOM     17  C   UNL     1     -14.951   4.199  30.606  0.00  0.00    +0.007 A 
ATOM     18  C   UNL     1     -13.243   2.437  31.931  0.00  0.00    +0.023 A 
ATOM     19  C   UNL     1     -14.559   3.012  29.989  0.00  0.00    +0.023 A 
ATOM     20  C   UNL     1     -13.705   2.130  30.652  0.00  0.00    +0.033 A 
BRANCH  20   6
ATOM      3  O   UNL     1     -15.173  -0.478  30.322  0.00  0.00    -0.276 OA
ATOM      6  N   UNL     1     -13.313   0.942  30.033  0.00  0.00    -0.286 N 
ATOM     21  C   UNL     1     -14.041  -0.249  29.909  0.00  0.00    +0.214 C 
ATOM     22  C   UNL     1     -13.261  -1.306  29.168  0.00  0.00    +0.109 C 
ATOM     23  H   UNL     1     -12.381   0.952  29.624  0.00  0.00    +0.155 HD
ENDBRANCH  20   6
ENDBRANCH  11  15
TORSDOF 3
ENDMDL
MODEL 7
REMARK VINA RESULT:      -6.0     26.614     29.518
REMARK  Name = 56775103
REMARK  5 active torsions:
REMARK  status: ('A' for Active; 'I' for Inactive)
REMARK    1  A    between atoms: N_4  and  C_11
REMARK    2  A    between atoms: N_5  and  C_14
REMARK    3  A    between atoms: N_6  and  C_20
REMARK    4  A    between atoms: C_11  and  C_15
REMARK    5  A    between atoms: C_21  and  C_22
REMARK                            x       y       z     vdW  Elec       q    Type
REMARK                         _______ _______ _______ _____ _____    ______ ____
ROOT
ATOM     11  C   UNL     1     -14.223   7.698  19.987  0.00  0.00    +0.119 C 
ENDROOT
BRANCH  11   4
ATOM      1  O   UNL     1     -11.222  10.603  19.233  0.00  0.00    -0.364 OA
ATOM      2  O   UNL     1      -9.935  10.956  15.972  0.00  0.00    -0.273 OA
ATOM      4  N   UNL     1     -12.803   7.746  19.676  0.00  0.00    -0.294 NA
ATOM      5  N   UNL     1     -10.566   9.010  17.082  0.00  0.00    -0.296 N 
ATOM      7  C   UNL     1     -11.053   8.380  18.307  0.00  0.00    +0.120 C 
ATOM      8  C   UNL     1     -10.949   9.242  19.562  0.00  0.00    +0.154 C 
ATOM      9  C   UNL     1     -12.541   8.049  18.270  0.00  0.00    +0.110 C 
ATOM     10  C   UNL     1     -12.076   8.745  20.471  0.00  0.00    +0.118 C 
ATOM     12  C   UNL     1     -10.269  11.103  18.325  0.00  0.00    +0.256 C 
ATOM     13  C   UNL     1     -10.261  10.366  17.003  0.00  0.00    +0.241 C 
ATOM     14  C   UNL     1     -10.497   8.176  15.890  0.00  0.00    +0.132 C 
ENDBRANCH  11   4
BRANCH  11  15
ATOM     15  C   UNL     1     -14.501   6.865  21.211  0.00  0.00    -0.033 A 
ATOM     16  C   UNL     1     -15.653   7.093  21.963  0.00  0.00    +0.007 A 
ATOM     17  C   UNL     1     -13.606   5.865  21.593  0.00  0.00    +0.007 A 
ATOM     18  C   UNL     1     -15.910   6.323  23.096  0.00  0.00    +0.023 A 
ATOM     19  C   UNL     1     -13.863   5.095  22.726  0.00  0.00    +0.023 A 
ATOM     20  C   UNL     1     -15.016   5.324  23.478  0.00  0.00    +0.033 A 
BRANCH  20   6
ATOM      3  O   UNL     1     -16.286   2.607  23.747  0.00  0.00    -0.276 OA
ATOM      6  N   UNL     1     -15.273   4.552  24.612  0.00  0.00    -0.286 N 
ATOM     21  C   UNL     1     -15.871   3.287  24.679  0.00  0.00    +0.214 C 
ATOM     22  C   UNL     1     -15.968   2.789  26.100  0.00  0.00    +0.109 C 
ATOM     23  H   UNL     1     -14.986   4.969  25.496  0.00  0.00    +0.155 HD
ENDBRANCH  20   6
ENDBRANCH  11  15
TORSDOF 3
ENDMDL
MODEL 8
REMARK VINA RESULT:      -5.9     26.472     29.096
REMARK  Name = 56775103
REMARK  5 active torsions:
REMARK  status: ('A' for Active; 'I' for Inactive)
REMARK    1  A    between atoms: N_4  and  C_11
REMARK    2  A    between atoms: N_5  and  C_14
REMARK    3  A    between atoms: N_6  and  C_20
REMARK    4  A    between atoms: C_11  and  C_15
REMARK    5  A    between atoms: C_21  and  C_22
REMARK                            x       y       z     vdW  Elec       q    Type
REMARK                         _______ _______ _______ _____ _____    ______ ____
ROOT
ATOM     11  C   UNL     1     -12.226   8.775  20.671  0.00  0.00    +0.119 C 
ENDROOT
BRANCH  11   4
ATOM      1  O   UNL     1     -10.172  10.908  17.631  0.00  0.00    -0.364 OA
ATOM      2  O   UNL     1     -11.546  11.055  14.389  0.00  0.00    -0.273 OA
ATOM      4  N   UNL     1     -11.475   8.495  19.458  0.00  0.00    -0.294 NA
ATOM      5  N   UNL     1     -11.557   9.279  15.892  0.00  0.00    -0.296 N 
ATOM      7  C   UNL     1     -11.138   8.742  17.185  0.00  0.00    +0.120 C 
ATOM      8  C   UNL     1     -10.013   9.512  17.870  0.00  0.00    +0.154 C 
ATOM      9  C   UNL     1     -12.237   8.774  18.242  0.00  0.00    +0.110 C 
ATOM     10  C   UNL     1     -10.228   9.266  19.366  0.00  0.00    +0.118 C 
ATOM     12  C   UNL     1     -10.075  11.198  16.256  0.00  0.00    +0.256 C 
ATOM     13  C   UNL     1     -11.148  10.525  15.427  0.00  0.00    +0.241 C 
ATOM     14  C   UNL     1     -12.515   8.492  15.127  0.00  0.00    +0.132 C 
ENDBRANCH  11   4
BRANCH  11  15
ATOM     15  C   UNL     1     -13.005   7.573  21.138  0.00  0.00    -0.033 A 
ATOM     16  C   UNL     1     -14.389   7.654  21.286  0.00  0.00    +0.007 A 
ATOM     17  C   UNL     1     -12.342   6.379  21.421  0.00  0.00    +0.007 A 
ATOM     18  C   UNL     1     -15.110   6.542  21.719  0.00  0.00    +0.023 A 
ATOM     19  C   UNL     1     -13.062   5.267  21.854  0.00  0.00    +0.023 A 
ATOM     20  C   UNL     1     -14.448   5.348  22.003  0.00  0.00    +0.033 A 
BRANCH  20   6
ATOM      3  O   UNL     1     -15.950   4.870  24.568  0.00  0.00    -0.276 OA
ATOM      6  N   UNL     1     -15.168   4.235  22.436  0.00  0.00    -0.286 N 
ATOM     21  C   UNL     1     -15.851   4.065  23.649  0.00  0.00    +0.214 C 
ATOM     22  C   UNL     1     -16.507   2.709  23.736  0.00  0.00    +0.109 C 
ATOM     23  H   UNL     1     -15.195   3.454  21.784  0.00  0.00    +0.155 HD
ENDBRANCH  20   6
ENDBRANCH  11  15
TORSDOF 3
ENDMDL
MODEL 9
REMARK VINA RESULT:      -5.8     26.308     28.915
REMARK  Name = 56775103
REMARK  5 active torsions:
REMARK  status: ('A' for Active; 'I' for Inactive)
REMARK    1  A    between atoms: N_4  and  C_11
REMARK    2  A    between atoms: N_5  and  C_14
REMARK    3  A    between atoms: N_6  and  C_20
REMARK    4  A    between atoms: C_11  and  C_15
REMARK    5  A    between atoms: C_21  and  C_22
REMARK                            x       y       z     vdW  Elec       q    Type
REMARK                         _______ _______ _______ _____ _____    ______ ____
ROOT
ATOM     11  C   UNL     1      -3.566 -10.722  16.597  0.00  0.00    +0.119 C 
ENDROOT
BRANCH  11   4
ATOM      1  O   UNL     1      -1.490 -10.127  12.943  0.00  0.00    -0.364 OA
ATOM      2  O   UNL     1      -3.285  -9.150  10.072  0.00  0.00    -0.273 OA
ATOM      4  N   UNL     1      -3.433 -11.365  15.299  0.00  0.00    -0.294 NA
ATOM      5  N   UNL     1      -3.931 -10.616  11.760  0.00  0.00    -0.296 N 
ATOM      7  C   UNL     1      -3.588 -11.319  12.994  0.00  0.00    +0.120 C 
ATOM      8  C   UNL     1      -2.099 -11.360  13.322  0.00  0.00    +0.154 C 
ATOM      9  C   UNL     1      -4.173 -10.672  14.246  0.00  0.00    +0.110 C 
ATOM     10  C   UNL     1      -2.038 -11.462  14.848  0.00  0.00    +0.118 C 
ATOM     12  C   UNL     1      -1.588  -9.923  11.553  0.00  0.00    +0.256 C 
ATOM     13  C   UNL     1      -3.017  -9.832  11.062  0.00  0.00    +0.241 C 
ATOM     14  C   UNL     1      -5.319 -10.684  11.322  0.00  0.00    +0.132 C 
ENDBRANCH  11   4
BRANCH  11  15
ATOM     15  C   UNL     1      -4.661 -11.345  17.421  0.00  0.00    -0.033 A 
ATOM     16  C   UNL     1      -5.164 -10.672  18.535  0.00  0.00    +0.007 A 
ATOM     17  C   UNL     1      -5.174 -12.594  17.072  0.00  0.00    +0.007 A 
ATOM     18  C   UNL     1      -6.178 -11.249  19.299  0.00  0.00    +0.023 A 
ATOM     19  C   UNL     1      -6.188 -13.171  17.836  0.00  0.00    +0.023 A 
ATOM     20  C   UNL     1      -6.690 -12.497  18.950  0.00  0.00    +0.033 A 
BRANCH  20   6
ATOM      3  O   UNL     1      -9.655 -11.974  18.977  0.00  0.00    -0.276 OA
ATOM      6  N   UNL     1      -7.705 -13.075  19.714  0.00  0.00    -0.286 N 
ATOM     21  C   UNL     1      -9.077 -12.791  19.686  0.00  0.00    +0.214 C 
ATOM     22  C   UNL     1      -9.843 -13.637  20.672  0.00  0.00    +0.109 C 
ATOM     23  H   UNL     1      -7.400 -13.791  20.371  0.00  0.00    +0.155 HD
ENDBRANCH  20   6
ENDBRANCH  11  15
TORSDOF 3
ENDMDL
MODEL 10
REMARK VINA RESULT:      -5.8     13.657     17.020
REMARK  Name = 56775103
REMARK  5 active torsions:
REMARK  status: ('A' for Active; 'I' for Inactive)
REMARK    1  A    between atoms: N_4  and  C_11
REMARK    2  A    between atoms: N_5  and  C_14
REMARK    3  A    between atoms: N_6  and  C_20
REMARK    4  A    between atoms: C_11  and  C_15
REMARK    5  A    between atoms: C_21  and  C_22
REMARK                            x       y       z     vdW  Elec       q    Type
REMARK                         _______ _______ _______ _____ _____    ______ ____
ROOT
ATOM     11  C   UNL     1      10.422   4.984   2.935  0.00  0.00    +0.119 C 
ENDROOT
BRANCH  11   4
ATOM      1  O   UNL     1       8.842   6.308   6.644  0.00  0.00    -0.364 OA
ATOM      2  O   UNL     1      10.163   9.205   8.153  0.00  0.00    -0.273 OA
ATOM      4  N   UNL     1      10.827   5.060   4.329  0.00  0.00    -0.294 NA
ATOM      5  N   UNL     1      11.282   7.549   6.961  0.00  0.00    -0.296 N 
ATOM      7  C   UNL     1      11.224   6.270   6.257  0.00  0.00    +0.120 C 
ATOM      8  C   UNL     1       9.970   5.443   6.522  0.00  0.00    +0.154 C 
ATOM      9  C   UNL     1      11.197   6.414   4.738  0.00  0.00    +0.110 C 
ATOM     10  C   UNL     1       9.781   4.605   5.255  0.00  0.00    +0.118 C 
ATOM     12  C   UNL     1       8.989   7.174   7.745  0.00  0.00    +0.256 C 
ATOM     13  C   UNL     1      10.186   8.093   7.626  0.00  0.00    +0.241 C 
ATOM     14  C   UNL     1      12.525   8.302   6.866  0.00  0.00    +0.132 C 
ENDBRANCH  11   4
BRANCH  11  15
ATOM     15  C   UNL     1      11.599   4.778   2.019  0.00  0.00    -0.033 A 
ATOM     16  C   UNL     1      12.320   3.584   2.067  0.00  0.00    +0.007 A 
ATOM     17  C   UNL     1      11.970   5.780   1.122  0.00  0.00    +0.007 A 
ATOM     18  C   UNL     1      13.410   3.393   1.220  0.00  0.00    +0.023 A 
ATOM     19  C   UNL     1      13.061   5.589   0.275  0.00  0.00    +0.023 A 
ATOM     20  C   UNL     1      13.781   4.395   0.324  0.00  0.00    +0.033 A 
BRANCH  20   6
ATOM      3  O   UNL     1      16.430   5.821   0.198  0.00  0.00    -0.276 OA
ATOM      6  N   UNL     1      14.873   4.205  -0.525  0.00  0.00    -0.286 N 
ATOM     21  C   UNL     1      16.088   4.903  -0.539  0.00  0.00    +0.214 C 
ATOM     22  C   UNL     1      17.013   4.392  -1.616  0.00  0.00    +0.109 C 
ATOM     23  H   UNL     1      14.763   3.465  -1.215  0.00  0.00    +0.155 HD
ENDBRANCH  20   6
ENDBRANCH  11  15
TORSDOF 3
ENDMDL
