MODEL 1
REMARK VINA RESULT:      -5.6      0.000      0.000
REMARK  Name = 11912415
REMARK  13 active torsions:
REMARK  status: ('A' for Active; 'I' for Inactive)
REMARK    1  A    between atoms: S_1  and  C_21
REMARK    2  A    between atoms: S_1  and  C_28
REMARK    3  A    between atoms: O_4  and  C_27
REMARK    4  A    between atoms: O_4  and  C_29
REMARK    5  A    between atoms: N_7  and  C_19
REMARK    6  A    between atoms: N_8  and  C_20
REMARK    7  A    between atoms: C_9  and  C_15
REMARK    8  A    between atoms: C_10  and  C_14
REMARK    9  A    between atoms: C_14  and  C_16
REMARK   10  A    between atoms: C_15  and  C_18
REMARK   11  A    between atoms: C_19  and  C_21
REMARK   12  A    between atoms: C_24  and  C_27
REMARK   13  A    between atoms: C_29  and  C_30
REMARK                            x       y       z     vdW  Elec       q    Type
REMARK                         _______ _______ _______ _____ _____    ______ ____
ROOT
ATOM      2  O   UNL     1      11.144   3.380   2.631  0.00  0.00    -0.252 OA
ATOM      6  N   UNL     1      13.002   4.238   1.558  0.00  0.00    -0.285 N 
ATOM      8  N   UNL     1      11.849   5.524   3.166  0.00  0.00    -0.269 N 
ATOM      9  C   UNL     1      14.179   4.473  -1.075  0.00  0.00    +0.004 C 
ATOM     10  C   UNL     1      14.010   5.715  -0.159  0.00  0.00    +0.010 C 
ATOM     11  C   UNL     1      13.162   3.368  -0.734  0.00  0.00    +0.023 C 
ATOM     12  C   UNL     1      14.019   5.273   1.314  0.00  0.00    +0.113 C 
ATOM     13  C   UNL     1      13.180   3.028   0.755  0.00  0.00    +0.109 C 
ATOM     17  C   UNL     1      11.937   4.312   2.481  0.00  0.00    +0.306 C 
ATOM     32  H   UNL     1      12.701   6.048   3.330  0.00  0.00    +0.156 HD
ENDROOT
BRANCH   8  20
ATOM     20  C   UNL     1      10.678   6.146   3.667  0.00  0.00    +0.036 A 
ATOM     22  C   UNL     1      10.370   6.060   5.024  0.00  0.00    +0.038 A 
ATOM     23  C   UNL     1       9.835   6.843   2.803  0.00  0.00    +0.023 A 
ATOM     24  C   UNL     1       9.217   6.670   5.517  0.00  0.00    +0.061 A 
ATOM     25  C   UNL     1       8.683   7.454   3.296  0.00  0.00    +0.003 A 
ATOM     26  C   UNL     1       8.374   7.368   4.653  0.00  0.00    +0.015 A 
BRANCH  24  27
ATOM      5  O   UNL     1       8.258   7.438   7.561  0.00  0.00    -0.245 OA
ATOM     27  C   UNL     1       8.895   6.583   6.932  0.00  0.00    +0.339 C 
BRANCH  27   4
ATOM      4  O   UNL     1       9.383   5.431   7.489  0.00  0.00    -0.461 OA
BRANCH   4  29
ATOM     29  C   UNL     1       9.972   5.541   8.789  0.00  0.00    +0.229 C 
ATOM     30  C   UNL     1       9.180   4.693   9.763  0.00  0.00    +0.048 C 
ENDBRANCH   4  29
ENDBRANCH  27   4
ENDBRANCH  24  27
ENDBRANCH   8  20
BRANCH  10  14
ATOM     14  C   UNL     1      12.759   6.547  -0.461  0.00  0.00    +0.002 C 
ATOM     16  C   UNL     1      12.676   7.758   0.445  0.00  0.00    +0.004 C 
ENDBRANCH  10  14
BRANCH   9  15
ATOM     15  C   UNL     1      14.127   4.815  -2.564  0.00  0.00    +0.099 C 
BRANCH  15  18
ATOM      3  O   UNL     1      15.510   6.637  -3.352  0.00  0.00    -0.276 OA
ATOM      7  N   UNL     1      16.438   4.520  -3.111  0.00  0.00    -0.315 N 
ATOM     18  C   UNL     1      15.411   5.450  -3.051  0.00  0.00    +0.213 C 
ATOM     31  H   UNL     1      16.252   3.556  -2.850  0.00  0.00    +0.149 HD
BRANCH   7  19
ATOM     19  C   UNL     1      17.778   4.849  -3.545  0.00  0.00    +0.115 C 
BRANCH  19  21
ATOM     21  C   UNL     1      18.834   4.549  -2.490  0.00  0.00    +0.087 C 
BRANCH  21   1
ATOM      1  S   UNL     1      20.177   3.507  -3.137  0.00  0.00    -0.163 S 
ATOM     28  C   UNL     1      20.566   2.611  -1.616  0.00  0.00    +0.084 C 
ENDBRANCH  21   1
ENDBRANCH  19  21
ENDBRANCH   7  19
ENDBRANCH  15  18
ENDBRANCH   9  15
TORSDOF 10
ENDMDL
MODEL 2
REMARK VINA RESULT:      -5.6     24.547     29.655
REMARK  Name = 11912415
REMARK  13 active torsions:
REMARK  status: ('A' for Active; 'I' for Inactive)
REMARK    1  A    between atoms: S_1  and  C_21
REMARK    2  A    between atoms: S_1  and  C_28
REMARK    3  A    between atoms: O_4  and  C_27
REMARK    4  A    between atoms: O_4  and  C_29
REMARK    5  A    between atoms: N_7  and  C_19
REMARK    6  A    between atoms: N_8  and  C_20
REMARK    7  A    between atoms: C_9  and  C_15
REMARK    8  A    between atoms: C_10  and  C_14
REMARK    9  A    between atoms: C_14  and  C_16
REMARK   10  A    between atoms: C_15  and  C_18
REMARK   11  A    between atoms: C_19  and  C_21
REMARK   12  A    between atoms: C_24  and  C_27
REMARK   13  A    between atoms: C_29  and  C_30
REMARK                            x       y       z     vdW  Elec       q    Type
REMARK                         _______ _______ _______ _____ _____    ______ ____
ROOT
ATOM      2  O   UNL     1      -2.055 -10.822  15.467  0.00  0.00    -0.252 OA
ATOM      6  N   UNL     1      -4.111 -11.639  16.134  0.00  0.00    -0.285 N 
ATOM      8  N   UNL     1      -3.592 -11.434  13.841  0.00  0.00    -0.269 N 
ATOM      9  C   UNL     1      -6.254 -11.103  18.003  0.00  0.00    +0.004 C 
ATOM     10  C   UNL     1      -6.543 -11.323  16.494  0.00  0.00    +0.010 C 
ATOM     11  C   UNL     1      -4.820 -10.596  18.243  0.00  0.00    +0.023 C 
ATOM     12  C   UNL     1      -5.445 -12.209  15.883  0.00  0.00    +0.113 C 
ATOM     13  C   UNL     1      -3.788 -11.486  17.552  0.00  0.00    +0.109 C 
ATOM     17  C   UNL     1      -3.160 -11.273  15.158  0.00  0.00    +0.306 C 
ATOM     32  H   UNL     1      -4.271 -12.159  13.642  0.00  0.00    +0.156 HD
ENDROOT
BRANCH   8  20
ATOM     20  C   UNL     1      -3.200 -10.677  12.709  0.00  0.00    +0.036 A 
ATOM     22  C   UNL     1      -4.165 -10.187  11.829  0.00  0.00    +0.038 A 
ATOM     23  C   UNL     1      -1.849 -10.424  12.475  0.00  0.00    +0.023 A 
ATOM     24  C   UNL     1      -3.778  -9.443  10.715  0.00  0.00    +0.061 A 
ATOM     25  C   UNL     1      -1.462  -9.679  11.361  0.00  0.00    +0.003 A 
ATOM     26  C   UNL     1      -2.427  -9.189  10.481  0.00  0.00    +0.015 A 
BRANCH  24  27
ATOM      5  O   UNL     1      -5.775  -8.273  10.142  0.00  0.00    -0.245 OA
ATOM     27  C   UNL     1      -4.783  -8.930   9.798  0.00  0.00    +0.339 C 
BRANCH  27   4
ATOM      4  O   UNL     1      -4.497  -9.261   8.501  0.00  0.00    -0.461 OA
BRANCH   4  29
ATOM     29  C   UNL     1      -5.087 -10.463   7.996  0.00  0.00    +0.229 C 
ATOM     30  C   UNL     1      -5.690 -10.182   6.634  0.00  0.00    +0.048 C 
ENDBRANCH   4  29
ENDBRANCH  27   4
ENDBRANCH  24  27
ENDBRANCH   8  20
BRANCH  10  14
ATOM     14  C   UNL     1      -6.694 -10.025  15.692  0.00  0.00    +0.002 C 
ATOM     16  C   UNL     1      -8.073  -9.919  15.076  0.00  0.00    +0.004 C 
ENDBRANCH  10  14
BRANCH   9  15
ATOM     15  C   UNL     1      -7.272 -10.185  18.681  0.00  0.00    +0.099 C 
BRANCH  15  18
ATOM      3  O   UNL     1      -8.137 -12.060  19.942  0.00  0.00    -0.276 OA
ATOM      7  N   UNL     1      -9.539 -10.274  19.444  0.00  0.00    -0.315 N 
ATOM     18  C   UNL     1      -8.334 -10.962  19.428  0.00  0.00    +0.213 C 
ATOM     31  H   UNL     1      -9.603  -9.374  18.978  0.00  0.00    +0.149 HD
BRANCH   7  19
ATOM     19  C   UNL     1     -10.730 -10.782  20.085  0.00  0.00    +0.115 C 
BRANCH  19  21
ATOM     21  C   UNL     1     -11.683 -11.465  19.114  0.00  0.00    +0.087 C 
BRANCH  21   1
ATOM      1  S   UNL     1     -13.277 -10.597  18.990  0.00  0.00    -0.163 S 
ATOM     28  C   UNL     1     -13.234  -9.746  20.584  0.00  0.00    +0.084 C 
ENDBRANCH  21   1
ENDBRANCH  19  21
ENDBRANCH   7  19
ENDBRANCH  15  18
ENDBRANCH   9  15
TORSDOF 10
ENDMDL
MODEL 3
REMARK VINA RESULT:      -5.5     19.021     22.203
REMARK  Name = 11912415
REMARK  13 active torsions:
REMARK  status: ('A' for Active; 'I' for Inactive)
REMARK    1  A    between atoms: S_1  and  C_21
REMARK    2  A    between atoms: S_1  and  C_28
REMARK    3  A    between atoms: O_4  and  C_27
REMARK    4  A    between atoms: O_4  and  C_29
REMARK    5  A    between atoms: N_7  and  C_19
REMARK    6  A    between atoms: N_8  and  C_20
REMARK    7  A    between atoms: C_9  and  C_15
REMARK    8  A    between atoms: C_10  and  C_14
REMARK    9  A    between atoms: C_14  and  C_16
REMARK   10  A    between atoms: C_15  and  C_18
REMARK   11  A    between atoms: C_19  and  C_21
REMARK   12  A    between atoms: C_24  and  C_27
REMARK   13  A    between atoms: C_29  and  C_30
REMARK                            x       y       z     vdW  Elec       q    Type
REMARK                         _______ _______ _______ _____ _____    ______ ____
ROOT
ATOM      2  O   UNL     1      13.621   7.346  21.667  0.00  0.00    -0.252 OA
ATOM      6  N   UNL     1      12.888   9.153  20.427  0.00  0.00    -0.285 N 
ATOM      8  N   UNL     1      14.677   7.821  19.657  0.00  0.00    -0.269 N 
ATOM      9  C   UNL     1      12.125  11.929  20.718  0.00  0.00    +0.004 C 
ATOM     10  C   UNL     1      13.165  11.492  19.653  0.00  0.00    +0.010 C 
ATOM     11  C   UNL     1      12.063  10.940  21.898  0.00  0.00    +0.023 C 
ATOM     12  C   UNL     1      12.903  10.032  19.247  0.00  0.00    +0.113 C 
ATOM     13  C   UNL     1      11.868   9.504  21.416  0.00  0.00    +0.109 C 
ATOM     17  C   UNL     1      13.724   8.038  20.653  0.00  0.00    +0.306 C 
ATOM     32  H   UNL     1      14.461   8.111  18.711  0.00  0.00    +0.156 HD
ENDROOT
BRANCH   8  20
ATOM     20  C   UNL     1      15.960   7.239  19.809  0.00  0.00    +0.036 A 
ATOM     22  C   UNL     1      16.819   7.695  20.809  0.00  0.00    +0.038 A 
ATOM     23  C   UNL     1      16.363   6.210  18.959  0.00  0.00    +0.023 A 
ATOM     24  C   UNL     1      18.082   7.123  20.957  0.00  0.00    +0.061 A 
ATOM     25  C   UNL     1      17.626   5.637  19.108  0.00  0.00    +0.003 A 
ATOM     26  C   UNL     1      18.485   6.093  20.107  0.00  0.00    +0.015 A 
BRANCH  24  27
ATOM      5  O   UNL     1      19.176   8.790  22.265  0.00  0.00    -0.245 OA
ATOM     27  C   UNL     1      18.978   7.596  22.000  0.00  0.00    +0.339 C 
BRANCH  27   4
ATOM      4  O   UNL     1      19.578   6.557  22.659  0.00  0.00    -0.461 OA
BRANCH   4  29
ATOM     29  C   UNL     1      21.006   6.578  22.735  0.00  0.00    +0.229 C 
ATOM     30  C   UNL     1      21.542   5.219  22.333  0.00  0.00    +0.048 C 
ENDBRANCH   4  29
ENDBRANCH  27   4
ENDBRANCH  24  27
ENDBRANCH   8  20
BRANCH  10  14
ATOM     14  C   UNL     1      14.623  11.673  20.093  0.00  0.00    +0.002 C 
ATOM     16  C   UNL     1      15.581  11.250  18.999  0.00  0.00    +0.004 C 
ENDBRANCH  10  14
BRANCH   9  15
ATOM     15  C   UNL     1      12.344  13.356  21.221  0.00  0.00    +0.099 C 
BRANCH  15  18
ATOM      3  O   UNL     1      10.021  13.921  21.591  0.00  0.00    -0.276 OA
ATOM      7  N   UNL     1      11.564  14.260  23.296  0.00  0.00    -0.315 N 
ATOM     18  C   UNL     1      11.169  13.866  22.026  0.00  0.00    +0.213 C 
ATOM     31  H   UNL     1      12.543  14.185  23.557  0.00  0.00    +0.149 HD
BRANCH   7  19
ATOM     19  C   UNL     1      10.648  14.791  24.280  0.00  0.00    +0.115 C 
BRANCH  19  21
ATOM     21  C   UNL     1      10.722  14.062  25.614  0.00  0.00    +0.087 C 
BRANCH  21   1
ATOM      1  S   UNL     1      12.152  12.942  25.709  0.00  0.00    -0.163 S 
ATOM     28  C   UNL     1      13.286  14.042  26.588  0.00  0.00    +0.084 C 
ENDBRANCH  21   1
ENDBRANCH  19  21
ENDBRANCH   7  19
ENDBRANCH  15  18
ENDBRANCH   9  15
TORSDOF 10
ENDMDL
MODEL 4
REMARK VINA RESULT:      -5.5      2.849      3.755
REMARK  Name = 11912415
REMARK  13 active torsions:
REMARK  status: ('A' for Active; 'I' for Inactive)
REMARK    1  A    between atoms: S_1  and  C_21
REMARK    2  A    between atoms: S_1  and  C_28
REMARK    3  A    between atoms: O_4  and  C_27
REMARK    4  A    between atoms: O_4  and  C_29
REMARK    5  A    between atoms: N_7  and  C_19
REMARK    6  A    between atoms: N_8  and  C_20
REMARK    7  A    between atoms: C_9  and  C_15
REMARK    8  A    between atoms: C_10  and  C_14
REMARK    9  A    between atoms: C_14  and  C_16
REMARK   10  A    between atoms: C_15  and  C_18
REMARK   11  A    between atoms: C_19  and  C_21
REMARK   12  A    between atoms: C_24  and  C_27
REMARK   13  A    between atoms: C_29  and  C_30
REMARK                            x       y       z     vdW  Elec       q    Type
REMARK                         _______ _______ _______ _____ _____    ______ ____
ROOT
ATOM      2  O   UNL     1      11.077   3.401   2.471  0.00  0.00    -0.252 OA
ATOM      6  N   UNL     1      13.019   4.222   1.526  0.00  0.00    -0.285 N 
ATOM      8  N   UNL     1      11.889   5.450   3.194  0.00  0.00    -0.269 N 
ATOM      9  C   UNL     1      14.301   4.585  -1.043  0.00  0.00    +0.004 C 
ATOM     10  C   UNL     1      14.173   5.761  -0.038  0.00  0.00    +0.010 C 
ATOM     11  C   UNL     1      13.208   3.522  -0.821  0.00  0.00    +0.023 C 
ATOM     12  C   UNL     1      14.104   5.207   1.395  0.00  0.00    +0.113 C 
ATOM     13  C   UNL     1      13.154   3.069   0.636  0.00  0.00    +0.109 C 
ATOM     17  C   UNL     1      11.929   4.291   2.419  0.00  0.00    +0.306 C 
ATOM     32  H   UNL     1      12.764   5.906   3.425  0.00  0.00    +0.156 HD
ENDROOT
BRANCH   8  20
ATOM     20  C   UNL     1      10.740   6.103   3.706  0.00  0.00    +0.036 A 
ATOM     22  C   UNL     1      10.443   6.025   5.067  0.00  0.00    +0.038 A 
ATOM     23  C   UNL     1       9.908   6.821   2.850  0.00  0.00    +0.023 A 
ATOM     24  C   UNL     1       9.312   6.666   5.571  0.00  0.00    +0.061 A 
ATOM     25  C   UNL     1       8.776   7.463   3.354  0.00  0.00    +0.003 A 
ATOM     26  C   UNL     1       8.479   7.386   4.715  0.00  0.00    +0.015 A 
BRANCH  24  27
ATOM      5  O   UNL     1       8.320   7.418   7.605  0.00  0.00    -0.245 OA
ATOM     27  C   UNL     1       9.001   6.587   6.989  0.00  0.00    +0.339 C 
BRANCH  27   4
ATOM      4  O   UNL     1       9.555   5.476   7.565  0.00  0.00    -0.461 OA
BRANCH   4  29
ATOM     29  C   UNL     1       9.909   5.572   8.948  0.00  0.00    +0.229 C 
ATOM     30  C   UNL     1       9.198   4.477   9.716  0.00  0.00    +0.048 C 
ENDBRANCH   4  29
ENDBRANCH  27   4
ENDBRANCH  24  27
ENDBRANCH   8  20
BRANCH  10  14
ATOM     14  C   UNL     1      12.985   6.690  -0.312  0.00  0.00    +0.002 C 
ATOM     16  C   UNL     1      12.936   7.825   0.689  0.00  0.00    +0.004 C 
ENDBRANCH  10  14
BRANCH   9  15
ATOM     15  C   UNL     1      14.322   5.042  -2.502  0.00  0.00    +0.099 C 
BRANCH  15  18
ATOM      3  O   UNL     1      13.252   3.308  -3.806  0.00  0.00    -0.276 OA
ATOM      7  N   UNL     1      12.122   5.300  -3.410  0.00  0.00    -0.315 N 
ATOM     18  C   UNL     1      13.198   4.430  -3.309  0.00  0.00    +0.213 C 
ATOM     31  H   UNL     1      12.180   6.215  -2.971  0.00  0.00    +0.149 HD
BRANCH   7  19
ATOM     19  C   UNL     1      10.910   4.978  -4.128  0.00  0.00    +0.115 C 
BRANCH  19  21
ATOM     21  C   UNL     1       9.810   4.439  -3.223  0.00  0.00    +0.087 C 
BRANCH  21   1
ATOM      1  S   UNL     1       9.112   5.727  -2.145  0.00  0.00    -0.163 S 
ATOM     28  C   UNL     1       9.832   5.174  -0.582  0.00  0.00    +0.084 C 
ENDBRANCH  21   1
ENDBRANCH  19  21
ENDBRANCH   7  19
ENDBRANCH  15  18
ENDBRANCH   9  15
TORSDOF 10
ENDMDL
MODEL 5
REMARK VINA RESULT:      -5.5     25.701     30.631
REMARK  Name = 11912415
REMARK  13 active torsions:
REMARK  status: ('A' for Active; 'I' for Inactive)
REMARK    1  A    between atoms: S_1  and  C_21
REMARK    2  A    between atoms: S_1  and  C_28
REMARK    3  A    between atoms: O_4  and  C_27
REMARK    4  A    between atoms: O_4  and  C_29
REMARK    5  A    between atoms: N_7  and  C_19
REMARK    6  A    between atoms: N_8  and  C_20
REMARK    7  A    between atoms: C_9  and  C_15
REMARK    8  A    between atoms: C_10  and  C_14
REMARK    9  A    between atoms: C_14  and  C_16
REMARK   10  A    between atoms: C_15  and  C_18
REMARK   11  A    between atoms: C_19  and  C_21
REMARK   12  A    between atoms: C_24  and  C_27
REMARK   13  A    between atoms: C_29  and  C_30
REMARK                            x       y       z     vdW  Elec       q    Type
REMARK                         _______ _______ _______ _____ _____    ______ ____
ROOT
ATOM      2  O   UNL     1      -9.708 -12.656  19.608  0.00  0.00    -0.252 OA
ATOM      6  N   UNL     1      -7.855 -11.380  19.081  0.00  0.00    -0.285 N 
ATOM      8  N   UNL     1      -9.877 -10.345  19.717  0.00  0.00    -0.269 N 
ATOM      9  C   UNL     1      -5.751 -11.164  17.105  0.00  0.00    +0.004 C 
ATOM     10  C   UNL     1      -6.612  -9.933  17.497  0.00  0.00    +0.010 C 
ATOM     11  C   UNL     1      -6.497 -12.488  17.358  0.00  0.00    +0.023 C 
ATOM     12  C   UNL     1      -7.133 -10.107  18.934  0.00  0.00    +0.113 C 
ATOM     13  C   UNL     1      -7.043 -12.561  18.783  0.00  0.00    +0.109 C 
ATOM     17  C   UNL     1      -9.195 -11.541  19.492  0.00  0.00    +0.306 C 
ATOM     32  H   UNL     1      -9.346  -9.537  20.020  0.00  0.00    +0.156 HD
ENDROOT
BRANCH   8  20
ATOM     20  C   UNL     1     -11.265 -10.104  19.558  0.00  0.00    +0.036 A 
ATOM     22  C   UNL     1     -11.751  -9.602  18.351  0.00  0.00    +0.038 A 
ATOM     23  C   UNL     1     -12.142 -10.369  20.608  0.00  0.00    +0.023 A 
ATOM     24  C   UNL     1     -13.116  -9.363  18.195  0.00  0.00    +0.061 A 
ATOM     25  C   UNL     1     -13.508 -10.131  20.452  0.00  0.00    +0.003 A 
ATOM     26  C   UNL     1     -13.995  -9.629  19.245  0.00  0.00    +0.015 A 
BRANCH  24  27
ATOM      5  O   UNL     1     -14.799  -8.944  16.559  0.00  0.00    -0.245 OA
ATOM     27  C   UNL     1     -13.625  -8.841  16.937  0.00  0.00    +0.339 C 
BRANCH  27   4
ATOM      4  O   UNL     1     -12.642  -8.216  16.217  0.00  0.00    -0.461 OA
BRANCH   4  29
ATOM     29  C   UNL     1     -12.867  -6.846  15.871  0.00  0.00    +0.229 C 
ATOM     30  C   UNL     1     -11.570  -6.079  16.030  0.00  0.00    +0.048 C 
ENDBRANCH   4  29
ENDBRANCH  27   4
ENDBRANCH  24  27
ENDBRANCH   8  20
BRANCH  10  14
ATOM     14  C   UNL     1      -7.773  -9.652  16.536  0.00  0.00    +0.002 C 
ATOM     16  C   UNL     1      -8.622  -8.499  17.028  0.00  0.00    +0.004 C 
ENDBRANCH  10  14
BRANCH   9  15
ATOM     15  C   UNL     1      -5.234 -11.102  15.668  0.00  0.00    +0.099 C 
BRANCH  15  18
ATOM      3  O   UNL     1      -2.996 -11.018  16.581  0.00  0.00    -0.276 OA
ATOM      7  N   UNL     1      -3.326 -10.573  14.323  0.00  0.00    -0.315 N 
ATOM     18  C   UNL     1      -3.736 -10.902  15.607  0.00  0.00    +0.213 C 
ATOM     31  H   UNL     1      -4.020 -10.491  13.586  0.00  0.00    +0.149 HD
BRANCH   7  19
ATOM     19  C   UNL     1      -1.946 -10.323  13.974  0.00  0.00    +0.115 C 
BRANCH  19  21
ATOM     21  C   UNL     1      -1.727 -10.195  12.473  0.00  0.00    +0.087 C 
BRANCH  21   1
ATOM      1  S   UNL     1      -3.046 -11.000  11.513  0.00  0.00    -0.163 S 
ATOM     28  C   UNL     1      -3.305  -9.698  10.286  0.00  0.00    +0.084 C 
ENDBRANCH  21   1
ENDBRANCH  19  21
ENDBRANCH   7  19
ENDBRANCH  15  18
ENDBRANCH   9  15
TORSDOF 10
ENDMDL
MODEL 6
REMARK VINA RESULT:      -5.5     18.227     20.892
REMARK  Name = 11912415
REMARK  13 active torsions:
REMARK  status: ('A' for Active; 'I' for Inactive)
REMARK    1  A    between atoms: S_1  and  C_21
REMARK    2  A    between atoms: S_1  and  C_28
REMARK    3  A    between atoms: O_4  and  C_27
REMARK    4  A    between atoms: O_4  and  C_29
REMARK    5  A    between atoms: N_7  and  C_19
REMARK    6  A    between atoms: N_8  and  C_20
REMARK    7  A    between atoms: C_9  and  C_15
REMARK    8  A    between atoms: C_10  and  C_14
REMARK    9  A    between atoms: C_14  and  C_16
REMARK   10  A    between atoms: C_15  and  C_18
REMARK   11  A    between atoms: C_19  and  C_21
REMARK   12  A    between atoms: C_24  and  C_27
REMARK   13  A    between atoms: C_29  and  C_30
REMARK                            x       y       z     vdW  Elec       q    Type
REMARK                         _______ _______ _______ _____ _____    ______ ____
ROOT
ATOM      2  O   UNL     1      17.776   5.812  19.103  0.00  0.00    -0.252 OA
ATOM      6  N   UNL     1      19.065   6.151  20.991  0.00  0.00    -0.285 N 
ATOM      8  N   UNL     1      16.871   7.011  20.871  0.00  0.00    -0.269 N 
ATOM      9  C   UNL     1      21.736   6.927  21.790  0.00  0.00    +0.004 C 
ATOM     10  C   UNL     1      20.485   7.618  22.397  0.00  0.00    +0.010 C 
ATOM     11  C   UNL     1      21.443   6.334  20.400  0.00  0.00    +0.023 C 
ATOM     12  C   UNL     1      19.292   6.648  22.357  0.00  0.00    +0.113 C 
ATOM     13  C   UNL     1      20.207   5.436  20.422  0.00  0.00    +0.109 C 
ATOM     17  C   UNL     1      17.879   6.283  20.238  0.00  0.00    +0.306 C 
ATOM     32  H   UNL     1      16.831   6.999  21.883  0.00  0.00    +0.156 HD
ENDROOT
BRANCH   8  20
ATOM     20  C   UNL     1      15.869   7.804  20.258  0.00  0.00    +0.036 A 
ATOM     22  C   UNL     1      14.668   7.220  19.856  0.00  0.00    +0.038 A 
ATOM     23  C   UNL     1      16.084   9.166  20.057  0.00  0.00    +0.023 A 
ATOM     24  C   UNL     1      13.682   8.000  19.252  0.00  0.00    +0.061 A 
ATOM     25  C   UNL     1      15.098   9.947  19.454  0.00  0.00    +0.003 A 
ATOM     26  C   UNL     1      13.896   9.363  19.052  0.00  0.00    +0.015 A 
BRANCH  24  27
ATOM      5  O   UNL     1      12.090   7.227  17.654  0.00  0.00    -0.245 OA
ATOM     27  C   UNL     1      12.429   7.393  18.833  0.00  0.00    +0.339 C 
BRANCH  27   4
ATOM      4  O   UNL     1      11.665   7.022  19.908  0.00  0.00    -0.461 OA
BRANCH   4  29
ATOM     29  C   UNL     1      10.929   8.058  20.565  0.00  0.00    +0.229 C 
ATOM     30  C   UNL     1      11.178   7.970  22.057  0.00  0.00    +0.048 C 
ENDBRANCH   4  29
ENDBRANCH  27   4
ENDBRANCH  24  27
ENDBRANCH   8  20
BRANCH  10  14
ATOM     14  C   UNL     1      20.119   8.947  21.727  0.00  0.00    +0.002 C 
ATOM     16  C   UNL     1      19.855  10.024  22.758  0.00  0.00    +0.004 C 
ENDBRANCH  10  14
BRANCH   9  15
ATOM     15  C   UNL     1      22.961   7.841  21.741  0.00  0.00    +0.099 C 
BRANCH  15  18
ATOM      3  O   UNL     1      25.340   7.597  22.103  0.00  0.00    -0.276 OA
ATOM      7  N   UNL     1      23.886   5.991  22.945  0.00  0.00    -0.315 N 
ATOM     18  C   UNL     1      24.205   7.159  22.268  0.00  0.00    +0.213 C 
ATOM     31  H   UNL     1      22.913   5.708  23.017  0.00  0.00    +0.149 HD
BRANCH   7  19
ATOM     19  C   UNL     1      24.879   5.134  23.552  0.00  0.00    +0.115 C 
BRANCH  19  21
ATOM     21  C   UNL     1      24.588   3.653  23.353  0.00  0.00    +0.087 C 
BRANCH  21   1
ATOM      1  S   UNL     1      22.846   3.345  22.934  0.00  0.00    -0.163 S 
ATOM     28  C   UNL     1      23.070   2.912  21.193  0.00  0.00    +0.084 C 
ENDBRANCH  21   1
ENDBRANCH  19  21
ENDBRANCH   7  19
ENDBRANCH  15  18
ENDBRANCH   9  15
TORSDOF 10
ENDMDL
MODEL 7
REMARK VINA RESULT:      -5.5     25.391     30.242
REMARK  Name = 11912415
REMARK  13 active torsions:
REMARK  status: ('A' for Active; 'I' for Inactive)
REMARK    1  A    between atoms: S_1  and  C_21
REMARK    2  A    between atoms: S_1  and  C_28
REMARK    3  A    between atoms: O_4  and  C_27
REMARK    4  A    between atoms: O_4  and  C_29
REMARK    5  A    between atoms: N_7  and  C_19
REMARK    6  A    between atoms: N_8  and  C_20
REMARK    7  A    between atoms: C_9  and  C_15
REMARK    8  A    between atoms: C_10  and  C_14
REMARK    9  A    between atoms: C_14  and  C_16
REMARK   10  A    between atoms: C_15  and  C_18
REMARK   11  A    between atoms: C_19  and  C_21
REMARK   12  A    between atoms: C_24  and  C_27
REMARK   13  A    between atoms: C_29  and  C_30
REMARK                            x       y       z     vdW  Elec       q    Type
REMARK                         _______ _______ _______ _____ _____    ______ ____
ROOT
ATOM      2  O   UNL     1      -8.090 -14.165  17.054  0.00  0.00    -0.252 OA
ATOM      6  N   UNL     1      -5.985 -13.388  17.608  0.00  0.00    -0.285 N 
ATOM      8  N   UNL     1      -7.718 -13.388  19.208  0.00  0.00    -0.269 N 
ATOM      9  C   UNL     1      -3.867 -11.694  16.598  0.00  0.00    +0.004 C 
ATOM     10  C   UNL     1      -4.423 -11.511  18.035  0.00  0.00    +0.010 C 
ATOM     11  C   UNL     1      -4.903 -12.346  15.663  0.00  0.00    +0.023 C 
ATOM     12  C   UNL     1      -4.985 -12.849  18.543  0.00  0.00    +0.113 C 
ATOM     13  C   UNL     1      -5.467 -13.633  16.261  0.00  0.00    +0.109 C 
ATOM     17  C   UNL     1      -7.330 -13.694  17.904  0.00  0.00    +0.306 C 
ATOM     32  H   UNL     1      -7.018 -13.419  19.939  0.00  0.00    +0.156 HD
ENDROOT
BRANCH   8  20
ATOM     20  C   UNL     1      -9.010 -13.013  19.655  0.00  0.00    +0.036 A 
ATOM     22  C   UNL     1      -9.614 -11.861  19.153  0.00  0.00    +0.038 A 
ATOM     23  C   UNL     1      -9.675 -13.797  20.597  0.00  0.00    +0.023 A 
ATOM     24  C   UNL     1     -10.885 -11.492  19.594  0.00  0.00    +0.061 A 
ATOM     25  C   UNL     1     -10.947 -13.428  21.037  0.00  0.00    +0.003 A 
ATOM     26  C   UNL     1     -11.551 -12.276  20.535  0.00  0.00    +0.015 A 
BRANCH  24  27
ATOM      5  O   UNL     1     -12.301  -9.577  19.709  0.00  0.00    -0.245 OA
ATOM     27  C   UNL     1     -11.517 -10.292  19.070  0.00  0.00    +0.339 C 
BRANCH  27   4
ATOM      4  O   UNL     1     -11.136 -10.045  17.779  0.00  0.00    -0.461 OA
BRANCH   4  29
ATOM     29  C   UNL     1     -10.902  -8.678  17.424  0.00  0.00    +0.229 C 
ATOM     30  C   UNL     1      -9.409  -8.430  17.377  0.00  0.00    +0.048 C 
ENDBRANCH   4  29
ENDBRANCH  27   4
ENDBRANCH  24  27
ENDBRANCH   8  20
BRANCH  10  14
ATOM     14  C   UNL     1      -5.475 -10.404  18.162  0.00  0.00    +0.002 C 
ATOM     16  C   UNL     1      -6.083 -10.384  19.549  0.00  0.00    +0.004 C 
ENDBRANCH  10  14
BRANCH   9  15
ATOM     15  C   UNL     1      -3.334 -10.395  15.991  0.00  0.00    +0.099 C 
BRANCH  15  18
ATOM      3  O   UNL     1      -1.136 -11.093  15.261  0.00  0.00    -0.276 OA
ATOM      7  N   UNL     1      -2.661 -10.300  13.696  0.00  0.00    -0.315 N 
ATOM     18  C   UNL     1      -2.243 -10.646  14.973  0.00  0.00    +0.213 C 
ATOM     31  H   UNL     1      -3.596  -9.927  13.563  0.00  0.00    +0.149 HD
BRANCH   7  19
ATOM     19  C   UNL     1      -1.821 -10.433  12.527  0.00  0.00    +0.115 C 
BRANCH  19  21
ATOM     21  C   UNL     1      -2.527 -10.033  11.240  0.00  0.00    +0.087 C 
BRANCH  21   1
ATOM      1  S   UNL     1      -3.634 -11.340  10.627  0.00  0.00    -0.163 S 
ATOM     28  C   UNL     1      -4.290 -10.469   9.185  0.00  0.00    +0.084 C 
ENDBRANCH  21   1
ENDBRANCH  19  21
ENDBRANCH   7  19
ENDBRANCH  15  18
ENDBRANCH   9  15
TORSDOF 10
ENDMDL
MODEL 8
REMARK VINA RESULT:      -5.4     25.405     27.256
REMARK  Name = 11912415
REMARK  13 active torsions:
REMARK  status: ('A' for Active; 'I' for Inactive)
REMARK    1  A    between atoms: S_1  and  C_21
REMARK    2  A    between atoms: S_1  and  C_28
REMARK    3  A    between atoms: O_4  and  C_27
REMARK    4  A    between atoms: O_4  and  C_29
REMARK    5  A    between atoms: N_7  and  C_19
REMARK    6  A    between atoms: N_8  and  C_20
REMARK    7  A    between atoms: C_9  and  C_15
REMARK    8  A    between atoms: C_10  and  C_14
REMARK    9  A    between atoms: C_14  and  C_16
REMARK   10  A    between atoms: C_15  and  C_18
REMARK   11  A    between atoms: C_19  and  C_21
REMARK   12  A    between atoms: C_24  and  C_27
REMARK   13  A    between atoms: C_29  and  C_30
REMARK                            x       y       z     vdW  Elec       q    Type
REMARK                         _______ _______ _______ _____ _____    ______ ____
ROOT
ATOM      2  O   UNL     1      -2.967 -12.831  14.670  0.00  0.00    -0.252 OA
ATOM      6  N   UNL     1      -3.187 -11.441  12.838  0.00  0.00    -0.285 N 
ATOM      8  N   UNL     1      -3.681 -10.649  15.005  0.00  0.00    -0.269 N 
ATOM      9  C   UNL     1      -4.245 -11.408  10.144  0.00  0.00    +0.004 C 
ATOM     10  C   UNL     1      -4.605 -10.291  11.161  0.00  0.00    +0.010 C 
ATOM     11  C   UNL     1      -3.858 -12.721  10.850  0.00  0.00    +0.023 C 
ATOM     12  C   UNL     1      -3.474 -10.150  12.192  0.00  0.00    +0.113 C 
ATOM     13  C   UNL     1      -2.778 -12.493  11.906  0.00  0.00    +0.109 C 
ATOM     17  C   UNL     1      -3.249 -11.719  14.220  0.00  0.00    +0.306 C 
ATOM     32  H   UNL     1      -3.490  -9.708  14.684  0.00  0.00    +0.156 HD
ENDROOT
BRANCH   8  20
ATOM     20  C   UNL     1      -4.390 -10.714  16.230  0.00  0.00    +0.036 A 
ATOM     22  C   UNL     1      -5.723 -10.307  16.287  0.00  0.00    +0.038 A 
ATOM     23  C   UNL     1      -3.755 -11.185  17.378  0.00  0.00    +0.023 A 
ATOM     24  C   UNL     1      -6.421 -10.370  17.493  0.00  0.00    +0.061 A 
ATOM     25  C   UNL     1      -4.453 -11.249  18.584  0.00  0.00    +0.003 A 
ATOM     26  C   UNL     1      -5.786 -10.842  18.641  0.00  0.00    +0.015 A 
BRANCH  24  27
ATOM      5  O   UNL     1      -8.710 -10.577  18.125  0.00  0.00    -0.245 OA
ATOM     27  C   UNL     1      -7.810  -9.947  17.553  0.00  0.00    +0.339 C 
BRANCH  27   4
ATOM      4  O   UNL     1      -8.004  -8.761  16.898  0.00  0.00    -0.461 OA
BRANCH   4  29
ATOM     29  C   UNL     1      -9.318  -8.511  16.388  0.00  0.00    +0.229 C 
ATOM     30  C   UNL     1      -9.419  -9.079  14.988  0.00  0.00    +0.048 C 
ENDBRANCH   4  29
ENDBRANCH  27   4
ENDBRANCH  24  27
ENDBRANCH   8  20
BRANCH  10  14
ATOM     14  C   UNL     1      -5.951 -10.500  11.866  0.00  0.00    +0.002 C 
ATOM     16  C   UNL     1      -6.449  -9.210  12.483  0.00  0.00    +0.004 C 
ENDBRANCH  10  14
BRANCH   9  15
ATOM     15  C   UNL     1      -5.343 -11.654   9.109  0.00  0.00    +0.099 C 
BRANCH  15  18
ATOM      3  O   UNL     1      -4.865  -9.788   7.647  0.00  0.00    -0.276 OA
ATOM      7  N   UNL     1      -7.016 -10.060   8.486  0.00  0.00    -0.315 N 
ATOM     18  C   UNL     1      -5.682 -10.405   8.326  0.00  0.00    +0.213 C 
ATOM     31  H   UNL     1      -7.609 -10.632   9.081  0.00  0.00    +0.149 HD
BRANCH   7  19
ATOM     19  C   UNL     1      -7.615  -8.907   7.853  0.00  0.00    +0.115 C 
BRANCH  19  21
ATOM     21  C   UNL     1      -8.137  -7.885   8.853  0.00  0.00    +0.087 C 
BRANCH  21   1
ATOM      1  S   UNL     1      -8.597  -6.316   8.057  0.00  0.00    -0.163 S 
ATOM     28  C   UNL     1      -9.337  -6.995   6.554  0.00  0.00    +0.084 C 
ENDBRANCH  21   1
ENDBRANCH  19  21
ENDBRANCH   7  19
ENDBRANCH  15  18
ENDBRANCH   9  15
TORSDOF 10
ENDMDL
MODEL 9
REMARK VINA RESULT:      -5.4     24.751     26.469
REMARK  Name = 11912415
REMARK  13 active torsions:
REMARK  status: ('A' for Active; 'I' for Inactive)
REMARK    1  A    between atoms: S_1  and  C_21
REMARK    2  A    between atoms: S_1  and  C_28
REMARK    3  A    between atoms: O_4  and  C_27
REMARK    4  A    between atoms: O_4  and  C_29
REMARK    5  A    between atoms: N_7  and  C_19
REMARK    6  A    between atoms: N_8  and  C_20
REMARK    7  A    between atoms: C_9  and  C_15
REMARK    8  A    between atoms: C_10  and  C_14
REMARK    9  A    between atoms: C_14  and  C_16
REMARK   10  A    between atoms: C_15  and  C_18
REMARK   11  A    between atoms: C_19  and  C_21
REMARK   12  A    between atoms: C_24  and  C_27
REMARK   13  A    between atoms: C_29  and  C_30
REMARK                            x       y       z     vdW  Elec       q    Type
REMARK                         _______ _______ _______ _____ _____    ______ ____
ROOT
ATOM      2  O   UNL     1      -3.157 -12.895  11.679  0.00  0.00    -0.252 OA
ATOM      6  N   UNL     1      -3.685 -11.281  10.111  0.00  0.00    -0.285 N 
ATOM      8  N   UNL     1      -2.908 -10.660  12.251  0.00  0.00    -0.269 N 
ATOM      9  C   UNL     1      -5.730 -10.593   8.183  0.00  0.00    +0.004 C 
ATOM     10  C   UNL     1      -5.233  -9.558   9.228  0.00  0.00    +0.010 C 
ATOM     11  C   UNL     1      -5.523 -12.040   8.668  0.00  0.00    +0.023 C 
ATOM     12  C   UNL     1      -3.789  -9.893   9.636  0.00  0.00    +0.113 C 
ATOM     13  C   UNL     1      -4.084 -12.280   9.119  0.00  0.00    +0.109 C 
ATOM     17  C   UNL     1      -3.229 -11.701  11.379  0.00  0.00    +0.306 C 
ATOM     32  H   UNL     1      -2.582  -9.786  11.858  0.00  0.00    +0.156 HD
ENDROOT
BRANCH   8  20
ATOM     20  C   UNL     1      -2.996 -10.666  13.665  0.00  0.00    +0.036 A 
ATOM     22  C   UNL     1      -4.245 -10.669  14.286  0.00  0.00    +0.038 A 
ATOM     23  C   UNL     1      -1.834 -10.669  14.435  0.00  0.00    +0.023 A 
ATOM     24  C   UNL     1      -4.331 -10.673  15.678  0.00  0.00    +0.061 A 
ATOM     25  C   UNL     1      -1.920 -10.674  15.827  0.00  0.00    +0.003 A 
ATOM     26  C   UNL     1      -3.169 -10.677  16.449  0.00  0.00    +0.015 A 
BRANCH  24  27
ATOM      5  O   UNL     1      -6.713 -10.778  15.730  0.00  0.00    -0.245 OA
ATOM     27  C   UNL     1      -5.632 -10.677  16.326  0.00  0.00    +0.339 C 
BRANCH  27   4
ATOM      4  O   UNL     1      -5.518 -10.558  17.685  0.00  0.00    -0.461 OA
BRANCH   4  29
ATOM     29  C   UNL     1      -6.391 -11.367  18.481  0.00  0.00    +0.229 C 
ATOM     30  C   UNL     1      -5.944 -11.299  19.927  0.00  0.00    +0.048 C 
ENDBRANCH   4  29
ENDBRANCH  27   4
ENDBRANCH  24  27
ENDBRANCH   8  20
BRANCH  10  14
ATOM     14  C   UNL     1      -6.128  -9.444  10.467  0.00  0.00    +0.002 C 
ATOM     16  C   UNL     1      -5.582  -8.423  11.444  0.00  0.00    +0.004 C 
ENDBRANCH  10  14
BRANCH   9  15
ATOM     15  C   UNL     1      -7.182 -10.368   7.759  0.00  0.00    +0.099 C 
BRANCH  15  18
ATOM      3  O   UNL     1      -6.709  -9.104   5.751  0.00  0.00    -0.276 OA
ATOM      7  N   UNL     1      -8.229  -8.266   7.297  0.00  0.00    -0.315 N 
ATOM     18  C   UNL     1      -7.325  -9.199   6.809  0.00  0.00    +0.213 C 
ATOM     31  H   UNL     1      -8.679  -8.431   8.192  0.00  0.00    +0.149 HD
BRANCH   7  19
ATOM     19  C   UNL     1      -8.560  -7.045   6.596  0.00  0.00    +0.115 C 
BRANCH  19  21
ATOM     21  C   UNL     1      -9.907  -7.112   5.891  0.00  0.00    +0.087 C 
BRANCH  21   1
ATOM      1  S   UNL     1      -9.733  -7.305   4.091  0.00  0.00    -0.163 S 
ATOM     28  C   UNL     1      -9.922  -9.100   4.002  0.00  0.00    +0.084 C 
ENDBRANCH  21   1
ENDBRANCH  19  21
ENDBRANCH   7  19
ENDBRANCH  15  18
ENDBRANCH   9  15
TORSDOF 10
ENDMDL
MODEL 10
REMARK VINA RESULT:      -5.4     26.569     31.442
REMARK  Name = 11912415
REMARK  13 active torsions:
REMARK  status: ('A' for Active; 'I' for Inactive)
REMARK    1  A    between atoms: S_1  and  C_21
REMARK    2  A    between atoms: S_1  and  C_28
REMARK    3  A    between atoms: O_4  and  C_27
REMARK    4  A    between atoms: O_4  and  C_29
REMARK    5  A    between atoms: N_7  and  C_19
REMARK    6  A    between atoms: N_8  and  C_20
REMARK    7  A    between atoms: C_9  and  C_15
REMARK    8  A    between atoms: C_10  and  C_14
REMARK    9  A    between atoms: C_14  and  C_16
REMARK   10  A    between atoms: C_15  and  C_18
REMARK   11  A    between atoms: C_19  and  C_21
REMARK   12  A    between atoms: C_24  and  C_27
REMARK   13  A    between atoms: C_29  and  C_30
REMARK                            x       y       z     vdW  Elec       q    Type
REMARK                         _______ _______ _______ _____ _____    ______ ____
ROOT
ATOM      2  O   UNL     1      -7.801 -10.137  14.725  0.00  0.00    -0.252 OA
ATOM      6  N   UNL     1      -9.371  -8.932  15.918  0.00  0.00    -0.285 N 
ATOM      8  N   UNL     1      -7.182  -9.201  16.755  0.00  0.00    -0.269 N 
ATOM      9  C   UNL     1     -12.131  -9.053  16.779  0.00  0.00    +0.004 C 
ATOM     10  C   UNL     1     -10.989  -8.755  17.787  0.00  0.00    +0.010 C 
ATOM     11  C   UNL     1     -11.624  -9.844  15.559  0.00  0.00    +0.023 C 
ATOM     12  C   UNL     1      -9.809  -8.100  17.049  0.00  0.00    +0.113 C 
ATOM     13  C   UNL     1     -10.412  -9.170  14.918  0.00  0.00    +0.109 C 
ATOM     17  C   UNL     1      -8.080  -9.467  15.722  0.00  0.00    +0.306 C 
ATOM     32  H   UNL     1      -7.303  -8.350  17.292  0.00  0.00    +0.156 HD
ENDROOT
BRANCH   8  20
ATOM     20  C   UNL     1      -6.091 -10.003  17.174  0.00  0.00    +0.036 A 
ATOM     22  C   UNL     1      -4.935 -10.069  16.396  0.00  0.00    +0.038 A 
ATOM     23  C   UNL     1      -6.174 -10.726  18.363  0.00  0.00    +0.023 A 
ATOM     24  C   UNL     1      -3.862 -10.859  16.808  0.00  0.00    +0.061 A 
ATOM     25  C   UNL     1      -5.101 -11.516  18.775  0.00  0.00    +0.003 A 
ATOM     26  C   UNL     1      -3.945 -11.582  17.998  0.00  0.00    +0.015 A 
BRANCH  24  27
ATOM      5  O   UNL     1      -1.536 -10.558  16.377  0.00  0.00    -0.245 OA
ATOM     27  C   UNL     1      -2.656 -10.927  15.999  0.00  0.00    +0.339 C 
BRANCH  27   4
ATOM      4  O   UNL     1      -2.909 -11.455  14.761  0.00  0.00    -0.461 OA
BRANCH   4  29
ATOM     29  C   UNL     1      -2.510 -10.673  13.631  0.00  0.00    +0.229 C 
ATOM     30  C   UNL     1      -3.705 -10.474  12.722  0.00  0.00    +0.048 C 
ENDBRANCH   4  29
ENDBRANCH  27   4
ENDBRANCH  24  27
ENDBRANCH   8  20
BRANCH  10  14
ATOM     14  C   UNL     1     -10.515  -9.982  18.574  0.00  0.00    +0.002 C 
ATOM     16  C   UNL     1     -11.026  -9.949  19.999  0.00  0.00    +0.004 C 
ENDBRANCH  10  14
BRANCH   9  15
ATOM     15  C   UNL     1     -13.328  -9.756  17.419  0.00  0.00    +0.099 C 
BRANCH  15  18
ATOM      3  O   UNL     1     -15.687  -9.867  16.892  0.00  0.00    -0.276 OA
ATOM      7  N   UNL     1     -14.517  -7.899  16.489  0.00  0.00    -0.315 N 
ATOM     18  C   UNL     1     -14.647  -9.213  16.916  0.00  0.00    +0.213 C 
ATOM     31  H   UNL     1     -13.608  -7.448  16.539  0.00  0.00    +0.149 HD
BRANCH   7  19
ATOM     19  C   UNL     1     -15.618  -7.129  15.955  0.00  0.00    +0.115 C 
BRANCH  19  21
ATOM     21  C   UNL     1     -15.242  -6.339  14.710  0.00  0.00    +0.087 C 
BRANCH  21   1
ATOM      1  S   UNL     1     -13.724  -6.967  13.928  0.00  0.00    -0.163 S 
ATOM     28  C   UNL     1     -12.601  -5.649  14.446  0.00  0.00    +0.084 C 
ENDBRANCH  21   1
ENDBRANCH  19  21
ENDBRANCH   7  19
ENDBRANCH  15  18
ENDBRANCH   9  15
TORSDOF 10
ENDMDL
