MODEL 1
REMARK VINA RESULT:      -7.4      0.000      0.000
REMARK  Name = 45361417
REMARK  14 active torsions:
REMARK  status: ('A' for Active; 'I' for Inactive)
REMARK    1  A    between atoms: O_2  and  C_10
REMARK    2  A    between atoms: N_5  and  C_14
REMARK    3  A    between atoms: N_6  and  C_25
REMARK    4  A    between atoms: C_7  and  C_17
REMARK    5  A    between atoms: C_9  and  C_19
REMARK    6  A    between atoms: C_13  and  C_18
REMARK    7  A    between atoms: C_18  and  C_20
REMARK    8  A    between atoms: C_18  and  C_21
REMARK    9  A    between atoms: C_22  and  C_23
REMARK   10  A    between atoms: C_23  and  C_24
REMARK   11  A    between atoms: C_24  and  C_26
REMARK   12  A    between atoms: C_24  and  C_27
REMARK   13  A    between atoms: C_24  and  C_28
REMARK   14  A    between atoms: C_25  and  C_29
REMARK                            x       y       z     vdW  Elec       q    Type
REMARK                         _______ _______ _______ _____ _____    ______ ____
ROOT
ATOM      7  C   UNL     1     -16.250   6.294  21.861  0.00  0.00    -0.027 C 
ATOM      8  C   UNL     1     -14.859   5.914  22.471  0.00  0.00    +0.028 C 
ATOM      9  C   UNL     1     -13.740   5.935  21.369  0.00  0.00    +0.012 C 
ATOM     10  C   UNL     1     -14.950   4.604  23.306  0.00  0.00    +0.122 C 
ATOM     11  C   UNL     1     -17.304   6.374  22.989  0.00  0.00    +0.007 C 
ATOM     12  C   UNL     1     -16.149   7.694  21.211  0.00  0.00    +0.009 C 
ATOM     13  C   UNL     1     -16.077   4.651  24.365  0.00  0.00    +0.029 C 
ATOM     14  C   UNL     1     -13.698   7.323  20.671  0.00  0.00    +0.076 C 
ATOM     15  C   UNL     1     -17.424   5.081  23.784  0.00  0.00    +0.007 C 
ATOM     16  C   UNL     1     -15.061   7.783  20.150  0.00  0.00    +0.023 C 
ATOM     17  C   UNL     1     -16.732   5.272  20.800  0.00  0.00    +0.011 C 
ATOM     19  C   UNL     1     -12.340   5.598  21.908  0.00  0.00    +0.010 C 
ENDROOT
BRANCH  14   5
ATOM      4  O   UNL     1     -11.589   9.251  20.197  0.00  0.00    -0.276 OA
ATOM      5  N   UNL     1     -12.757   7.342  19.570  0.00  0.00    -0.312 N 
ATOM     22  C   UNL     1     -11.779   8.310  19.430  0.00  0.00    +0.214 C 
ATOM     35  H   UNL     1     -12.853   6.626  18.858  0.00  0.00    +0.149 HD
BRANCH  22  23
ATOM     23  C   UNL     1     -10.925   8.112  18.188  0.00  0.00    +0.102 C 
BRANCH  23  24
ATOM     24  C   UNL     1     -11.120   9.186  17.091  0.00  0.00    -0.029 C 
ATOM     26  C   UNL     1     -12.563   9.714  17.072  0.00  0.00    +0.011 C 
ATOM     27  C   UNL     1     -10.821   8.534  15.727  0.00  0.00    +0.011 C 
ATOM     28  C   UNL     1     -10.151  10.363  17.290  0.00  0.00    +0.011 C 
ENDBRANCH  23  24
ENDBRANCH  22  23
ENDBRANCH  14   5
BRANCH  10   2
ATOM      2  O   UNL     1     -13.728   4.408  24.019  0.00  0.00    -0.391 OA
ATOM     36  H   UNL     1     -13.947   4.205  24.944  0.00  0.00    +0.210 HD
ENDBRANCH  10   2
BRANCH  13  18
ATOM     18  C   UNL     1     -16.235   3.308  25.087  0.00  0.00    +0.077 C 
ATOM     20  C   UNL     1     -17.180   2.400  24.306  0.00  0.00    +0.017 C 
BRANCH  18  21
ATOM      3  O   UNL     1     -17.929   3.579  26.797  0.00  0.00    -0.276 OA
ATOM      6  N   UNL     1     -15.697   3.693  27.419  0.00  0.00    -0.311 N 
ATOM     21  C   UNL     1     -16.734   3.538  26.510  0.00  0.00    +0.216 C 
ATOM     37  H   UNL     1     -14.736   3.594  27.111  0.00  0.00    +0.149 HD
BRANCH   6  25
ATOM     25  C   UNL     1     -15.921   3.924  28.827  0.00  0.00    +0.139 C 
BRANCH  25  29
ATOM      1  F   UNL     1     -14.849  -0.663  31.912  0.00  0.00    -0.205 F 
ATOM     29  C   UNL     1     -15.636   2.701  29.649  0.00  0.00    -0.030 A 
ATOM     30  C   UNL     1     -15.254   2.832  30.984  0.00  0.00    +0.008 A 
ATOM     31  C   UNL     1     -15.751   1.434  29.079  0.00  0.00    +0.008 A 
ATOM     32  C   UNL     1     -14.988   1.696  31.749  0.00  0.00    +0.038 A 
ATOM     33  C   UNL     1     -15.485   0.297  29.843  0.00  0.00    +0.038 A 
ATOM     34  C   UNL     1     -15.103   0.428  31.178  0.00  0.00    +0.123 A 
ENDBRANCH  25  29
ENDBRANCH   6  25
ENDBRANCH  18  21
ENDBRANCH  13  18
TORSDOF 8
ENDMDL
MODEL 2
REMARK VINA RESULT:      -7.1     19.108     22.439
REMARK  Name = 45361417
REMARK  14 active torsions:
REMARK  status: ('A' for Active; 'I' for Inactive)
REMARK    1  A    between atoms: O_2  and  C_10
REMARK    2  A    between atoms: N_5  and  C_14
REMARK    3  A    between atoms: N_6  and  C_25
REMARK    4  A    between atoms: C_7  and  C_17
REMARK    5  A    between atoms: C_9  and  C_19
REMARK    6  A    between atoms: C_13  and  C_18
REMARK    7  A    between atoms: C_18  and  C_20
REMARK    8  A    between atoms: C_18  and  C_21
REMARK    9  A    between atoms: C_22  and  C_23
REMARK   10  A    between atoms: C_23  and  C_24
REMARK   11  A    between atoms: C_24  and  C_26
REMARK   12  A    between atoms: C_24  and  C_27
REMARK   13  A    between atoms: C_24  and  C_28
REMARK   14  A    between atoms: C_25  and  C_29
REMARK                            x       y       z     vdW  Elec       q    Type
REMARK                         _______ _______ _______ _____ _____    ______ ____
ROOT
ATOM      7  C   UNL     1      -4.825 -11.079  16.780  0.00  0.00    -0.027 C 
ATOM      8  C   UNL     1      -5.584 -10.506  15.536  0.00  0.00    +0.028 C 
ATOM      9  C   UNL     1      -7.137 -10.674  15.703  0.00  0.00    +0.012 C 
ATOM     10  C   UNL     1      -4.990 -11.061  14.209  0.00  0.00    +0.122 C 
ATOM     11  C   UNL     1      -3.312 -10.797  16.636  0.00  0.00    +0.007 C 
ATOM     12  C   UNL     1      -5.320 -10.352  18.051  0.00  0.00    +0.009 C 
ATOM     13  C   UNL     1      -3.459 -10.868  14.117  0.00  0.00    +0.029 C 
ATOM     14  C   UNL     1      -7.613 -10.004  17.022  0.00  0.00    +0.076 C 
ATOM     15  C   UNL     1      -2.719 -11.373  15.356  0.00  0.00    +0.007 C 
ATOM     16  C   UNL     1      -6.826 -10.458  18.252  0.00  0.00    +0.023 C 
ATOM     17  C   UNL     1      -5.033 -12.605  16.951  0.00  0.00    +0.011 C 
ATOM     19  C   UNL     1      -7.948 -10.105  14.526  0.00  0.00    +0.010 C 
ENDROOT
BRANCH  14   5
ATOM      4  O   UNL     1      -9.638  -8.035  17.664  0.00  0.00    -0.276 OA
ATOM      5  N   UNL     1      -9.021 -10.240  17.266  0.00  0.00    -0.312 N 
ATOM     22  C   UNL     1      -9.915  -9.229  17.567  0.00  0.00    +0.214 C 
ATOM     35  H   UNL     1      -9.346 -11.201  17.247  0.00  0.00    +0.149 HD
BRANCH  22  23
ATOM     23  C   UNL     1     -11.331  -9.736  17.787  0.00  0.00    +0.102 C 
BRANCH  23  24
ATOM     24  C   UNL     1     -11.559 -10.448  19.142  0.00  0.00    -0.029 C 
ATOM     26  C   UNL     1     -11.905 -11.932  18.947  0.00  0.00    +0.011 C 
ATOM     27  C   UNL     1     -12.744  -9.760  19.849  0.00  0.00    +0.011 C 
ATOM     28  C   UNL     1     -10.320 -10.330  20.045  0.00  0.00    +0.011 C 
ENDBRANCH  23  24
ENDBRANCH  22  23
ENDBRANCH  14   5
BRANCH  10   2
ATOM      2  O   UNL     1      -5.558 -10.358  13.103  0.00  0.00    -0.391 OA
ATOM     36  H   UNL     1      -5.247  -9.438  13.138  0.00  0.00    +0.210 HD
ENDBRANCH  10   2
BRANCH  13  18
ATOM     18  C   UNL     1      -2.876 -11.536  12.865  0.00  0.00    +0.077 C 
ATOM     20  C   UNL     1      -1.662 -12.380  13.239  0.00  0.00    +0.017 C 
BRANCH  18  21
ATOM      3  O   UNL     1      -1.416  -9.933  11.786  0.00  0.00    -0.276 OA
ATOM      6  N   UNL     1      -3.567 -10.204  10.963  0.00  0.00    -0.311 N 
ATOM     21  C   UNL     1      -2.518 -10.475  11.829  0.00  0.00    +0.216 C 
ATOM     37  H   UNL     1      -4.430 -10.732  11.032  0.00  0.00    +0.149 HD
BRANCH   6  25
ATOM     25  C   UNL     1      -3.469  -9.233   9.897  0.00  0.00    +0.139 C 
BRANCH  25  29
ATOM      1  F   UNL     1      -8.315  -8.709   7.078  0.00  0.00    -0.205 F 
ATOM     29  C   UNL     1      -4.761  -9.093   9.145  0.00  0.00    -0.030 A 
ATOM     30  C   UNL     1      -5.758  -8.245   9.625  0.00  0.00    +0.008 A 
ATOM     31  C   UNL     1      -4.964  -9.812   7.968  0.00  0.00    +0.008 A 
ATOM     32  C   UNL     1      -6.959  -8.115   8.927  0.00  0.00    +0.038 A 
ATOM     33  C   UNL     1      -6.165  -9.683   7.269  0.00  0.00    +0.038 A 
ATOM     34  C   UNL     1      -7.163  -8.834   7.749  0.00  0.00    +0.123 A 
ENDBRANCH  25  29
ENDBRANCH   6  25
ENDBRANCH  18  21
ENDBRANCH  13  18
TORSDOF 8
ENDMDL
MODEL 3
REMARK VINA RESULT:      -7.0     29.010     31.990
REMARK  Name = 45361417
REMARK  14 active torsions:
REMARK  status: ('A' for Active; 'I' for Inactive)
REMARK    1  A    between atoms: O_2  and  C_10
REMARK    2  A    between atoms: N_5  and  C_14
REMARK    3  A    between atoms: N_6  and  C_25
REMARK    4  A    between atoms: C_7  and  C_17
REMARK    5  A    between atoms: C_9  and  C_19
REMARK    6  A    between atoms: C_13  and  C_18
REMARK    7  A    between atoms: C_18  and  C_20
REMARK    8  A    between atoms: C_18  and  C_21
REMARK    9  A    between atoms: C_22  and  C_23
REMARK   10  A    between atoms: C_23  and  C_24
REMARK   11  A    between atoms: C_24  and  C_26
REMARK   12  A    between atoms: C_24  and  C_27
REMARK   13  A    between atoms: C_24  and  C_28
REMARK   14  A    between atoms: C_25  and  C_29
REMARK                            x       y       z     vdW  Elec       q    Type
REMARK                         _______ _______ _______ _____ _____    ______ ____
ROOT
ATOM      7  C   UNL     1       9.798   6.543   6.601  0.00  0.00    -0.027 C 
ATOM      8  C   UNL     1      10.302   7.483   5.454  0.00  0.00    +0.028 C 
ATOM      9  C   UNL     1      11.378   6.757   4.570  0.00  0.00    +0.012 C 
ATOM     10  C   UNL     1      10.719   8.875   6.009  0.00  0.00    +0.122 C 
ATOM     11  C   UNL     1       8.661   7.244   7.380  0.00  0.00    +0.007 C 
ATOM     12  C   UNL     1       9.215   5.254   5.977  0.00  0.00    +0.009 C 
ATOM     13  C   UNL     1       9.616   9.525   6.875  0.00  0.00    +0.029 C 
ATOM     14  C   UNL     1      10.806   5.425   4.009  0.00  0.00    +0.076 C 
ATOM     15  C   UNL     1       9.079   8.589   7.959  0.00  0.00    +0.007 C 
ATOM     16  C   UNL     1      10.207   4.520   5.086  0.00  0.00    +0.023 C 
ATOM     17  C   UNL     1      10.924   6.164   7.596  0.00  0.00    +0.011 C 
ATOM     19  C   UNL     1      11.896   7.616   3.404  0.00  0.00    +0.010 C 
ENDROOT
BRANCH  14   5
ATOM      4  O   UNL     1      10.454   3.950   1.542  0.00  0.00    -0.276 OA
ATOM      5  N   UNL     1      11.810   4.673   3.284  0.00  0.00    -0.312 N 
ATOM     22  C   UNL     1      11.544   3.998   2.107  0.00  0.00    +0.214 C 
ATOM     35  H   UNL     1      12.739   4.619   3.689  0.00  0.00    +0.149 HD
BRANCH  22  23
ATOM     23  C   UNL     1      12.762   3.280   1.548  0.00  0.00    +0.102 C 
BRANCH  23  24
ATOM     24  C   UNL     1      13.420   3.976   0.333  0.00  0.00    -0.029 C 
ATOM     26  C   UNL     1      13.011   5.454   0.241  0.00  0.00    +0.011 C 
ATOM     27  C   UNL     1      12.943   3.257  -0.945  0.00  0.00    +0.011 C 
ATOM     28  C   UNL     1      14.954   3.876   0.403  0.00  0.00    +0.011 C 
ENDBRANCH  23  24
ENDBRANCH  22  23
ENDBRANCH  14   5
BRANCH  10   2
ATOM      2  O   UNL     1      10.965   9.767   4.922  0.00  0.00    -0.391 OA
ATOM     36  H   UNL     1      11.926   9.884   4.838  0.00  0.00    +0.210 HD
ENDBRANCH  10   2
BRANCH  13  18
ATOM     18  C   UNL     1      10.094  10.833   7.519  0.00  0.00    +0.077 C 
ATOM     20  C   UNL     1      10.163  10.677   9.034  0.00  0.00    +0.017 C 
BRANCH  18  21
ATOM      3  O   UNL     1       9.049  13.000   7.789  0.00  0.00    -0.276 OA
ATOM      6  N   UNL     1       8.496  11.727   5.931  0.00  0.00    -0.311 N 
ATOM     21  C   UNL     1       9.169  11.978   7.118  0.00  0.00    +0.216 C 
ATOM     37  H   UNL     1       8.689  10.879   5.409  0.00  0.00    +0.149 HD
BRANCH   6  25
ATOM     25  C   UNL     1       7.562  12.663   5.350  0.00  0.00    +0.139 C 
BRANCH  25  29
ATOM      1  F   UNL     1       3.644  10.074   2.245  0.00  0.00    -0.205 F 
ATOM     29  C   UNL     1       6.517  11.973   4.523  0.00  0.00    -0.030 A 
ATOM     30  C   UNL     1       6.746  10.683   4.044  0.00  0.00    +0.008 A 
ATOM     31  C   UNL     1       5.317  12.621   4.231  0.00  0.00    +0.008 A 
ATOM     32  C   UNL     1       5.777  10.041   3.274  0.00  0.00    +0.038 A 
ATOM     33  C   UNL     1       4.346  11.980   3.461  0.00  0.00    +0.038 A 
ATOM     34  C   UNL     1       4.576  10.690   2.983  0.00  0.00    +0.123 A 
ENDBRANCH  25  29
ENDBRANCH   6  25
ENDBRANCH  18  21
ENDBRANCH  13  18
TORSDOF 8
ENDMDL
MODEL 4
REMARK VINA RESULT:      -7.0     29.983     35.339
REMARK  Name = 45361417
REMARK  14 active torsions:
REMARK  status: ('A' for Active; 'I' for Inactive)
REMARK    1  A    between atoms: O_2  and  C_10
REMARK    2  A    between atoms: N_5  and  C_14
REMARK    3  A    between atoms: N_6  and  C_25
REMARK    4  A    between atoms: C_7  and  C_17
REMARK    5  A    between atoms: C_9  and  C_19
REMARK    6  A    between atoms: C_13  and  C_18
REMARK    7  A    between atoms: C_18  and  C_20
REMARK    8  A    between atoms: C_18  and  C_21
REMARK    9  A    between atoms: C_22  and  C_23
REMARK   10  A    between atoms: C_23  and  C_24
REMARK   11  A    between atoms: C_24  and  C_26
REMARK   12  A    between atoms: C_24  and  C_27
REMARK   13  A    between atoms: C_24  and  C_28
REMARK   14  A    between atoms: C_25  and  C_29
REMARK                            x       y       z     vdW  Elec       q    Type
REMARK                         _______ _______ _______ _____ _____    ______ ____
ROOT
ATOM      7  C   UNL     1      13.661   5.023   0.847  0.00  0.00    -0.027 C 
ATOM      8  C   UNL     1      12.104   5.131   0.973  0.00  0.00    +0.028 C 
ATOM      9  C   UNL     1      11.665   5.152   2.481  0.00  0.00    +0.012 C 
ATOM     10  C   UNL     1      11.392   4.071   0.084  0.00  0.00    +0.122 C 
ATOM     11  C   UNL     1      14.066   5.119  -0.642  0.00  0.00    +0.007 C 
ATOM     12  C   UNL     1      14.310   6.214   1.589  0.00  0.00    +0.009 C 
ATOM     13  C   UNL     1      11.879   4.103  -1.384  0.00  0.00    +0.029 C 
ATOM     14  C   UNL     1      12.382   6.308   3.235  0.00  0.00    +0.076 C 
ATOM     15  C   UNL     1      13.402   4.058  -1.509  0.00  0.00    +0.007 C 
ATOM     16  C   UNL     1      13.900   6.302   3.052  0.00  0.00    +0.023 C 
ATOM     17  C   UNL     1      14.213   3.697   1.429  0.00  0.00    +0.011 C 
ATOM     19  C   UNL     1      10.146   5.286   2.678  0.00  0.00    +0.010 C 
ENDROOT
BRANCH  14   5
ATOM      4  O   UNL     1      10.894   8.274   4.753  0.00  0.00    -0.276 OA
ATOM      5  N   UNL     1      12.090   6.285   4.653  0.00  0.00    -0.312 N 
ATOM     22  C   UNL     1      11.367   7.276   5.291  0.00  0.00    +0.214 C 
ATOM     35  H   UNL     1      12.470   5.518   5.198  0.00  0.00    +0.149 HD
BRANCH  22  23
ATOM     23  C   UNL     1      11.205   7.025   6.782  0.00  0.00    +0.102 C 
BRANCH  23  24
ATOM     24  C   UNL     1       9.768   6.658   7.222  0.00  0.00    -0.029 C 
ATOM     26  C   UNL     1       8.972   7.905   7.638  0.00  0.00    +0.011 C 
ATOM     27  C   UNL     1       9.868   5.715   8.438  0.00  0.00    +0.011 C 
ATOM     28  C   UNL     1       9.015   5.925   6.100  0.00  0.00    +0.011 C 
ENDBRANCH  23  24
ENDBRANCH  22  23
ENDBRANCH  14   5
BRANCH  10   2
ATOM      2  O   UNL     1       9.990   4.337   0.056  0.00  0.00    -0.391 OA
ATOM     36  H   UNL     1       9.709   4.575   0.955  0.00  0.00    +0.210 HD
ENDBRANCH  10   2
BRANCH  13  18
ATOM     18  C   UNL     1      11.263   2.968  -2.212  0.00  0.00    +0.077 C 
ATOM     20  C   UNL     1      12.359   2.042  -2.729  0.00  0.00    +0.017 C 
BRANCH  18  21
ATOM      3  O   UNL     1      10.722   3.366  -4.538  0.00  0.00    -0.276 OA
ATOM      6  N   UNL     1       9.354   4.289  -2.908  0.00  0.00    -0.311 N 
ATOM     21  C   UNL     1      10.438   3.548  -3.356  0.00  0.00    +0.216 C 
ATOM     37  H   UNL     1       9.158   4.349  -1.914  0.00  0.00    +0.149 HD
BRANCH   6  25
ATOM     25  C   UNL     1       8.427   4.939  -3.805  0.00  0.00    +0.139 C 
BRANCH  25  29
ATOM      1  F   UNL     1       6.284   9.641  -1.570  0.00  0.00    -0.205 F 
ATOM     29  C   UNL     1       7.855   6.192  -3.210  0.00  0.00    -0.030 A 
ATOM     30  C   UNL     1       8.663   7.029  -2.439  0.00  0.00    +0.008 A 
ATOM     31  C   UNL     1       6.518   6.521  -3.426  0.00  0.00    +0.008 A 
ATOM     32  C   UNL     1       8.133   8.194  -1.885  0.00  0.00    +0.038 A 
ATOM     33  C   UNL     1       5.986   7.686  -2.872  0.00  0.00    +0.038 A 
ATOM     34  C   UNL     1       6.794   8.522  -2.101  0.00  0.00    +0.123 A 
ENDBRANCH  25  29
ENDBRANCH   6  25
ENDBRANCH  18  21
ENDBRANCH  13  18
TORSDOF 8
ENDMDL
MODEL 5
REMARK VINA RESULT:      -6.8     27.386     32.094
REMARK  Name = 45361417
REMARK  14 active torsions:
REMARK  status: ('A' for Active; 'I' for Inactive)
REMARK    1  A    between atoms: O_2  and  C_10
REMARK    2  A    between atoms: N_5  and  C_14
REMARK    3  A    between atoms: N_6  and  C_25
REMARK    4  A    between atoms: C_7  and  C_17
REMARK    5  A    between atoms: C_9  and  C_19
REMARK    6  A    between atoms: C_13  and  C_18
REMARK    7  A    between atoms: C_18  and  C_20
REMARK    8  A    between atoms: C_18  and  C_21
REMARK    9  A    between atoms: C_22  and  C_23
REMARK   10  A    between atoms: C_23  and  C_24
REMARK   11  A    between atoms: C_24  and  C_26
REMARK   12  A    between atoms: C_24  and  C_27
REMARK   13  A    between atoms: C_24  and  C_28
REMARK   14  A    between atoms: C_25  and  C_29
REMARK                            x       y       z     vdW  Elec       q    Type
REMARK                         _______ _______ _______ _____ _____    ______ ____
ROOT
ATOM      7  C   UNL     1      15.654   9.990  21.398  0.00  0.00    -0.027 C 
ATOM      8  C   UNL     1      15.601   8.435  21.575  0.00  0.00    +0.028 C 
ATOM      9  C   UNL     1      16.923   7.768  21.053  0.00  0.00    +0.012 C 
ATOM     10  C   UNL     1      14.281   7.847  20.997  0.00  0.00    +0.122 C 
ATOM     11  C   UNL     1      14.390  10.624  22.024  0.00  0.00    +0.007 C 
ATOM     12  C   UNL     1      16.882  10.542  22.158  0.00  0.00    +0.009 C 
ATOM     13  C   UNL     1      13.023   8.557  21.548  0.00  0.00    +0.029 C 
ATOM     14  C   UNL     1      18.158   8.384  21.770  0.00  0.00    +0.076 C 
ATOM     15  C   UNL     1      13.097  10.079  21.432  0.00  0.00    +0.007 C 
ATOM     16  C   UNL     1      18.194   9.911  21.712  0.00  0.00    +0.023 C 
ATOM     17  C   UNL     1      15.741  10.415  19.911  0.00  0.00    +0.011 C 
ATOM     19  C   UNL     1      16.950   6.239  21.224  0.00  0.00    +0.010 C 
ENDROOT
BRANCH  14   5
ATOM      4  O   UNL     1      20.387   7.271  23.246  0.00  0.00    -0.276 OA
ATOM      5  N   UNL     1      19.401   7.874  21.231  0.00  0.00    -0.312 N 
ATOM     22  C   UNL     1      20.412   7.360  22.021  0.00  0.00    +0.214 C 
ATOM     35  H   UNL     1      19.538   7.936  20.226  0.00  0.00    +0.149 HD
BRANCH  22  23
ATOM     23  C   UNL     1      21.617   6.899  21.215  0.00  0.00    +0.102 C 
BRANCH  23  24
ATOM     24  C   UNL     1      21.766   5.363  21.098  0.00  0.00    -0.029 C 
ATOM     26  C   UNL     1      20.539   4.728  20.426  0.00  0.00    +0.011 C 
ATOM     27  C   UNL     1      21.896   4.786  22.521  0.00  0.00    +0.011 C 
ATOM     28  C   UNL     1      23.030   4.989  20.305  0.00  0.00    +0.011 C 
ENDBRANCH  23  24
ENDBRANCH  22  23
ENDBRANCH  14   5
BRANCH  10   2
ATOM      2  O   UNL     1      14.170   6.472  21.366  0.00  0.00    -0.391 OA
ATOM     36  H   UNL     1      15.043   6.170  21.671  0.00  0.00    +0.210 HD
ENDBRANCH  10   2
BRANCH  13  18
ATOM     18  C   UNL     1      11.743   8.052  20.870  0.00  0.00    +0.077 C 
ATOM     20  C   UNL     1      11.191   6.845  21.622  0.00  0.00    +0.017 C 
BRANCH  18  21
ATOM      3  O   UNL     1      12.314   6.582  19.033  0.00  0.00    -0.276 OA
ATOM      6  N   UNL     1      11.922   8.823  18.580  0.00  0.00    -0.311 N 
ATOM     21  C   UNL     1      12.026   7.716  19.409  0.00  0.00    +0.216 C 
ATOM     37  H   UNL     1      11.629   9.716  18.961  0.00  0.00    +0.149 HD
BRANCH   6  25
ATOM     25  C   UNL     1      12.147   8.755  17.154  0.00  0.00    +0.139 C 
BRANCH  25  29
ATOM      1  F   UNL     1      16.164  12.329  15.483  0.00  0.00    -0.205 F 
ATOM     29  C   UNL     1      13.218   9.708  16.709  0.00  0.00    -0.030 A 
ATOM     30  C   UNL     1      14.044   9.376  15.635  0.00  0.00    +0.008 A 
ATOM     31  C   UNL     1      13.388  10.925  17.369  0.00  0.00    +0.008 A 
ATOM     32  C   UNL     1      15.039  10.261  15.221  0.00  0.00    +0.038 A 
ATOM     33  C   UNL     1      14.383  11.810  16.955  0.00  0.00    +0.038 A 
ATOM     34  C   UNL     1      15.209  11.478  15.881  0.00  0.00    +0.123 A 
ENDBRANCH  25  29
ENDBRANCH   6  25
ENDBRANCH  18  21
ENDBRANCH  13  18
TORSDOF 8
ENDMDL
MODEL 6
REMARK VINA RESULT:      -6.7     29.433     33.623
REMARK  Name = 45361417
REMARK  14 active torsions:
REMARK  status: ('A' for Active; 'I' for Inactive)
REMARK    1  A    between atoms: O_2  and  C_10
REMARK    2  A    between atoms: N_5  and  C_14
REMARK    3  A    between atoms: N_6  and  C_25
REMARK    4  A    between atoms: C_7  and  C_17
REMARK    5  A    between atoms: C_9  and  C_19
REMARK    6  A    between atoms: C_13  and  C_18
REMARK    7  A    between atoms: C_18  and  C_20
REMARK    8  A    between atoms: C_18  and  C_21
REMARK    9  A    between atoms: C_22  and  C_23
REMARK   10  A    between atoms: C_23  and  C_24
REMARK   11  A    between atoms: C_24  and  C_26
REMARK   12  A    between atoms: C_24  and  C_27
REMARK   13  A    between atoms: C_24  and  C_28
REMARK   14  A    between atoms: C_25  and  C_29
REMARK                            x       y       z     vdW  Elec       q    Type
REMARK                         _______ _______ _______ _____ _____    ______ ____
ROOT
ATOM      7  C   UNL     1      20.190   8.765  22.200  0.00  0.00    -0.027 C 
ATOM      8  C   UNL     1      19.107   7.794  21.621  0.00  0.00    +0.028 C 
ATOM      9  C   UNL     1      19.781   6.601  20.853  0.00  0.00    +0.012 C 
ATOM     10  C   UNL     1      18.020   8.573  20.825  0.00  0.00    +0.122 C 
ATOM     11  C   UNL     1      19.499   9.863  23.044  0.00  0.00    +0.007 C 
ATOM     12  C   UNL     1      21.128   7.972  23.139  0.00  0.00    +0.009 C 
ATOM     13  C   UNL     1      17.407   9.736  21.638  0.00  0.00    +0.029 C 
ATOM     14  C   UNL     1      20.778   5.856  21.784  0.00  0.00    +0.076 C 
ATOM     15  C   UNL     1      18.463  10.653  22.256  0.00  0.00    +0.007 C 
ATOM     16  C   UNL     1      21.791   6.784  22.456  0.00  0.00    +0.023 C 
ATOM     17  C   UNL     1      21.032   9.445  21.092  0.00  0.00    +0.011 C 
ATOM     19  C   UNL     1      18.772   5.590  20.281  0.00  0.00    +0.010 C 
ENDROOT
BRANCH  14   5
ATOM      4  O   UNL     1      21.812   3.378  22.870  0.00  0.00    -0.276 OA
ATOM      5  N   UNL     1      21.504   4.822  21.076  0.00  0.00    -0.312 N 
ATOM     22  C   UNL     1      21.959   3.667  21.684  0.00  0.00    +0.214 C 
ATOM     35  H   UNL     1      21.711   4.982  20.095  0.00  0.00    +0.149 HD
BRANCH  22  23
ATOM     23  C   UNL     1      22.698   2.745  20.727  0.00  0.00    +0.102 C 
BRANCH  23  24
ATOM     24  C   UNL     1      24.231   2.695  20.931  0.00  0.00    -0.029 C 
ATOM     26  C   UNL     1      24.982   2.925  19.611  0.00  0.00    +0.011 C 
ATOM     27  C   UNL     1      24.597   1.296  21.464  0.00  0.00    +0.011 C 
ATOM     28  C   UNL     1      24.686   3.742  21.963  0.00  0.00    +0.011 C 
ENDBRANCH  23  24
ENDBRANCH  22  23
ENDBRANCH  14   5
BRANCH  10   2
ATOM      2  O   UNL     1      16.945   7.691  20.499  0.00  0.00    -0.391 OA
ATOM     36  H   UNL     1      16.870   7.031  21.209  0.00  0.00    +0.210 HD
ENDBRANCH  10   2
BRANCH  13  18
ATOM     18  C   UNL     1      16.435  10.570  20.795  0.00  0.00    +0.077 C 
ATOM     20  C   UNL     1      16.949  11.999  20.661  0.00  0.00    +0.017 C 
BRANCH  18  21
ATOM      3  O   UNL     1      14.860  10.519  22.634  0.00  0.00    -0.276 OA
ATOM      6  N   UNL     1      14.034  10.522  20.467  0.00  0.00    -0.311 N 
ATOM     21  C   UNL     1      15.043  10.535  21.419  0.00  0.00    +0.216 C 
ATOM     37  H   UNL     1      14.266  10.589  19.481  0.00  0.00    +0.149 HD
BRANCH   6  25
ATOM     25  C   UNL     1      12.632  10.488  20.814  0.00  0.00    +0.139 C 
BRANCH  25  29
ATOM      1  F   UNL     1      10.798   5.229  21.639  0.00  0.00    -0.205 F 
ATOM     29  C   UNL     1      12.143   9.086  21.035  0.00  0.00    -0.030 A 
ATOM     30  C   UNL     1      12.808   8.014  20.439  0.00  0.00    +0.008 A 
ATOM     31  C   UNL     1      11.024   8.854  21.835  0.00  0.00    +0.008 A 
ATOM     32  C   UNL     1      12.354   6.711  20.643  0.00  0.00    +0.038 A 
ATOM     33  C   UNL     1      10.570   7.551  22.039  0.00  0.00    +0.038 A 
ATOM     34  C   UNL     1      11.234   6.480  21.443  0.00  0.00    +0.123 A 
ENDBRANCH  25  29
ENDBRANCH   6  25
ENDBRANCH  18  21
ENDBRANCH  13  18
TORSDOF 8
ENDMDL
MODEL 7
REMARK VINA RESULT:      -6.7     31.380     34.332
REMARK  Name = 45361417
REMARK  14 active torsions:
REMARK  status: ('A' for Active; 'I' for Inactive)
REMARK    1  A    between atoms: O_2  and  C_10
REMARK    2  A    between atoms: N_5  and  C_14
REMARK    3  A    between atoms: N_6  and  C_25
REMARK    4  A    between atoms: C_7  and  C_17
REMARK    5  A    between atoms: C_9  and  C_19
REMARK    6  A    between atoms: C_13  and  C_18
REMARK    7  A    between atoms: C_18  and  C_20
REMARK    8  A    between atoms: C_18  and  C_21
REMARK    9  A    between atoms: C_22  and  C_23
REMARK   10  A    between atoms: C_23  and  C_24
REMARK   11  A    between atoms: C_24  and  C_26
REMARK   12  A    between atoms: C_24  and  C_27
REMARK   13  A    between atoms: C_24  and  C_28
REMARK   14  A    between atoms: C_25  and  C_29
REMARK                            x       y       z     vdW  Elec       q    Type
REMARK                         _______ _______ _______ _____ _____    ______ ____
ROOT
ATOM      7  C   UNL     1      16.852  -3.093  31.306  0.00  0.00    -0.027 C 
ATOM      8  C   UNL     1      16.905  -3.850  29.936  0.00  0.00    +0.028 C 
ATOM      9  C   UNL     1      16.312  -5.297  30.074  0.00  0.00    +0.012 C 
ATOM     10  C   UNL     1      18.324  -3.766  29.302  0.00  0.00    +0.122 C 
ATOM     11  C   UNL     1      17.337  -1.638  31.111  0.00  0.00    +0.007 C 
ATOM     12  C   UNL     1      15.386  -3.039  31.795  0.00  0.00    +0.009 C 
ATOM     13  C   UNL     1      18.847  -2.313  29.205  0.00  0.00    +0.029 C 
ATOM     14  C   UNL     1      14.864  -5.235  30.637  0.00  0.00    +0.076 C 
ATOM     15  C   UNL     1      18.740  -1.552  30.527  0.00  0.00    +0.007 C 
ATOM     16  C   UNL     1      14.747  -4.415  31.922  0.00  0.00    +0.023 C 
ATOM     17  C   UNL     1      17.727  -3.769  32.392  0.00  0.00    +0.011 C 
ATOM     19  C   UNL     1      16.307  -6.088  28.754  0.00  0.00    +0.010 C 
ENDROOT
BRANCH  14   5
ATOM      4  O   UNL     1      12.105  -6.083  30.403  0.00  0.00    -0.276 OA
ATOM      5  N   UNL     1      14.328  -6.557  30.886  0.00  0.00    -0.312 N 
ATOM     22  C   UNL     1      12.988  -6.867  30.746  0.00  0.00    +0.214 C 
ATOM     35  H   UNL     1      14.972  -7.271  31.211  0.00  0.00    +0.149 HD
BRANCH  22  23
ATOM     23  C   UNL     1      12.678  -8.319  31.073  0.00  0.00    +0.102 C 
BRANCH  23  24
ATOM     24  C   UNL     1      11.831  -8.527  32.351  0.00  0.00    -0.029 C 
ATOM     26  C   UNL     1      12.104  -7.430  33.392  0.00  0.00    +0.011 C 
ATOM     27  C   UNL     1      12.217  -9.887  32.964  0.00  0.00    +0.011 C 
ATOM     28  C   UNL     1      10.329  -8.551  32.022  0.00  0.00    +0.011 C 
ENDBRANCH  23  24
ENDBRANCH  22  23
ENDBRANCH  14   5
BRANCH  10   2
ATOM      2  O   UNL     1      18.279  -4.273  27.968  0.00  0.00    -0.391 OA
ATOM     36  H   UNL     1      18.336  -5.243  28.011  0.00  0.00    +0.210 HD
ENDBRANCH  10   2
BRANCH  13  18
ATOM     18  C   UNL     1      20.294  -2.262  28.700  0.00  0.00    +0.077 C 
ATOM     20  C   UNL     1      21.207  -1.690  29.779  0.00  0.00    +0.017 C 
BRANCH  18  21
ATOM      3  O   UNL     1      21.232  -0.591  27.220  0.00  0.00    -0.276 OA
ATOM      6  N   UNL     1      19.360  -1.768  26.519  0.00  0.00    -0.311 N 
ATOM     21  C   UNL     1      20.367  -1.442  27.415  0.00  0.00    +0.216 C 
ATOM     37  H   UNL     1      18.714  -2.520  26.734  0.00  0.00    +0.149 HD
BRANCH   6  25
ATOM     25  C   UNL     1      19.221  -1.124  25.233  0.00  0.00    +0.139 C 
BRANCH  25  29
ATOM      1  F   UNL     1      14.759  -3.045  22.386  0.00  0.00    -0.205 F 
ATOM     29  C   UNL     1      18.032  -1.637  24.474  0.00  0.00    -0.030 A 
ATOM     30  C   UNL     1      17.658  -1.034  23.273  0.00  0.00    +0.008 A 
ATOM     31  C   UNL     1      17.299  -2.715  24.969  0.00  0.00    +0.008 A 
ATOM     32  C   UNL     1      16.553  -1.508  22.568  0.00  0.00    +0.038 A 
ATOM     33  C   UNL     1      16.194  -3.191  24.264  0.00  0.00    +0.038 A 
ATOM     34  C   UNL     1      15.820  -2.588  23.063  0.00  0.00    +0.123 A 
ENDBRANCH  25  29
ENDBRANCH   6  25
ENDBRANCH  18  21
ENDBRANCH  13  18
TORSDOF 8
ENDMDL
MODEL 8
REMARK VINA RESULT:      -6.6     30.619     33.672
REMARK  Name = 45361417
REMARK  14 active torsions:
REMARK  status: ('A' for Active; 'I' for Inactive)
REMARK    1  A    between atoms: O_2  and  C_10
REMARK    2  A    between atoms: N_5  and  C_14
REMARK    3  A    between atoms: N_6  and  C_25
REMARK    4  A    between atoms: C_7  and  C_17
REMARK    5  A    between atoms: C_9  and  C_19
REMARK    6  A    between atoms: C_13  and  C_18
REMARK    7  A    between atoms: C_18  and  C_20
REMARK    8  A    between atoms: C_18  and  C_21
REMARK    9  A    between atoms: C_22  and  C_23
REMARK   10  A    between atoms: C_23  and  C_24
REMARK   11  A    between atoms: C_24  and  C_26
REMARK   12  A    between atoms: C_24  and  C_27
REMARK   13  A    between atoms: C_24  and  C_28
REMARK   14  A    between atoms: C_25  and  C_29
REMARK                            x       y       z     vdW  Elec       q    Type
REMARK                         _______ _______ _______ _____ _____    ______ ____
ROOT
ATOM      7  C   UNL     1      16.431  -4.583  30.480  0.00  0.00    -0.027 C 
ATOM      8  C   UNL     1      15.375  -5.569  29.876  0.00  0.00    +0.028 C 
ATOM      9  C   UNL     1      14.423  -6.121  30.997  0.00  0.00    +0.012 C 
ATOM     10  C   UNL     1      16.057  -6.647  28.985  0.00  0.00    +0.122 C 
ATOM     11  C   UNL     1      17.277  -3.971  29.339  0.00  0.00    +0.007 C 
ATOM     12  C   UNL     1      15.692  -3.425  31.189  0.00  0.00    +0.009 C 
ATOM     13  C   UNL     1      16.984  -6.032  27.912  0.00  0.00    +0.029 C 
ATOM     14  C   UNL     1      13.742  -4.947  31.753  0.00  0.00    +0.076 C 
ATOM     15  C   UNL     1      17.978  -5.023  28.489  0.00  0.00    +0.007 C 
ATOM     16  C   UNL     1      14.732  -3.902  32.270  0.00  0.00    +0.023 C 
ATOM     17  C   UNL     1      17.382  -5.276  31.488  0.00  0.00    +0.011 C 
ATOM     19  C   UNL     1      13.340  -7.077  30.467  0.00  0.00    +0.010 C 
ENDROOT
BRANCH  14   5
ATOM      4  O   UNL     1      11.010  -4.226  32.387  0.00  0.00    -0.276 OA
ATOM      5  N   UNL     1      12.947  -5.416  32.869  0.00  0.00    -0.312 N 
ATOM     22  C   UNL     1      11.643  -5.012  33.089  0.00  0.00    +0.214 C 
ATOM     35  H   UNL     1      13.391  -6.043  33.531  0.00  0.00    +0.149 HD
BRANCH  22  23
ATOM     23  C   UNL     1      11.029  -5.641  34.330  0.00  0.00    +0.102 C 
BRANCH  23  24
ATOM     24  C   UNL     1       9.939  -6.701  34.045  0.00  0.00    -0.029 C 
ATOM     26  C   UNL     1       8.548  -6.058  33.924  0.00  0.00    +0.011 C 
ATOM     27  C   UNL     1       9.917  -7.692  35.225  0.00  0.00    +0.011 C 
ATOM     28  C   UNL     1      10.249  -7.483  32.758  0.00  0.00    +0.011 C 
ENDBRANCH  23  24
ENDBRANCH  22  23
ENDBRANCH  14   5
BRANCH  10   2
ATOM      2  O   UNL     1      15.056  -7.388  28.286  0.00  0.00    -0.391 OA
ATOM     36  H   UNL     1      15.316  -7.437  27.350  0.00  0.00    +0.210 HD
ENDBRANCH  10   2
BRANCH  13  18
ATOM     18  C   UNL     1      17.744  -7.111  27.131  0.00  0.00    +0.077 C 
ATOM     20  C   UNL     1      19.239  -7.011  27.417  0.00  0.00    +0.017 C 
BRANCH  18  21
ATOM      3  O   UNL     1      16.573  -7.622  25.074  0.00  0.00    -0.276 OA
ATOM      6  N   UNL     1      18.286  -6.059  25.016  0.00  0.00    -0.311 N 
ATOM     21  C   UNL     1      17.453  -6.977  25.640  0.00  0.00    +0.216 C 
ATOM     37  H   UNL     1      18.955  -5.529  25.564  0.00  0.00    +0.149 HD
BRANCH   6  25
ATOM     25  C   UNL     1      18.203  -5.762  23.605  0.00  0.00    +0.139 C 
BRANCH  25  29
ATOM      1  F   UNL     1      16.124  -0.615  22.659  0.00  0.00    -0.205 F 
ATOM     29  C   UNL     1      17.649  -4.389  23.353  0.00  0.00    -0.030 A 
ATOM     30  C   UNL     1      16.429  -4.016  23.916  0.00  0.00    +0.008 A 
ATOM     31  C   UNL     1      18.353  -3.488  22.555  0.00  0.00    +0.008 A 
ATOM     32  C   UNL     1      15.913  -2.741  23.682  0.00  0.00    +0.038 A 
ATOM     33  C   UNL     1      17.838  -2.213  22.320  0.00  0.00    +0.038 A 
ATOM     34  C   UNL     1      16.618  -1.839  22.884  0.00  0.00    +0.123 A 
ENDBRANCH  25  29
ENDBRANCH   6  25
ENDBRANCH  18  21
ENDBRANCH  13  18
TORSDOF 8
ENDMDL
MODEL 9
REMARK VINA RESULT:      -6.6     20.148     23.478
REMARK  Name = 45361417
REMARK  14 active torsions:
REMARK  status: ('A' for Active; 'I' for Inactive)
REMARK    1  A    between atoms: O_2  and  C_10
REMARK    2  A    between atoms: N_5  and  C_14
REMARK    3  A    between atoms: N_6  and  C_25
REMARK    4  A    between atoms: C_7  and  C_17
REMARK    5  A    between atoms: C_9  and  C_19
REMARK    6  A    between atoms: C_13  and  C_18
REMARK    7  A    between atoms: C_18  and  C_20
REMARK    8  A    between atoms: C_18  and  C_21
REMARK    9  A    between atoms: C_22  and  C_23
REMARK   10  A    between atoms: C_23  and  C_24
REMARK   11  A    between atoms: C_24  and  C_26
REMARK   12  A    between atoms: C_24  and  C_27
REMARK   13  A    between atoms: C_24  and  C_28
REMARK   14  A    between atoms: C_25  and  C_29
REMARK                            x       y       z     vdW  Elec       q    Type
REMARK                         _______ _______ _______ _____ _____    ______ ____
ROOT
ATOM      7  C   UNL     1      -5.434 -11.188  17.740  0.00  0.00    -0.027 C 
ATOM      8  C   UNL     1      -5.697 -12.401  16.786  0.00  0.00    +0.028 C 
ATOM      9  C   UNL     1      -6.432 -13.561  17.547  0.00  0.00    +0.012 C 
ATOM     10  C   UNL     1      -4.402 -12.812  16.028  0.00  0.00    +0.122 C 
ATOM     11  C   UNL     1      -4.815 -10.022  16.934  0.00  0.00    +0.007 C 
ATOM     12  C   UNL     1      -6.783 -10.697  18.315  0.00  0.00    +0.009 C 
ATOM     13  C   UNL     1      -3.730 -11.619  15.309  0.00  0.00    +0.029 C 
ATOM     14  C   UNL     1      -7.750 -13.039  18.185  0.00  0.00    +0.076 C 
ATOM     15  C   UNL     1      -3.525 -10.411  16.223  0.00  0.00    +0.007 C 
ATOM     16  C   UNL     1      -7.555 -11.788  19.044  0.00  0.00    +0.023 C 
ATOM     17  C   UNL     1      -4.482 -11.547  18.908  0.00  0.00    +0.011 C 
ATOM     19  C   UNL     1      -6.748 -14.777  16.659  0.00  0.00    +0.010 C 
ENDROOT
BRANCH  14   5
ATOM      4  O   UNL     1     -10.532 -13.837  18.108  0.00  0.00    -0.276 OA
ATOM      5  N   UNL     1      -8.395 -14.053  18.992  0.00  0.00    -0.312 N 
ATOM     22  C   UNL     1      -9.737 -14.365  18.882  0.00  0.00    +0.214 C 
ATOM     35  H   UNL     1      -7.830 -14.525  19.692  0.00  0.00    +0.149 HD
BRANCH  22  23
ATOM     23  C   UNL     1     -10.172 -15.458  19.845  0.00  0.00    +0.102 C 
BRANCH  23  24
ATOM     24  C   UNL     1     -10.537 -14.962  21.265  0.00  0.00    -0.029 C 
ATOM     26  C   UNL     1      -9.370 -15.156  22.246  0.00  0.00    +0.011 C 
ATOM     27  C   UNL     1     -11.738 -15.788  21.765  0.00  0.00    +0.011 C 
ATOM     28  C   UNL     1     -10.942 -13.478  21.245  0.00  0.00    +0.011 C 
ENDBRANCH  23  24
ENDBRANCH  22  23
ENDBRANCH  14   5
BRANCH  10   2
ATOM      2  O   UNL     1      -4.725 -13.768  15.018  0.00  0.00    -0.391 OA
ATOM     36  H   UNL     1      -4.059 -13.700  14.313  0.00  0.00    +0.210 HD
ENDBRANCH  10   2
BRANCH  13  18
ATOM     18  C   UNL     1      -2.390 -12.018  14.679  0.00  0.00    +0.077 C 
ATOM     20  C   UNL     1      -1.264 -11.167  15.258  0.00  0.00    +0.017 C 
BRANCH  18  21
ATOM      3  O   UNL     1      -1.538 -11.443  12.486  0.00  0.00    -0.276 OA
ATOM      6  N   UNL     1      -3.688 -12.296  12.652  0.00  0.00    -0.311 N 
ATOM     21  C   UNL     1      -2.467 -11.880  13.161  0.00  0.00    +0.216 C 
ATOM     37  H   UNL     1      -4.387 -12.693  13.271  0.00  0.00    +0.149 HD
BRANCH   6  25
ATOM     25  C   UNL     1      -4.000 -12.259  11.242  0.00  0.00    +0.139 C 
BRANCH  25  29
ATOM      1  F   UNL     1      -5.552  -7.112   9.566  0.00  0.00    -0.205 F 
ATOM     29  C   UNL     1      -4.413 -10.887  10.794  0.00  0.00    -0.030 A 
ATOM     30  C   UNL     1      -5.181 -10.082  11.636  0.00  0.00    +0.008 A 
ATOM     31  C   UNL     1      -4.031 -10.417   9.539  0.00  0.00    +0.008 A 
ATOM     32  C   UNL     1      -5.566  -8.807  11.221  0.00  0.00    +0.038 A 
ATOM     33  C   UNL     1      -4.416  -9.142   9.123  0.00  0.00    +0.038 A 
ATOM     34  C   UNL     1      -5.184  -8.337   9.965  0.00  0.00    +0.123 A 
ENDBRANCH  25  29
ENDBRANCH   6  25
ENDBRANCH  18  21
ENDBRANCH  13  18
TORSDOF 8
ENDMDL
MODEL 10
REMARK VINA RESULT:      -6.6     28.437     32.500
REMARK  Name = 45361417
REMARK  14 active torsions:
REMARK  status: ('A' for Active; 'I' for Inactive)
REMARK    1  A    between atoms: O_2  and  C_10
REMARK    2  A    between atoms: N_5  and  C_14
REMARK    3  A    between atoms: N_6  and  C_25
REMARK    4  A    between atoms: C_7  and  C_17
REMARK    5  A    between atoms: C_9  and  C_19
REMARK    6  A    between atoms: C_13  and  C_18
REMARK    7  A    between atoms: C_18  and  C_20
REMARK    8  A    between atoms: C_18  and  C_21
REMARK    9  A    between atoms: C_22  and  C_23
REMARK   10  A    between atoms: C_23  and  C_24
REMARK   11  A    between atoms: C_24  and  C_26
REMARK   12  A    between atoms: C_24  and  C_27
REMARK   13  A    between atoms: C_24  and  C_28
REMARK   14  A    between atoms: C_25  and  C_29
REMARK                            x       y       z     vdW  Elec       q    Type
REMARK                         _______ _______ _______ _____ _____    ______ ____
ROOT
ATOM      7  C   UNL     1      14.451   7.660  20.609  0.00  0.00    -0.027 C 
ATOM      8  C   UNL     1      15.241   8.590  21.590  0.00  0.00    +0.028 C 
ATOM      9  C   UNL     1      14.608  10.027  21.630  0.00  0.00    +0.012 C 
ATOM     10  C   UNL     1      16.770   8.541  21.304  0.00  0.00    +0.122 C 
ATOM     11  C   UNL     1      15.029   6.227  20.680  0.00  0.00    +0.007 C 
ATOM     12  C   UNL     1      12.973   7.593  21.058  0.00  0.00    +0.009 C 
ATOM     13  C   UNL     1      17.323   7.097  21.273  0.00  0.00    +0.029 C 
ATOM     14  C   UNL     1      13.102   9.942  22.009  0.00  0.00    +0.076 C 
ATOM     15  C   UNL     1      16.517   6.170  20.362  0.00  0.00    +0.007 C 
ATOM     16  C   UNL     1      12.312   8.962  21.141  0.00  0.00    +0.023 C 
ATOM     17  C   UNL     1      14.517   8.152  19.142  0.00  0.00    +0.011 C 
ATOM     19  C   UNL     1      15.319  10.987  22.598  0.00  0.00    +0.010 C 
ENDROOT
BRANCH  14   5
ATOM      4  O   UNL     1      10.883  10.884  23.613  0.00  0.00    -0.276 OA
ATOM      5  N   UNL     1      12.458  11.237  21.942  0.00  0.00    -0.312 N 
ATOM     22  C   UNL     1      11.399  11.596  22.755  0.00  0.00    +0.214 C 
ATOM     35  H   UNL     1      12.787  11.889  21.237  0.00  0.00    +0.149 HD
BRANCH  22  23
ATOM     23  C   UNL     1      10.895  13.005  22.483  0.00  0.00    +0.102 C 
BRANCH  23  24
ATOM     24  C   UNL     1      11.718  14.127  23.161  0.00  0.00    -0.029 C 
ATOM     26  C   UNL     1      12.892  14.576  22.278  0.00  0.00    +0.011 C 
ATOM     27  C   UNL     1      12.285  13.571  24.482  0.00  0.00    +0.011 C 
ATOM     28  C   UNL     1      10.833  15.343  23.486  0.00  0.00    +0.011 C 
ENDBRANCH  23  24
ENDBRANCH  22  23
ENDBRANCH  14   5
BRANCH  10   2
ATOM      2  O   UNL     1      17.471   9.224  22.345  0.00  0.00    -0.391 OA
ATOM     36  H   UNL     1      17.555   8.618  23.101  0.00  0.00    +0.210 HD
ENDBRANCH  10   2
BRANCH  13  18
ATOM     18  C   UNL     1      18.800   7.062  20.862  0.00  0.00    +0.077 C 
ATOM     20  C   UNL     1      19.033   5.960  19.834  0.00  0.00    +0.017 C 
BRANCH  18  21
ATOM      3  O   UNL     1      19.558   7.551  23.109  0.00  0.00    -0.276 OA
ATOM      6  N   UNL     1      20.607   5.852  21.930  0.00  0.00    -0.311 N 
ATOM     21  C   UNL     1      19.678   6.869  22.095  0.00  0.00    +0.216 C 
ATOM     37  H   UNL     1      20.609   5.299  21.079  0.00  0.00    +0.149 HD
BRANCH   6  25
ATOM     25  C   UNL     1      21.551   5.483  22.960  0.00  0.00    +0.139 C 
BRANCH  25  29
ATOM      1  F   UNL     1      24.351   0.773  21.663  0.00  0.00    -0.205 F 
ATOM     29  C   UNL     1      22.297   4.227  22.613  0.00  0.00    -0.030 A 
ATOM     30  C   UNL     1      22.873   3.457  23.624  0.00  0.00    +0.008 A 
ATOM     31  C   UNL     1      22.416   3.830  21.282  0.00  0.00    +0.008 A 
ATOM     32  C   UNL     1      23.567   2.291  23.304  0.00  0.00    +0.038 A 
ATOM     33  C   UNL     1      23.110   2.663  20.960  0.00  0.00    +0.038 A 
ATOM     34  C   UNL     1      23.686   1.894  21.971  0.00  0.00    +0.123 A 
ENDBRANCH  25  29
ENDBRANCH   6  25
ENDBRANCH  18  21
ENDBRANCH  13  18
TORSDOF 8
ENDMDL
