MODEL 1
REMARK VINA RESULT:      -7.1      0.000      0.000
REMARK  Name = 75536749
REMARK  5 active torsions:
REMARK  status: ('A' for Active; 'I' for Inactive)
REMARK    1  A    between atoms: O_4  and  C_12
REMARK    2  A    between atoms: N_7  and  C_10
REMARK    3  A    between atoms: N_7  and  C_11
REMARK    4  A    between atoms: N_8  and  C_20
REMARK    5  A    between atoms: C_13  and  C_20
REMARK                            x       y       z     vdW  Elec       q    Type
REMARK                         _______ _______ _______ _____ _____    ______ ____
ROOT
ATOM      3  O   UNL     1      13.159   7.974  21.893  0.00  0.00    -0.371 OA
ATOM     10  C   UNL     1      11.212   9.036  22.742  0.00  0.00    +0.111 C 
ATOM     12  C   UNL     1      10.803   8.022  21.689  0.00  0.00    +0.164 C 
ATOM     13  C   UNL     1      12.027   7.118  21.662  0.00  0.00    +0.165 C 
ATOM     16  C   UNL     1      12.685   9.224  22.423  0.00  0.00    +0.181 C 
ENDROOT
BRANCH  12   4
ATOM      4  O   UNL     1       9.630   7.314  22.039  0.00  0.00    -0.388 OA
ATOM     27  H   UNL     1       9.795   6.365  21.905  0.00  0.00    +0.210 HD
ENDBRANCH  12   4
BRANCH  10   7
ATOM      7  N   UNL     1      10.456  10.276  22.682  0.00  0.00    -0.306 NA
ATOM     26  H   UNL     1       9.570  10.174  23.176  0.00  0.00    +0.123 HD
BRANCH   7  11
ATOM      1  F   UNL     1      10.037  14.283  24.878  0.00  0.00    -0.206 F 
ATOM      2  F   UNL     1      12.074  14.983  25.171  0.00  0.00    -0.206 F 
ATOM     11  C   UNL     1      11.220  11.386  23.252  0.00  0.00    +0.054 C 
ATOM     14  C   UNL     1      10.949  11.483  24.758  0.00  0.00    +0.024 C 
ATOM     15  C   UNL     1      10.853  12.691  22.536  0.00  0.00    +0.024 C 
ATOM     17  C   UNL     1      11.675  12.677  25.376  0.00  0.00    +0.077 C 
ATOM     18  C   UNL     1      11.579  13.886  23.154  0.00  0.00    +0.077 C 
ATOM     19  C   UNL     1      11.339  13.969  24.651  0.00  0.00    +0.249 C 
ENDBRANCH   7  11
ENDBRANCH  10   7
BRANCH  13  20
ATOM     20  C   UNL     1      12.201   6.381  20.346  0.00  0.00    +0.140 C 
BRANCH  20   8
ATOM      5  O   UNL     1      12.933   9.907  15.033  0.00  0.00    -0.377 OA
ATOM      6  O   UNL     1      14.458   7.450  19.048  0.00  0.00    -0.253 OA
ATOM      8  N   UNL     1      12.175   7.292  19.223  0.00  0.00    -0.297 N 
ATOM      9  N   UNL     1      13.152   8.657  17.558  0.00  0.00    -0.281 N 
ATOM     21  C   UNL     1      13.339   7.776  18.637  0.00  0.00    +0.302 C 
ATOM     22  C   UNL     1      14.324   9.222  16.885  0.00  0.00    +0.137 C 
ATOM     23  C   UNL     1      11.868   9.212  17.104  0.00  0.00    +0.137 C 
ATOM     24  C   UNL     1      14.139   9.222  15.376  0.00  0.00    +0.179 C 
ATOM     25  C   UNL     1      11.797   9.238  15.581  0.00  0.00    +0.179 C 
ATOM     28  H   UNL     1      11.261   7.570  18.899  0.00  0.00    +0.150 HD
ENDBRANCH  20   8
ENDBRANCH  13  20
TORSDOF 5
ENDMDL
MODEL 2
REMARK VINA RESULT:      -6.7     25.999     27.591
REMARK  Name = 75536749
REMARK  5 active torsions:
REMARK  status: ('A' for Active; 'I' for Inactive)
REMARK    1  A    between atoms: O_4  and  C_12
REMARK    2  A    between atoms: N_7  and  C_10
REMARK    3  A    between atoms: N_7  and  C_11
REMARK    4  A    between atoms: N_8  and  C_20
REMARK    5  A    between atoms: C_13  and  C_20
REMARK                            x       y       z     vdW  Elec       q    Type
REMARK                         _______ _______ _______ _____ _____    ______ ____
ROOT
ATOM      3  O   UNL     1      -1.110 -11.430  15.058  0.00  0.00    -0.371 OA
ATOM     10  C   UNL     1      -3.172 -10.993  16.153  0.00  0.00    +0.111 C 
ATOM     12  C   UNL     1      -3.451 -11.694  14.836  0.00  0.00    +0.164 C 
ATOM     13  C   UNL     1      -2.102 -12.344  14.559  0.00  0.00    +0.165 C 
ATOM     16  C   UNL     1      -1.756 -10.488  15.932  0.00  0.00    +0.181 C 
ENDROOT
BRANCH  12   4
ATOM      4  O   UNL     1      -4.487 -12.650  14.936  0.00  0.00    -0.388 OA
ATOM     27  H   UNL     1      -4.385 -13.290  14.211  0.00  0.00    +0.210 HD
ENDBRANCH  12   4
BRANCH  10   7
ATOM      7  N   UNL     1      -4.113  -9.927  16.457  0.00  0.00    -0.306 NA
ATOM     26  H   UNL     1      -4.705  -9.739  15.649  0.00  0.00    +0.123 HD
BRANCH   7  11
ATOM      1  F   UNL     1      -6.663 -13.269  18.294  0.00  0.00    -0.206 F 
ATOM      2  F   UNL     1      -7.398 -12.454  20.171  0.00  0.00    -0.206 F 
ATOM     11  C   UNL     1      -4.940 -10.269  17.614  0.00  0.00    +0.054 C 
ATOM     14  C   UNL     1      -4.331 -11.468  18.351  0.00  0.00    +0.024 C 
ATOM     15  C   UNL     1      -6.373 -10.566  17.158  0.00  0.00    +0.024 C 
ATOM     17  C   UNL     1      -5.208 -11.899  19.526  0.00  0.00    +0.077 C 
ATOM     18  C   UNL     1      -7.251 -10.997  18.333  0.00  0.00    +0.077 C 
ATOM     19  C   UNL     1      -6.637 -12.165  19.086  0.00  0.00    +0.249 C 
ENDBRANCH   7  11
ENDBRANCH  10   7
BRANCH  13  20
ATOM     20  C   UNL     1      -1.857 -12.614  13.085  0.00  0.00    +0.140 C 
BRANCH  20   8
ATOM      5  O   UNL     1      -5.651  -9.659   8.835  0.00  0.00    -0.377 OA
ATOM      6  O   UNL     1      -1.681 -10.145  11.747  0.00  0.00    -0.253 OA
ATOM      8  N   UNL     1      -2.889 -12.026  12.261  0.00  0.00    -0.297 N 
ATOM      9  N   UNL     1      -3.818 -10.355  10.870  0.00  0.00    -0.281 N 
ATOM     21  C   UNL     1      -2.723 -10.798  11.632  0.00  0.00    +0.302 C 
ATOM     22  C   UNL     1      -3.733  -9.067  10.178  0.00  0.00    +0.137 C 
ATOM     23  C   UNL     1      -5.142 -10.992  10.803  0.00  0.00    +0.137 C 
ATOM     24  C   UNL     1      -4.314  -9.162   8.777  0.00  0.00    +0.179 C 
ATOM     25  C   UNL     1      -5.677 -10.980   9.376  0.00  0.00    +0.179 C 
ATOM     28  H   UNL     1      -3.747 -12.552  12.182  0.00  0.00    +0.150 HD
ENDBRANCH  20   8
ENDBRANCH  13  20
TORSDOF 5
ENDMDL
MODEL 3
REMARK VINA RESULT:      -6.6     26.931     28.832
REMARK  Name = 75536749
REMARK  5 active torsions:
REMARK  status: ('A' for Active; 'I' for Inactive)
REMARK    1  A    between atoms: O_4  and  C_12
REMARK    2  A    between atoms: N_7  and  C_10
REMARK    3  A    between atoms: N_7  and  C_11
REMARK    4  A    between atoms: N_8  and  C_20
REMARK    5  A    between atoms: C_13  and  C_20
REMARK                            x       y       z     vdW  Elec       q    Type
REMARK                         _______ _______ _______ _____ _____    ______ ____
ROOT
ATOM      3  O   UNL     1      -3.559 -11.648  16.897  0.00  0.00    -0.371 OA
ATOM     10  C   UNL     1      -4.350 -10.619  14.908  0.00  0.00    +0.111 C 
ATOM     12  C   UNL     1      -5.300 -10.292  16.046  0.00  0.00    +0.164 C 
ATOM     13  C   UNL     1      -4.409 -10.544  17.254  0.00  0.00    +0.165 C 
ATOM     16  C   UNL     1      -3.610 -11.821  15.470  0.00  0.00    +0.181 C 
ENDROOT
BRANCH  12   4
ATOM      4  O   UNL     1      -5.765  -8.957  16.001  0.00  0.00    -0.388 OA
ATOM     27  H   UNL     1      -5.049  -8.396  15.658  0.00  0.00    +0.210 HD
ENDBRANCH  12   4
BRANCH  10   7
ATOM      7  N   UNL     1      -5.022 -10.905  13.651  0.00  0.00    -0.306 NA
ATOM     26  H   UNL     1      -6.032 -10.829  13.766  0.00  0.00    +0.123 HD
BRANCH   7  11
ATOM      1  F   UNL     1      -4.460 -10.539   9.112  0.00  0.00    -0.206 F 
ATOM      2  F   UNL     1      -3.653  -8.545   8.801  0.00  0.00    -0.206 F 
ATOM     11  C   UNL     1      -4.570  -9.999  12.595  0.00  0.00    +0.054 C 
ATOM     14  C   UNL     1      -5.729  -9.701  11.636  0.00  0.00    +0.024 C 
ATOM     15  C   UNL     1      -3.380 -10.619  11.853  0.00  0.00    +0.024 C 
ATOM     17  C   UNL     1      -5.276  -8.813  10.478  0.00  0.00    +0.077 C 
ATOM     18  C   UNL     1      -2.926  -9.731  10.694  0.00  0.00    +0.077 C 
ATOM     19  C   UNL     1      -4.078  -9.407   9.758  0.00  0.00    +0.249 C 
ENDBRANCH   7  11
ENDBRANCH  10   7
BRANCH  13  20
ATOM     20  C   UNL     1      -5.186 -10.881  18.514  0.00  0.00    +0.140 C 
BRANCH  20   8
ATOM      5  O   UNL     1     -11.494  -9.728  18.789  0.00  0.00    -0.377 OA
ATOM      6  O   UNL     1      -7.220 -11.744  20.256  0.00  0.00    -0.253 OA
ATOM      8  N   UNL     1      -6.602 -10.642  18.341  0.00  0.00    -0.297 N 
ATOM      9  N   UNL     1      -8.882 -10.797  18.944  0.00  0.00    -0.281 N 
ATOM     21  C   UNL     1      -7.546 -11.103  19.251  0.00  0.00    +0.302 C 
ATOM     22  C   UNL     1      -9.945 -11.252  19.844  0.00  0.00    +0.137 C 
ATOM     23  C   UNL     1      -9.366 -10.176  17.702  0.00  0.00    +0.137 C 
ATOM     24  C   UNL     1     -10.987 -10.164  20.050  0.00  0.00    +0.179 C 
ATOM     25  C   UNL     1     -10.455  -9.151  17.997  0.00  0.00    +0.179 C 
ATOM     28  H   UNL     1      -6.867 -10.133  17.511  0.00  0.00    +0.150 HD
ENDBRANCH  20   8
ENDBRANCH  13  20
TORSDOF 5
ENDMDL
MODEL 4
REMARK VINA RESULT:      -6.5     27.428     29.813
REMARK  Name = 75536749
REMARK  5 active torsions:
REMARK  status: ('A' for Active; 'I' for Inactive)
REMARK    1  A    between atoms: O_4  and  C_12
REMARK    2  A    between atoms: N_7  and  C_10
REMARK    3  A    between atoms: N_7  and  C_11
REMARK    4  A    between atoms: N_8  and  C_20
REMARK    5  A    between atoms: C_13  and  C_20
REMARK                            x       y       z     vdW  Elec       q    Type
REMARK                         _______ _______ _______ _____ _____    ______ ____
ROOT
ATOM      3  O   UNL     1     -17.449   0.614  25.540  0.00  0.00    -0.371 OA
ATOM     10  C   UNL     1     -16.549   2.675  24.777  0.00  0.00    +0.111 C 
ATOM     12  C   UNL     1     -16.721   2.738  26.284  0.00  0.00    +0.164 C 
ATOM     13  C   UNL     1     -16.775   1.258  26.635  0.00  0.00    +0.165 C 
ATOM     16  C   UNL     1     -17.461   1.514  24.418  0.00  0.00    +0.181 C 
ENDROOT
BRANCH  12   4
ATOM      4  O   UNL     1     -15.647   3.395  26.928  0.00  0.00    -0.388 OA
ATOM     27  H   UNL     1     -14.881   2.796  26.933  0.00  0.00    +0.210 HD
ENDBRANCH  12   4
BRANCH  10   7
ATOM      7  N   UNL     1     -16.908   3.909  24.097  0.00  0.00    -0.306 NA
ATOM     26  H   UNL     1     -16.982   4.673  24.767  0.00  0.00    +0.123 HD
BRANCH   7  11
ATOM      1  F   UNL     1     -14.210   7.279  22.543  0.00  0.00    -0.206 F 
ATOM      2  F   UNL     1     -13.182   6.433  20.825  0.00  0.00    -0.206 F 
ATOM     11  C   UNL     1     -15.930   4.244  23.063  0.00  0.00    +0.054 C 
ATOM     14  C   UNL     1     -14.588   4.601  23.715  0.00  0.00    +0.024 C 
ATOM     15  C   UNL     1     -16.456   5.401  22.205  0.00  0.00    +0.024 C 
ATOM     17  C   UNL     1     -13.559   5.026  22.668  0.00  0.00    +0.077 C 
ATOM     18  C   UNL     1     -15.427   5.827  21.158  0.00  0.00    +0.077 C 
ATOM     19  C   UNL     1     -14.087   6.152  21.795  0.00  0.00    +0.249 C 
ENDBRANCH   7  11
ENDBRANCH  10   7
BRANCH  13  20
ATOM     20  C   UNL     1     -17.513   0.975  27.931  0.00  0.00    +0.140 C 
BRANCH  20   8
ATOM      5  O   UNL     1     -14.038   3.635  32.625  0.00  0.00    -0.377 OA
ATOM      6  O   UNL     1     -15.608  -0.056  29.728  0.00  0.00    -0.253 OA
ATOM      8  N   UNL     1     -16.927   1.692  29.041  0.00  0.00    -0.297 N 
ATOM      9  N   UNL     1     -15.515   1.931  30.922  0.00  0.00    -0.281 N 
ATOM     21  C   UNL     1     -15.989   1.109  29.885  0.00  0.00    +0.302 C 
ATOM     22  C   UNL     1     -14.530   1.396  31.865  0.00  0.00    +0.137 C 
ATOM     23  C   UNL     1     -16.022   3.266  31.270  0.00  0.00    +0.137 C 
ATOM     24  C   UNL     1     -13.447   2.421  32.161  0.00  0.00    +0.179 C 
ATOM     25  C   UNL     1     -14.875   4.207  31.620  0.00  0.00    +0.179 C 
ATOM     28  H   UNL     1     -17.251   2.638  29.178  0.00  0.00    +0.150 HD
ENDBRANCH  20   8
ENDBRANCH  13  20
TORSDOF 5
ENDMDL
MODEL 5
REMARK VINA RESULT:      -6.3     26.806     28.778
REMARK  Name = 75536749
REMARK  5 active torsions:
REMARK  status: ('A' for Active; 'I' for Inactive)
REMARK    1  A    between atoms: O_4  and  C_12
REMARK    2  A    between atoms: N_7  and  C_10
REMARK    3  A    between atoms: N_7  and  C_11
REMARK    4  A    between atoms: N_8  and  C_20
REMARK    5  A    between atoms: C_13  and  C_20
REMARK                            x       y       z     vdW  Elec       q    Type
REMARK                         _______ _______ _______ _____ _____    ______ ____
ROOT
ATOM      3  O   UNL     1      -5.016 -12.563  18.407  0.00  0.00    -0.371 OA
ATOM     10  C   UNL     1      -4.517 -11.814  16.208  0.00  0.00    +0.111 C 
ATOM     12  C   UNL     1      -5.223 -10.701  16.962  0.00  0.00    +0.164 C 
ATOM     13  C   UNL     1      -4.982 -11.125  18.404  0.00  0.00    +0.165 C 
ATOM     16  C   UNL     1      -4.879 -13.025  17.051  0.00  0.00    +0.181 C 
ENDROOT
BRANCH  12   4
ATOM      4  O   UNL     1      -4.677  -9.426  16.688  0.00  0.00    -0.388 OA
ATOM     27  H   UNL     1      -4.594  -9.329  15.724  0.00  0.00    +0.210 HD
ENDBRANCH  12   4
BRANCH  10   7
ATOM      7  N   UNL     1      -4.940 -11.940  14.824  0.00  0.00    -0.306 NA
ATOM     26  H   UNL     1      -5.941 -11.761  14.743  0.00  0.00    +0.123 HD
BRANCH   7  11
ATOM      1  F   UNL     1      -2.842 -11.604  10.757  0.00  0.00    -0.206 F 
ATOM      2  F   UNL     1      -2.090  -9.566  10.676  0.00  0.00    -0.206 F 
ATOM     11  C   UNL     1      -4.198 -11.022  13.960  0.00  0.00    +0.054 C 
ATOM     14  C   UNL     1      -4.961 -10.813  12.646  0.00  0.00    +0.024 C 
ATOM     15  C   UNL     1      -2.791 -11.574  13.704  0.00  0.00    +0.024 C 
ATOM     17  C   UNL     1      -4.181  -9.914  11.689  0.00  0.00    +0.077 C 
ATOM     18  C   UNL     1      -2.009 -10.675  12.746  0.00  0.00    +0.077 C 
ATOM     19  C   UNL     1      -2.774 -10.440  11.455  0.00  0.00    +0.249 C 
ENDBRANCH   7  11
ENDBRANCH  10   7
BRANCH  13  20
ATOM     20  C   UNL     1      -6.022 -10.585  19.370  0.00  0.00    +0.140 C 
BRANCH  20   8
ATOM      5  O   UNL     1     -11.574  -8.325  17.078  0.00  0.00    -0.377 OA
ATOM      6  O   UNL     1      -8.647 -11.598  19.359  0.00  0.00    -0.253 OA
ATOM      8  N   UNL     1      -7.146 -10.007  18.668  0.00  0.00    -0.297 N 
ATOM      9  N   UNL     1      -9.403  -9.896  17.975  0.00  0.00    -0.281 N 
ATOM     21  C   UNL     1      -8.415 -10.570  18.713  0.00  0.00    +0.302 C 
ATOM     22  C   UNL     1     -10.769 -10.425  17.961  0.00  0.00    +0.137 C 
ATOM     23  C   UNL     1      -9.183  -8.763  17.065  0.00  0.00    +0.137 C 
ATOM     24  C   UNL     1     -11.788  -9.304  18.095  0.00  0.00    +0.179 C 
ATOM     25  C   UNL     1     -10.287  -7.722  17.218  0.00  0.00    +0.179 C 
ATOM     28  H   UNL     1      -6.951  -9.177  18.128  0.00  0.00    +0.150 HD
ENDBRANCH  20   8
ENDBRANCH  13  20
TORSDOF 5
ENDMDL
MODEL 6
REMARK VINA RESULT:      -6.3     26.710     28.576
REMARK  Name = 75536749
REMARK  5 active torsions:
REMARK  status: ('A' for Active; 'I' for Inactive)
REMARK    1  A    between atoms: O_4  and  C_12
REMARK    2  A    between atoms: N_7  and  C_10
REMARK    3  A    between atoms: N_7  and  C_11
REMARK    4  A    between atoms: N_8  and  C_20
REMARK    5  A    between atoms: C_13  and  C_20
REMARK                            x       y       z     vdW  Elec       q    Type
REMARK                         _______ _______ _______ _____ _____    ______ ____
ROOT
ATOM      3  O   UNL     1      -3.134 -14.062  13.054  0.00  0.00    -0.371 OA
ATOM     10  C   UNL     1      -2.055 -11.951  13.196  0.00  0.00    +0.111 C 
ATOM     12  C   UNL     1      -2.806 -12.212  14.490  0.00  0.00    +0.164 C 
ATOM     13  C   UNL     1      -2.959 -13.725  14.441  0.00  0.00    +0.165 C 
ATOM     16  C   UNL     1      -2.726 -12.938  12.256  0.00  0.00    +0.181 C 
ENDROOT
BRANCH  12   4
ATOM      4  O   UNL     1      -2.087 -11.790  15.632  0.00  0.00    -0.388 OA
ATOM     27  H   UNL     1      -1.316 -12.372  15.740  0.00  0.00    +0.210 HD
ENDBRANCH  12   4
BRANCH  10   7
ATOM      7  N   UNL     1      -2.147 -10.576  12.735  0.00  0.00    -0.306 NA
ATOM     26  H   UNL     1      -1.240 -10.254  12.401  0.00  0.00    +0.123 HD
BRANCH   7  11
ATOM      1  F   UNL     1      -4.936  -7.578  10.666  0.00  0.00    -0.206 F 
ATOM      2  F   UNL     1      -5.963  -8.726   9.131  0.00  0.00    -0.206 F 
ATOM     11  C   UNL     1      -3.145 -10.443  11.673  0.00  0.00    +0.054 C 
ATOM     14  C   UNL     1      -2.653  -9.441  10.622  0.00  0.00    +0.024 C 
ATOM     15  C   UNL     1      -4.487 -10.006  12.273  0.00  0.00    +0.024 C 
ATOM     17  C   UNL     1      -3.702  -9.222   9.532  0.00  0.00    +0.077 C 
ATOM     18  C   UNL     1      -5.536  -9.787  11.184  0.00  0.00    +0.077 C 
ATOM     19  C   UNL     1      -5.042  -8.819  10.123  0.00  0.00    +0.249 C 
ENDBRANCH   7  11
ENDBRANCH  10   7
BRANCH  13  20
ATOM     20  C   UNL     1      -4.139 -14.236  15.247  0.00  0.00    +0.140 C 
BRANCH  20   8
ATOM      5  O   UNL     1      -6.652 -10.608  19.907  0.00  0.00    -0.377 OA
ATOM      6  O   UNL     1      -6.639 -12.984  15.567  0.00  0.00    -0.253 OA
ATOM      8  N   UNL     1      -4.493 -13.318  16.306  0.00  0.00    -0.297 N 
ATOM      9  N   UNL     1      -5.945 -11.864  17.476  0.00  0.00    -0.281 N 
ATOM     21  C   UNL     1      -5.754 -12.740  16.394  0.00  0.00    +0.302 C 
ATOM     22  C   UNL     1      -7.242 -11.205  17.642  0.00  0.00    +0.137 C 
ATOM     23  C   UNL     1      -4.908 -11.405  18.412  0.00  0.00    +0.137 C 
ATOM     24  C   UNL     1      -7.670 -11.202  19.101  0.00  0.00    +0.179 C 
ATOM     25  C   UNL     1      -5.444 -11.367  19.839  0.00  0.00    +0.179 C 
ATOM     28  H   UNL     1      -3.764 -13.107  16.972  0.00  0.00    +0.150 HD
ENDBRANCH  20   8
ENDBRANCH  13  20
TORSDOF 5
ENDMDL
MODEL 7
REMARK VINA RESULT:      -6.3     28.305     29.559
REMARK  Name = 75536749
REMARK  5 active torsions:
REMARK  status: ('A' for Active; 'I' for Inactive)
REMARK    1  A    between atoms: O_4  and  C_12
REMARK    2  A    between atoms: N_7  and  C_10
REMARK    3  A    between atoms: N_7  and  C_11
REMARK    4  A    between atoms: N_8  and  C_20
REMARK    5  A    between atoms: C_13  and  C_20
REMARK                            x       y       z     vdW  Elec       q    Type
REMARK                         _______ _______ _______ _____ _____    ______ ____
ROOT
ATOM      3  O   UNL     1     -12.260  -7.773  14.245  0.00  0.00    -0.371 OA
ATOM     10  C   UNL     1     -10.508  -7.937  15.841  0.00  0.00    +0.111 C 
ATOM     12  C   UNL     1     -10.926  -6.483  15.713  0.00  0.00    +0.164 C 
ATOM     13  C   UNL     1     -12.319  -6.631  15.117  0.00  0.00    +0.165 C 
ATOM     16  C   UNL     1     -11.077  -8.527  14.562  0.00  0.00    +0.181 C 
ENDROOT
BRANCH  12   4
ATOM      4  O   UNL     1     -10.953  -5.812  16.957  0.00  0.00    -0.388 OA
ATOM     27  H   UNL     1     -11.345  -6.408  17.618  0.00  0.00    +0.210 HD
ENDBRANCH  12   4
BRANCH  10   7
ATOM      7  N   UNL     1      -9.071  -8.122  15.960  0.00  0.00    -0.306 NA
ATOM     26  H   UNL     1      -8.594  -7.223  15.898  0.00  0.00    +0.123 HD
BRANCH   7  11
ATOM      1  F   UNL     1      -8.113 -12.201  17.828  0.00  0.00    -0.206 F 
ATOM      2  F   UNL     1      -7.758 -11.791  19.933  0.00  0.00    -0.206 F 
ATOM     11  C   UNL     1      -8.728  -8.783  17.219  0.00  0.00    +0.054 C 
ATOM     14  C   UNL     1      -7.352  -9.450  17.097  0.00  0.00    +0.024 C 
ATOM     15  C   UNL     1      -9.812  -9.806  17.580  0.00  0.00    +0.024 C 
ATOM     17  C   UNL     1      -6.991 -10.212  18.371  0.00  0.00    +0.077 C 
ATOM     18  C   UNL     1      -9.451 -10.569  18.855  0.00  0.00    +0.077 C 
ATOM     19  C   UNL     1      -8.075 -11.206  18.751  0.00  0.00    +0.249 C 
ENDBRANCH   7  11
ENDBRANCH  10   7
BRANCH  13  20
ATOM     20  C   UNL     1     -12.769  -5.411  14.333  0.00  0.00    +0.140 C 
BRANCH  20   8
ATOM      5  O   UNL     1     -10.648  -5.088   8.285  0.00  0.00    -0.377 OA
ATOM      6  O   UNL     1     -12.301  -3.263  12.576  0.00  0.00    -0.253 OA
ATOM      8  N   UNL     1     -12.428  -5.526  12.933  0.00  0.00    -0.297 N 
ATOM      9  N   UNL     1     -11.893  -4.685  10.789  0.00  0.00    -0.281 N 
ATOM     21  C   UNL     1     -12.211  -4.412  12.130  0.00  0.00    +0.302 C 
ATOM     22  C   UNL     1     -11.656  -3.570   9.870  0.00  0.00    +0.137 C 
ATOM     23  C   UNL     1     -11.914  -6.006  10.145  0.00  0.00    +0.137 C 
ATOM     24  C   UNL     1     -10.462  -3.849   8.970  0.00  0.00    +0.179 C 
ATOM     25  C   UNL     1     -10.721  -6.173   9.210  0.00  0.00    +0.179 C 
ATOM     28  H   UNL     1     -12.372  -6.464  12.566  0.00  0.00    +0.150 HD
ENDBRANCH  20   8
ENDBRANCH  13  20
TORSDOF 5
ENDMDL
MODEL 8
REMARK VINA RESULT:      -6.2     26.880     29.233
REMARK  Name = 75536749
REMARK  5 active torsions:
REMARK  status: ('A' for Active; 'I' for Inactive)
REMARK    1  A    between atoms: O_4  and  C_12
REMARK    2  A    between atoms: N_7  and  C_10
REMARK    3  A    between atoms: N_7  and  C_11
REMARK    4  A    between atoms: N_8  and  C_20
REMARK    5  A    between atoms: C_13  and  C_20
REMARK                            x       y       z     vdW  Elec       q    Type
REMARK                         _______ _______ _______ _____ _____    ______ ____
ROOT
ATOM      3  O   UNL     1     -17.240   1.768  23.818  0.00  0.00    -0.371 OA
ATOM     10  C   UNL     1     -16.163   3.788  23.182  0.00  0.00    +0.111 C 
ATOM     12  C   UNL     1     -16.477   3.841  24.666  0.00  0.00    +0.164 C 
ATOM     13  C   UNL     1     -16.642   2.361  24.984  0.00  0.00    +0.165 C 
ATOM     16  C   UNL     1     -17.096   2.682  22.717  0.00  0.00    +0.181 C 
ENDROOT
BRANCH  12   4
ATOM      4  O   UNL     1     -15.438   4.431  25.422  0.00  0.00    -0.388 OA
ATOM     27  H   UNL     1     -15.344   3.934  26.253  0.00  0.00    +0.210 HD
ENDBRANCH  12   4
BRANCH  10   7
ATOM      7  N   UNL     1     -16.391   5.047  22.493  0.00  0.00    -0.306 NA
ATOM     26  H   UNL     1     -16.559   5.793  23.167  0.00  0.00    +0.123 HD
BRANCH   7  11
ATOM      1  F   UNL     1     -13.035   8.122  21.908  0.00  0.00    -0.206 F 
ATOM      2  F   UNL     1     -11.949   7.446  20.150  0.00  0.00    -0.206 F 
ATOM     11  C   UNL     1     -15.253   5.393  21.640  0.00  0.00    +0.054 C 
ATOM     14  C   UNL     1     -13.962   5.381  22.467  0.00  0.00    +0.024 C 
ATOM     15  C   UNL     1     -15.486   6.764  20.994  0.00  0.00    +0.024 C 
ATOM     17  C   UNL     1     -12.760   5.807  21.625  0.00  0.00    +0.077 C 
ATOM     18  C   UNL     1     -14.284   7.192  20.152  0.00  0.00    +0.077 C 
ATOM     19  C   UNL     1     -12.998   7.151  20.958  0.00  0.00    +0.249 C 
ENDBRANCH   7  11
ENDBRANCH  10   7
BRANCH  13  20
ATOM     20  C   UNL     1     -17.516   2.101  26.198  0.00  0.00    +0.140 C 
BRANCH  20   8
ATOM      5  O   UNL     1     -14.503   0.802  31.713  0.00  0.00    -0.377 OA
ATOM      6  O   UNL     1     -16.346   3.727  28.174  0.00  0.00    -0.253 OA
ATOM      8  N   UNL     1     -16.735   1.633  27.321  0.00  0.00    -0.297 N 
ATOM      9  N   UNL     1     -15.452   1.899  29.288  0.00  0.00    -0.281 N 
ATOM     21  C   UNL     1     -16.190   2.504  28.257  0.00  0.00    +0.302 C 
ATOM     22  C   UNL     1     -14.834   2.743  30.315  0.00  0.00    +0.137 C 
ATOM     23  C   UNL     1     -15.092   0.476  29.377  0.00  0.00    +0.137 C 
ATOM     24  C   UNL     1     -15.011   2.136  31.697  0.00  0.00    +0.179 C 
ATOM     25  C   UNL     1     -15.232  -0.029  30.809  0.00  0.00    +0.179 C 
ATOM     28  H   UNL     1     -16.594   0.635  27.378  0.00  0.00    +0.150 HD
ENDBRANCH  20   8
ENDBRANCH  13  20
TORSDOF 5
ENDMDL
MODEL 9
REMARK VINA RESULT:      -6.2     24.078     25.480
REMARK  Name = 75536749
REMARK  5 active torsions:
REMARK  status: ('A' for Active; 'I' for Inactive)
REMARK    1  A    between atoms: O_4  and  C_12
REMARK    2  A    between atoms: N_7  and  C_10
REMARK    3  A    between atoms: N_7  and  C_11
REMARK    4  A    between atoms: N_8  and  C_20
REMARK    5  A    between atoms: C_13  and  C_20
REMARK                            x       y       z     vdW  Elec       q    Type
REMARK                         _______ _______ _______ _____ _____    ______ ____
ROOT
ATOM      3  O   UNL     1     -11.521  12.274  15.790  0.00  0.00    -0.371 OA
ATOM     10  C   UNL     1      -9.998  10.533  16.334  0.00  0.00    +0.111 C 
ATOM     12  C   UNL     1     -11.045   9.994  15.375  0.00  0.00    +0.164 C 
ATOM     13  C   UNL     1     -11.560  11.282  14.749  0.00  0.00    +0.165 C 
ATOM     16  C   UNL     1     -10.684  11.786  16.853  0.00  0.00    +0.181 C 
ENDROOT
BRANCH  12   4
ATOM      4  O   UNL     1     -10.498   9.119  14.408  0.00  0.00    -0.388 OA
ATOM     27  H   UNL     1      -9.720   9.547  14.013  0.00  0.00    +0.210 HD
ENDBRANCH  12   4
BRANCH  10   7
ATOM      7  N   UNL     1      -9.642   9.603  17.392  0.00  0.00    -0.306 NA
ATOM     26  H   UNL     1      -8.895   9.991  17.967  0.00  0.00    +0.123 HD
BRANCH   7  11
ATOM      1  F   UNL     1     -10.993   7.155  21.029  0.00  0.00    -0.206 F 
ATOM      2  F   UNL     1     -13.111   7.592  21.250  0.00  0.00    -0.206 F 
ATOM     11  C   UNL     1     -10.801   9.285  18.226  0.00  0.00    +0.054 C 
ATOM     14  C   UNL     1     -10.538   9.729  19.670  0.00  0.00    +0.024 C 
ATOM     15  C   UNL     1     -11.098   7.783  18.152  0.00  0.00    +0.024 C 
ATOM     17  C   UNL     1     -11.700   9.349  20.587  0.00  0.00    +0.077 C 
ATOM     18  C   UNL     1     -12.260   7.402  19.069  0.00  0.00    +0.077 C 
ATOM     19  C   UNL     1     -12.019   7.867  20.495  0.00  0.00    +0.249 C 
ENDBRANCH   7  11
ENDBRANCH  10   7
BRANCH  13  20
ATOM     20  C   UNL     1     -12.974  11.162  14.208  0.00  0.00    +0.140 C 
BRANCH  20   8
ATOM      5  O   UNL     1     -15.505   5.351  13.205  0.00  0.00    -0.377 OA
ATOM      6  O   UNL     1     -14.995   9.699  15.509  0.00  0.00    -0.253 OA
ATOM      8  N   UNL     1     -13.323   9.785  13.940  0.00  0.00    -0.297 N 
ATOM      9  N   UNL     1     -14.555   7.794  14.261  0.00  0.00    -0.281 N 
ATOM     21  C   UNL     1     -14.338   9.132  14.630  0.00  0.00    +0.302 C 
ATOM     22  C   UNL     1     -15.601   7.026  14.942  0.00  0.00    +0.137 C 
ATOM     23  C   UNL     1     -13.727   7.002  13.340  0.00  0.00    +0.137 C 
ATOM     24  C   UNL     1     -16.391   6.185  13.952  0.00  0.00    +0.179 C 
ATOM     25  C   UNL     1     -14.597   6.138  12.434  0.00  0.00    +0.179 C 
ATOM     28  H   UNL     1     -12.774   9.318  13.233  0.00  0.00    +0.150 HD
ENDBRANCH  20   8
ENDBRANCH  13  20
TORSDOF 5
ENDMDL
MODEL 10
REMARK VINA RESULT:      -6.2     26.678     27.957
REMARK  Name = 75536749
REMARK  5 active torsions:
REMARK  status: ('A' for Active; 'I' for Inactive)
REMARK    1  A    between atoms: O_4  and  C_12
REMARK    2  A    between atoms: N_7  and  C_10
REMARK    3  A    between atoms: N_7  and  C_11
REMARK    4  A    between atoms: N_8  and  C_20
REMARK    5  A    between atoms: C_13  and  C_20
REMARK                            x       y       z     vdW  Elec       q    Type
REMARK                         _______ _______ _______ _____ _____    ______ ____
ROOT
ATOM      3  O   UNL     1      -1.817 -11.595  13.118  0.00  0.00    -0.371 OA
ATOM     10  C   UNL     1      -3.480 -11.110  14.743  0.00  0.00    +0.111 C 
ATOM     12  C   UNL     1      -3.764 -10.304  13.488  0.00  0.00    +0.164 C 
ATOM     13  C   UNL     1      -2.988 -11.099  12.447  0.00  0.00    +0.165 C 
ATOM     16  C   UNL     1      -2.022 -11.483  14.537  0.00  0.00    +0.181 C 
ENDROOT
BRANCH  12   4
ATOM      4  O   UNL     1      -5.143 -10.238  13.182  0.00  0.00    -0.388 OA
ATOM     27  H   UNL     1      -5.544 -11.099  13.391  0.00  0.00    +0.210 HD
ENDBRANCH  12   4
BRANCH  10   7
ATOM      7  N   UNL     1      -3.708 -10.372  15.974  0.00  0.00    -0.306 NA
ATOM     26  H   UNL     1      -3.939  -9.401  15.766  0.00  0.00    +0.123 HD
BRANCH   7  11
ATOM      1  F   UNL     1      -6.146  -9.918  19.834  0.00  0.00    -0.206 F 
ATOM      2  F   UNL     1      -7.523 -11.600  19.835  0.00  0.00    -0.206 F 
ATOM     11  C   UNL     1      -4.779 -10.981  16.762  0.00  0.00    +0.054 C 
ATOM     14  C   UNL     1      -5.950  -9.998  16.895  0.00  0.00    +0.024 C 
ATOM     15  C   UNL     1      -4.242 -11.394  18.137  0.00  0.00    +0.024 C 
ATOM     17  C   UNL     1      -7.059 -10.574  17.773  0.00  0.00    +0.077 C 
ATOM     18  C   UNL     1      -5.352 -11.970  19.016  0.00  0.00    +0.077 C 
ATOM     19  C   UNL     1      -6.527 -11.013  19.126  0.00  0.00    +0.249 C 
ENDBRANCH   7  11
ENDBRANCH  10   7
BRANCH  13  20
ATOM     20  C   UNL     1      -2.578 -10.271  11.243  0.00  0.00    +0.140 C 
BRANCH  20   8
ATOM      5  O   UNL     1      -6.171 -10.780   5.949  0.00  0.00    -0.377 OA
ATOM      6  O   UNL     1      -4.909  -8.957  10.372  0.00  0.00    -0.253 OA
ATOM      8  N   UNL     1      -3.354 -10.617  10.073  0.00  0.00    -0.297 N 
ATOM      9  N   UNL     1      -5.147 -10.375   8.552  0.00  0.00    -0.281 N 
ATOM     21  C   UNL     1      -4.498  -9.916   9.710  0.00  0.00    +0.302 C 
ATOM     22  C   UNL     1      -6.366  -9.699   8.100  0.00  0.00    +0.137 C 
ATOM     23  C   UNL     1      -4.815 -11.592   7.796  0.00  0.00    +0.137 C 
ATOM     24  C   UNL     1      -6.361  -9.519   6.591  0.00  0.00    +0.179 C 
ATOM     25  C   UNL     1      -4.903 -11.338   6.295  0.00  0.00    +0.179 C 
ATOM     28  H   UNL     1      -3.026 -11.411   9.543  0.00  0.00    +0.150 HD
ENDBRANCH  20   8
ENDBRANCH  13  20
TORSDOF 5
ENDMDL
