MODEL 1
REMARK VINA RESULT:      -6.9      0.000      0.000
REMARK  Name = 71693214
REMARK  9 active torsions:
REMARK  status: ('A' for Active; 'I' for Inactive)
REMARK    1  A    between atoms: N_3  and  C_12
REMARK    2  A    between atoms: N_3  and  C_17
REMARK    3  A    between atoms: C_6  and  C_10
REMARK    4  A    between atoms: C_7  and  C_12
REMARK    5  A    between atoms: C_9  and  C_14
REMARK    6  A    between atoms: C_10  and  C_15
REMARK    7  A    between atoms: C_10  and  C_16
REMARK    8  A    between atoms: C_11  and  C_18
REMARK    9  A    between atoms: C_14  and  C_21
REMARK                            x       y       z     vdW  Elec       q    Type
REMARK                         _______ _______ _______ _____ _____    ______ ____
ROOT
ATOM      6  C   UNL     1      12.728   7.340  21.583  0.00  0.00    +0.000 C 
ATOM      7  C   UNL     1      13.591   6.780  20.429  0.00  0.00    +0.029 C 
ATOM      8  C   UNL     1      12.937   8.853  21.727  0.00  0.00    +0.012 C 
ATOM      9  C   UNL     1      12.632   9.638  20.432  0.00  0.00    +0.022 C 
ATOM     11  C   UNL     1      13.111   8.924  19.177  0.00  0.00    -0.073 C 
ATOM     13  C   UNL     1      13.547   7.651  19.199  0.00  0.00    -0.023 C 
ATOM     18  C   UNL     1      13.028   9.675  17.876  0.00  0.00    +0.039 C 
ENDROOT
BRANCH   6  10
ATOM     10  C   UNL     1      11.244   7.000  21.388  0.00  0.00    -0.013 C 
ATOM     15  C   UNL     1      10.380   7.817  22.343  0.00  0.00    +0.007 C 
ATOM     16  C   UNL     1      11.009   5.507  21.590  0.00  0.00    +0.007 C 
ENDBRANCH   6  10
BRANCH   7  12
ATOM     12  C   UNL     1      15.049   6.585  20.856  0.00  0.00    +0.089 C 
BRANCH  12   3
ATOM      3  N   UNL     1      15.944   6.777  19.728  0.00  0.00    -0.313 NA
ATOM     30  H   UNL     1      15.473   7.349  19.026  0.00  0.00    +0.122 HD
BRANCH   3  17
ATOM      2  O   UNL     1      18.931   8.271  22.271  0.00  0.00    -0.380 OA
ATOM     17  C   UNL     1      17.183   7.429  20.145  0.00  0.00    +0.058 C 
ATOM     19  C   UNL     1      18.095   6.452  20.894  0.00  0.00    +0.047 C 
ATOM     20  C   UNL     1      16.876   8.642  21.027  0.00  0.00    +0.047 C 
ATOM     22  C   UNL     1      19.319   7.181  21.437  0.00  0.00    +0.161 C 
ATOM     23  C   UNL     1      18.168   9.249  21.563  0.00  0.00    +0.161 C 
ENDBRANCH   3  17
ENDBRANCH  12   3
ENDBRANCH   7  12
BRANCH   9  14
ATOM     14  C   UNL     1      13.210  11.052  20.570  0.00  0.00    +0.082 C 
BRANCH  14  21
ATOM      1 CL   UNL     1      12.114  14.896  27.057  0.00  0.00    -0.083 Cl
ATOM      4  N   UNL     1      13.448  12.310  22.718  0.00  0.00    -0.342 N 
ATOM      5  N   UNL     1      11.366  11.955  22.028  0.00  0.00    -0.232 NA
ATOM     21  C   UNL     1      12.638  11.766  21.761  0.00  0.00    +0.109 A 
ATOM     24  C   UNL     1      12.644  12.889  23.667  0.00  0.00    +0.068 A 
ATOM     25  C   UNL     1      11.349  12.653  23.214  0.00  0.00    +0.089 A 
ATOM     26  C   UNL     1      12.930  13.576  24.848  0.00  0.00    +0.047 A 
ATOM     27  C   UNL     1      10.262  13.124  23.969  0.00  0.00    +0.031 A 
ATOM     28  C   UNL     1      11.835  14.038  25.587  0.00  0.00    +0.043 A 
ATOM     29  C   UNL     1      10.525  13.816  25.158  0.00  0.00    +0.022 A 
ATOM     31  H   UNL     1      14.459  12.293  22.729  0.00  0.00    +0.167 HD
ENDBRANCH  14  21
ENDBRANCH   9  14
TORSDOF 6
ENDMDL
MODEL 2
REMARK VINA RESULT:      -6.6     27.122     30.025
REMARK  Name = 71693214
REMARK  9 active torsions:
REMARK  status: ('A' for Active; 'I' for Inactive)
REMARK    1  A    between atoms: N_3  and  C_12
REMARK    2  A    between atoms: N_3  and  C_17
REMARK    3  A    between atoms: C_6  and  C_10
REMARK    4  A    between atoms: C_7  and  C_12
REMARK    5  A    between atoms: C_9  and  C_14
REMARK    6  A    between atoms: C_10  and  C_15
REMARK    7  A    between atoms: C_10  and  C_16
REMARK    8  A    between atoms: C_11  and  C_18
REMARK    9  A    between atoms: C_14  and  C_21
REMARK                            x       y       z     vdW  Elec       q    Type
REMARK                         _______ _______ _______ _____ _____    ______ ____
ROOT
ATOM      6  C   UNL     1      -3.303 -12.236  13.177  0.00  0.00    +0.000 C 
ATOM      7  C   UNL     1      -2.312 -11.382  14.001  0.00  0.00    +0.029 C 
ATOM      8  C   UNL     1      -4.075 -11.356  12.185  0.00  0.00    +0.012 C 
ATOM      9  C   UNL     1      -3.159 -10.566  11.226  0.00  0.00    +0.022 C 
ATOM     11  C   UNL     1      -1.912 -10.023  11.907  0.00  0.00    -0.073 C 
ATOM     13  C   UNL     1      -1.557 -10.391  13.152  0.00  0.00    -0.023 C 
ATOM     18  C   UNL     1      -1.038  -9.090  11.115  0.00  0.00    +0.039 C 
ENDROOT
BRANCH   6  10
ATOM     10  C   UNL     1      -2.586 -13.387  12.457  0.00  0.00    -0.013 C 
ATOM     15  C   UNL     1      -3.590 -14.245  11.694  0.00  0.00    +0.007 C 
ATOM     16  C   UNL     1      -1.801 -14.231  13.455  0.00  0.00    +0.007 C 
ENDBRANCH   6  10
BRANCH   7  12
ATOM     12  C   UNL     1      -3.016 -10.638  15.139  0.00  0.00    +0.089 C 
BRANCH  12   3
ATOM      3  N   UNL     1      -2.925 -11.391  16.378  0.00  0.00    -0.313 NA
ATOM     30  H   UNL     1      -2.251 -10.936  16.993  0.00  0.00    +0.122 HD
BRANCH   3  17
ATOM      2  O   UNL     1      -6.053 -10.431  19.009  0.00  0.00    -0.380 OA
ATOM     17  C   UNL     1      -4.224 -11.468  17.043  0.00  0.00    +0.058 C 
ATOM     19  C   UNL     1      -5.037 -10.190  16.814  0.00  0.00    +0.047 C 
ATOM     20  C   UNL     1      -4.041 -11.713  18.543  0.00  0.00    +0.047 C 
ATOM     22  C   UNL     1      -6.329 -10.233  17.623  0.00  0.00    +0.161 C 
ATOM     23  C   UNL     1      -5.389 -11.670  19.256  0.00  0.00    +0.161 C 
ENDBRANCH   3  17
ENDBRANCH  12   3
ENDBRANCH   7  12
BRANCH   9  14
ATOM     14  C   UNL     1      -3.990  -9.472  10.545  0.00  0.00    +0.082 C 
BRANCH  14  21
ATOM      1 CL   UNL     1      -7.439 -10.094   3.780  0.00  0.00    -0.083 Cl
ATOM      4  N   UNL     1      -5.340  -9.139   8.467  0.00  0.00    -0.342 N 
ATOM      5  N   UNL     1      -4.211 -11.048   8.593  0.00  0.00    -0.232 NA
ATOM     21  C   UNL     1      -4.495  -9.919   9.203  0.00  0.00    +0.109 A 
ATOM     24  C   UNL     1      -5.622  -9.807   7.303  0.00  0.00    +0.068 A 
ATOM     25  C   UNL     1      -4.905 -10.996   7.406  0.00  0.00    +0.089 A 
ATOM     26  C   UNL     1      -6.418  -9.485   6.203  0.00  0.00    +0.047 A 
ATOM     27  C   UNL     1      -4.974 -11.931   6.359  0.00  0.00    +0.031 A 
ATOM     28  C   UNL     1      -6.475 -10.427   5.170  0.00  0.00    +0.043 A 
ATOM     29  C   UNL     1      -5.768 -11.629   5.245  0.00  0.00    +0.022 A 
ATOM     31  H   UNL     1      -5.697  -8.228   8.728  0.00  0.00    +0.167 HD
ENDBRANCH  14  21
ENDBRANCH   9  14
TORSDOF 6
ENDMDL
MODEL 3
REMARK VINA RESULT:      -6.5     26.782     29.851
REMARK  Name = 71693214
REMARK  9 active torsions:
REMARK  status: ('A' for Active; 'I' for Inactive)
REMARK    1  A    between atoms: N_3  and  C_12
REMARK    2  A    between atoms: N_3  and  C_17
REMARK    3  A    between atoms: C_6  and  C_10
REMARK    4  A    between atoms: C_7  and  C_12
REMARK    5  A    between atoms: C_9  and  C_14
REMARK    6  A    between atoms: C_10  and  C_15
REMARK    7  A    between atoms: C_10  and  C_16
REMARK    8  A    between atoms: C_11  and  C_18
REMARK    9  A    between atoms: C_14  and  C_21
REMARK                            x       y       z     vdW  Elec       q    Type
REMARK                         _______ _______ _______ _____ _____    ______ ____
ROOT
ATOM      6  C   UNL     1      -5.044 -12.279  15.627  0.00  0.00    +0.000 C 
ATOM      7  C   UNL     1      -4.904 -10.766  15.913  0.00  0.00    +0.029 C 
ATOM      8  C   UNL     1      -4.049 -12.716  14.543  0.00  0.00    +0.012 C 
ATOM      9  C   UNL     1      -2.580 -12.394  14.895  0.00  0.00    +0.022 C 
ATOM     11  C   UNL     1      -2.414 -11.043  15.575  0.00  0.00    -0.073 C 
ATOM     13  C   UNL     1      -3.466 -10.326  16.013  0.00  0.00    -0.023 C 
ATOM     18  C   UNL     1      -1.012 -10.548  15.802  0.00  0.00    +0.039 C 
ENDROOT
BRANCH   6  10
ATOM     10  C   UNL     1      -4.870 -13.109  16.907  0.00  0.00    -0.013 C 
ATOM     15  C   UNL     1      -5.235 -14.568  16.649  0.00  0.00    +0.007 C 
ATOM     16  C   UNL     1      -5.718 -12.531  18.035  0.00  0.00    +0.007 C 
ENDBRANCH   6  10
BRANCH   7  12
ATOM     12  C   UNL     1      -5.618  -9.921  14.854  0.00  0.00    +0.089 C 
BRANCH  12   3
ATOM      3  N   UNL     1      -7.036 -10.236  14.817  0.00  0.00    -0.313 NA
ATOM     30  H   UNL     1      -7.526  -9.629  15.474  0.00  0.00    +0.122 HD
BRANCH   3  17
ATOM      2  O   UNL     1      -7.373 -10.528  10.642  0.00  0.00    -0.380 OA
ATOM     17  C   UNL     1      -7.580 -10.051  13.473  0.00  0.00    +0.058 C 
ATOM     19  C   UNL     1      -7.950 -11.395  12.838  0.00  0.00    +0.047 C 
ATOM     20  C   UNL     1      -6.573  -9.311  12.588  0.00  0.00    +0.047 C 
ATOM     22  C   UNL     1      -8.389 -11.194  11.392  0.00  0.00    +0.161 C 
ATOM     23  C   UNL     1      -7.089  -9.227  11.155  0.00  0.00    +0.161 C 
ENDBRANCH   3  17
ENDBRANCH  12   3
ENDBRANCH   7  12
BRANCH   9  14
ATOM     14  C   UNL     1      -1.732 -12.530  13.625  0.00  0.00    +0.082 C 
BRANCH  14  21
ATOM      1 CL   UNL     1      -5.362 -10.447   7.259  0.00  0.00    -0.083 Cl
ATOM      4  N   UNL     1      -3.027 -12.433  11.489  0.00  0.00    -0.342 N 
ATOM      5  N   UNL     1      -2.299 -10.484  12.270  0.00  0.00    -0.232 NA
ATOM     21  C   UNL     1      -2.340 -11.782  12.474  0.00  0.00    +0.109 A 
ATOM     24  C   UNL     1      -3.459 -11.493  10.588  0.00  0.00    +0.068 A 
ATOM     25  C   UNL     1      -2.992 -10.285  11.098  0.00  0.00    +0.089 A 
ATOM     26  C   UNL     1      -4.194 -11.592   9.406  0.00  0.00    +0.047 A 
ATOM     27  C   UNL     1      -3.265  -9.095  10.402  0.00  0.00    +0.031 A 
ATOM     28  C   UNL     1      -4.458 -10.398   8.726  0.00  0.00    +0.043 A 
ATOM     29  C   UNL     1      -4.002  -9.171   9.213  0.00  0.00    +0.022 A 
ATOM     31  H   UNL     1      -3.192 -13.429  11.430  0.00  0.00    +0.167 HD
ENDBRANCH  14  21
ENDBRANCH   9  14
TORSDOF 6
ENDMDL
MODEL 4
REMARK VINA RESULT:      -6.4     26.902     29.928
REMARK  Name = 71693214
REMARK  9 active torsions:
REMARK  status: ('A' for Active; 'I' for Inactive)
REMARK    1  A    between atoms: N_3  and  C_12
REMARK    2  A    between atoms: N_3  and  C_17
REMARK    3  A    between atoms: C_6  and  C_10
REMARK    4  A    between atoms: C_7  and  C_12
REMARK    5  A    between atoms: C_9  and  C_14
REMARK    6  A    between atoms: C_10  and  C_15
REMARK    7  A    between atoms: C_10  and  C_16
REMARK    8  A    between atoms: C_11  and  C_18
REMARK    9  A    between atoms: C_14  and  C_21
REMARK                            x       y       z     vdW  Elec       q    Type
REMARK                         _______ _______ _______ _____ _____    ______ ____
ROOT
ATOM      6  C   UNL     1      -4.999 -12.506  15.671  0.00  0.00    +0.000 C 
ATOM      7  C   UNL     1      -4.902 -10.987  15.940  0.00  0.00    +0.029 C 
ATOM      8  C   UNL     1      -4.015 -12.921  14.569  0.00  0.00    +0.012 C 
ATOM      9  C   UNL     1      -2.550 -12.549  14.886  0.00  0.00    +0.022 C 
ATOM     11  C   UNL     1      -2.412 -11.188  15.550  0.00  0.00    -0.073 C 
ATOM     13  C   UNL     1      -3.476 -10.500  16.004  0.00  0.00    -0.023 C 
ATOM     18  C   UNL     1      -1.022 -10.646  15.743  0.00  0.00    +0.039 C 
ENDROOT
BRANCH   6  10
ATOM     10  C   UNL     1      -4.771 -13.318  16.953  0.00  0.00    -0.013 C 
ATOM     15  C   UNL     1      -5.133 -14.782  16.727  0.00  0.00    +0.007 C 
ATOM     16  C   UNL     1      -5.582 -12.732  18.105  0.00  0.00    +0.007 C 
ENDBRANCH   6  10
BRANCH   7  12
ATOM     12  C   UNL     1      -5.665 -10.175  14.889  0.00  0.00    +0.089 C 
BRANCH  12   3
ATOM      3  N   UNL     1      -6.640  -9.303  15.523  0.00  0.00    -0.313 NA
ATOM     30  H   UNL     1      -7.140  -8.786  14.799  0.00  0.00    +0.122 HD
BRANCH   3  17
ATOM      2  O   UNL     1     -10.318 -10.637  17.044  0.00  0.00    -0.380 OA
ATOM     17  C   UNL     1      -7.589 -10.072  16.325  0.00  0.00    +0.058 C 
ATOM     19  C   UNL     1      -8.517 -10.903  15.434  0.00  0.00    +0.047 C 
ATOM     20  C   UNL     1      -8.414  -9.137  17.214  0.00  0.00    +0.047 C 
ATOM     22  C   UNL     1      -9.584 -11.592  16.278  0.00  0.00    +0.161 C 
ATOM     23  C   UNL     1      -9.487  -9.924  17.959  0.00  0.00    +0.161 C 
ENDBRANCH   3  17
ENDBRANCH  12   3
ENDBRANCH   7  12
BRANCH   9  14
ATOM     14  C   UNL     1      -1.725 -12.670  13.599  0.00  0.00    +0.082 C 
BRANCH  14  21
ATOM      1 CL   UNL     1      -5.361 -10.406   7.298  0.00  0.00    -0.083 Cl
ATOM      4  N   UNL     1      -3.010 -12.513  11.460  0.00  0.00    -0.342 N 
ATOM      5  N   UNL     1      -2.324 -10.584  12.322  0.00  0.00    -0.232 NA
ATOM     21  C   UNL     1      -2.342 -11.889  12.475  0.00  0.00    +0.109 A 
ATOM     24  C   UNL     1      -3.455 -11.547  10.594  0.00  0.00    +0.068 A 
ATOM     25  C   UNL     1      -3.014 -10.351  11.154  0.00  0.00    +0.089 A 
ATOM     26  C   UNL     1      -4.183 -11.614   9.405  0.00  0.00    +0.047 A 
ATOM     27  C   UNL     1      -3.307  -9.140  10.505  0.00  0.00    +0.031 A 
ATOM     28  C   UNL     1      -4.466 -10.399   8.771  0.00  0.00    +0.043 A 
ATOM     29  C   UNL     1      -4.036  -9.184   9.309  0.00  0.00    +0.022 A 
ATOM     31  H   UNL     1      -3.156 -13.510  11.361  0.00  0.00    +0.167 HD
ENDBRANCH  14  21
ENDBRANCH   9  14
TORSDOF 6
ENDMDL
MODEL 5
REMARK VINA RESULT:      -6.4      3.182      7.427
REMARK  Name = 71693214
REMARK  9 active torsions:
REMARK  status: ('A' for Active; 'I' for Inactive)
REMARK    1  A    between atoms: N_3  and  C_12
REMARK    2  A    between atoms: N_3  and  C_17
REMARK    3  A    between atoms: C_6  and  C_10
REMARK    4  A    between atoms: C_7  and  C_12
REMARK    5  A    between atoms: C_9  and  C_14
REMARK    6  A    between atoms: C_10  and  C_15
REMARK    7  A    between atoms: C_10  and  C_16
REMARK    8  A    between atoms: C_11  and  C_18
REMARK    9  A    between atoms: C_14  and  C_21
REMARK                            x       y       z     vdW  Elec       q    Type
REMARK                         _______ _______ _______ _____ _____    ______ ____
ROOT
ATOM      6  C   UNL     1      13.466   9.906  19.095  0.00  0.00    +0.000 C 
ATOM      7  C   UNL     1      12.041  10.063  19.672  0.00  0.00    +0.029 C 
ATOM      8  C   UNL     1      14.392   9.241  20.122  0.00  0.00    +0.012 C 
ATOM      9  C   UNL     1      13.882   7.867  20.607  0.00  0.00    +0.022 C 
ATOM     11  C   UNL     1      12.375   7.831  20.812  0.00  0.00    -0.073 C 
ATOM     13  C   UNL     1      11.570   8.828  20.398  0.00  0.00    -0.023 C 
ATOM     18  C   UNL     1      11.790   6.601  21.451  0.00  0.00    +0.039 C 
ENDROOT
BRANCH   6  10
ATOM     10  C   UNL     1      13.452   9.126  17.773  0.00  0.00    -0.013 C 
ATOM     15  C   UNL     1      14.512   9.672  16.822  0.00  0.00    +0.007 C 
ATOM     16  C   UNL     1      12.069   9.188  17.134  0.00  0.00    +0.007 C 
ENDBRANCH   6  10
BRANCH   7  12
ATOM     12  C   UNL     1      11.939  11.268  20.612  0.00  0.00    +0.089 C 
BRANCH  12   3
ATOM      3  N   UNL     1      11.263  10.902  21.844  0.00  0.00    -0.313 NA
ATOM     30  H   UNL     1      11.415   9.910  22.023  0.00  0.00    +0.122 HD
BRANCH   3  17
ATOM      2  O   UNL     1      12.717  11.775  25.685  0.00  0.00    -0.380 OA
ATOM     17  C   UNL     1      11.761  11.688  22.971  0.00  0.00    +0.058 C 
ATOM     19  C   UNL     1      13.181  11.261  23.355  0.00  0.00    +0.047 C 
ATOM     20  C   UNL     1      10.826  11.546  24.175  0.00  0.00    +0.047 C 
ATOM     22  C   UNL     1      13.633  11.996  24.613  0.00  0.00    +0.161 C 
ATOM     23  C   UNL     1      11.409  12.265  25.387  0.00  0.00    +0.161 C 
ENDBRANCH   3  17
ENDBRANCH  12   3
ENDBRANCH   7  12
BRANCH   9  14
ATOM     14  C   UNL     1      14.664   7.470  21.865  0.00  0.00    +0.082 C 
BRANCH  14  21
ATOM      1 CL   UNL     1      22.174   8.610  21.271  0.00  0.00    -0.083 Cl
ATOM      4  N   UNL     1      16.999   8.360  21.942  0.00  0.00    -0.342 N 
ATOM      5  N   UNL     1      16.754   6.361  21.003  0.00  0.00    -0.232 NA
ATOM     21  C   UNL     1      16.135   7.363  21.587  0.00  0.00    +0.109 A 
ATOM     24  C   UNL     1      18.260   7.978  21.562  0.00  0.00    +0.068 A 
ATOM     25  C   UNL     1      18.081   6.727  20.978  0.00  0.00    +0.089 A 
ATOM     26  C   UNL     1      19.504   8.599  21.675  0.00  0.00    +0.047 A 
ATOM     27  C   UNL     1      19.197   6.040  20.472  0.00  0.00    +0.031 A 
ATOM     28  C   UNL     1      20.605   7.902  21.165  0.00  0.00    +0.043 A 
ATOM     29  C   UNL     1      20.456   6.645  20.574  0.00  0.00    +0.022 A 
ATOM     31  H   UNL     1      16.757   9.227  22.404  0.00  0.00    +0.167 HD
ENDBRANCH  14  21
ENDBRANCH   9  14
TORSDOF 6
ENDMDL
MODEL 6
REMARK VINA RESULT:      -6.3     14.937     17.385
REMARK  Name = 71693214
REMARK  9 active torsions:
REMARK  status: ('A' for Active; 'I' for Inactive)
REMARK    1  A    between atoms: N_3  and  C_12
REMARK    2  A    between atoms: N_3  and  C_17
REMARK    3  A    between atoms: C_6  and  C_10
REMARK    4  A    between atoms: C_7  and  C_12
REMARK    5  A    between atoms: C_9  and  C_14
REMARK    6  A    between atoms: C_10  and  C_15
REMARK    7  A    between atoms: C_10  and  C_16
REMARK    8  A    between atoms: C_11  and  C_18
REMARK    9  A    between atoms: C_14  and  C_21
REMARK                            x       y       z     vdW  Elec       q    Type
REMARK                         _______ _______ _______ _____ _____    ______ ____
ROOT
ATOM      6  C   UNL     1      10.559   6.646   3.682  0.00  0.00    +0.000 C 
ATOM      7  C   UNL     1       9.107   6.404   4.151  0.00  0.00    +0.029 C 
ATOM      8  C   UNL     1      11.440   7.083   4.860  0.00  0.00    +0.012 C 
ATOM      9  C   UNL     1      11.441   6.075   6.029  0.00  0.00    +0.022 C 
ATOM     11  C   UNL     1      10.071   5.468   6.293  0.00  0.00    -0.073 C 
ATOM     13  C   UNL     1       9.038   5.636   5.447  0.00  0.00    -0.023 C 
ATOM     18  C   UNL     1       9.916   4.609   7.518  0.00  0.00    +0.039 C 
ENDROOT
BRANCH   6  10
ATOM     10  C   UNL     1      11.138   5.406   2.986  0.00  0.00    -0.013 C 
ATOM     15  C   UNL     1      12.549   5.688   2.481  0.00  0.00    +0.007 C 
ATOM     16  C   UNL     1      10.231   4.968   1.841  0.00  0.00    +0.007 C 
ENDBRANCH   6  10
BRANCH   7  12
ATOM     12  C   UNL     1       8.333   7.718   4.302  0.00  0.00    +0.089 C 
BRANCH  12   3
ATOM      3  N   UNL     1       7.821   7.859   5.654  0.00  0.00    -0.313 NA
ATOM     30  H   UNL     1       8.079   7.033   6.193  0.00  0.00    +0.122 HD
BRANCH   3  17
ATOM      2  O   UNL     1      10.642  10.527   7.250  0.00  0.00    -0.380 OA
ATOM     17  C   UNL     1       8.359   9.055   6.297  0.00  0.00    +0.058 C 
ATOM     19  C   UNL     1       9.301   9.812   5.354  0.00  0.00    +0.047 C 
ATOM     20  C   UNL     1       9.097   8.682   7.586  0.00  0.00    +0.047 C 
ATOM     22  C   UNL     1       9.955  10.980   6.085  0.00  0.00    +0.161 C 
ATOM     23  C   UNL     1       9.763   9.912   8.192  0.00  0.00    +0.161 C 
ENDBRANCH   3  17
ENDBRANCH  12   3
ENDBRANCH   7  12
BRANCH   9  14
ATOM     14  C   UNL     1      12.037   6.760   7.266  0.00  0.00    +0.082 C 
BRANCH  14  21
ATOM      1 CL   UNL     1      17.028  12.381   6.026  0.00  0.00    -0.083 Cl
ATOM      4  N   UNL     1      13.231   8.947   7.062  0.00  0.00    -0.342 N 
ATOM      5  N   UNL     1      14.382   7.154   6.435  0.00  0.00    -0.232 NA
ATOM     21  C   UNL     1      13.237   7.590   6.910  0.00  0.00    +0.109 A 
ATOM     24  C   UNL     1      14.453   9.420   6.659  0.00  0.00    +0.068 A 
ATOM     25  C   UNL     1      15.154   8.282   6.272  0.00  0.00    +0.089 A 
ATOM     26  C   UNL     1      14.990  10.707   6.601  0.00  0.00    +0.047 A 
ATOM     27  C   UNL     1      16.469   8.414   5.796  0.00  0.00    +0.031 A 
ATOM     28  C   UNL     1      16.301  10.821   6.125  0.00  0.00    +0.043 A 
ATOM     29  C   UNL     1      17.028   9.697   5.728  0.00  0.00    +0.022 A 
ATOM     31  H   UNL     1      12.464   9.509   7.412  0.00  0.00    +0.167 HD
ENDBRANCH  14  21
ENDBRANCH   9  14
TORSDOF 6
ENDMDL
MODEL 7
REMARK VINA RESULT:      -6.3     26.420     29.308
REMARK  Name = 71693214
REMARK  9 active torsions:
REMARK  status: ('A' for Active; 'I' for Inactive)
REMARK    1  A    between atoms: N_3  and  C_12
REMARK    2  A    between atoms: N_3  and  C_17
REMARK    3  A    between atoms: C_6  and  C_10
REMARK    4  A    between atoms: C_7  and  C_12
REMARK    5  A    between atoms: C_9  and  C_14
REMARK    6  A    between atoms: C_10  and  C_15
REMARK    7  A    between atoms: C_10  and  C_16
REMARK    8  A    between atoms: C_11  and  C_18
REMARK    9  A    between atoms: C_14  and  C_21
REMARK                            x       y       z     vdW  Elec       q    Type
REMARK                         _______ _______ _______ _____ _____    ______ ____
ROOT
ATOM      6  C   UNL     1      -3.514 -10.759  15.137  0.00  0.00    +0.000 C 
ATOM      7  C   UNL     1      -4.283 -11.873  14.392  0.00  0.00    +0.029 C 
ATOM      8  C   UNL     1      -4.245 -10.373  16.431  0.00  0.00    +0.012 C 
ATOM      9  C   UNL     1      -4.470 -11.567  17.385  0.00  0.00    +0.022 C 
ATOM     11  C   UNL     1      -4.847 -12.848  16.656  0.00  0.00    -0.073 C 
ATOM     13  C   UNL     1      -4.768 -12.961  15.317  0.00  0.00    -0.023 C 
ATOM     18  C   UNL     1      -5.262 -14.027  17.493  0.00  0.00    +0.039 C 
ENDROOT
BRANCH   6  10
ATOM     10  C   UNL     1      -2.064 -11.173  15.421  0.00  0.00    -0.013 C 
ATOM     15  C   UNL     1      -1.172  -9.942  15.543  0.00  0.00    +0.007 C 
ATOM     16  C   UNL     1      -1.553 -12.105  14.327  0.00  0.00    +0.007 C 
ENDBRANCH   6  10
BRANCH   7  12
ATOM     12  C   UNL     1      -5.473 -11.313  13.607  0.00  0.00    +0.089 C 
BRANCH  12   3
ATOM      3  N   UNL     1      -5.261 -11.461  12.178  0.00  0.00    -0.313 NA
ATOM     30  H   UNL     1      -6.148 -11.699  11.735  0.00  0.00    +0.122 HD
BRANCH   3  17
ATOM      2  O   UNL     1      -3.736  -8.824   9.289  0.00  0.00    -0.380 OA
ATOM     17  C   UNL     1      -4.733 -10.230  11.594  0.00  0.00    +0.058 C 
ATOM     19  C   UNL     1      -5.657  -9.703  10.491  0.00  0.00    +0.047 C 
ATOM     20  C   UNL     1      -3.328 -10.466  11.034  0.00  0.00    +0.047 C 
ATOM     22  C   UNL     1      -5.025  -8.496   9.804  0.00  0.00    +0.161 C 
ATOM     23  C   UNL     1      -2.827  -9.217  10.317  0.00  0.00    +0.161 C 
ENDBRANCH   3  17
ENDBRANCH  12   3
ENDBRANCH   7  12
BRANCH   9  14
ATOM     14  C   UNL     1      -5.502 -11.158  18.444  0.00  0.00    +0.082 C 
BRANCH  14  21
ATOM      1 CL   UNL     1     -11.658  -7.190  16.346  0.00  0.00    -0.083 Cl
ATOM      4  N   UNL     1      -7.311  -9.458  18.148  0.00  0.00    -0.342 N 
ATOM      5  N   UNL     1      -7.496 -11.295  16.912  0.00  0.00    -0.232 NA
ATOM     21  C   UNL     1      -6.773 -10.669  17.813  0.00  0.00    +0.109 A 
ATOM     24  C   UNL     1      -8.457  -9.291  17.413  0.00  0.00    +0.068 A 
ATOM     25  C   UNL     1      -8.551 -10.451  16.650  0.00  0.00    +0.089 A 
ATOM     26  C   UNL     1      -9.392  -8.257  17.354  0.00  0.00    +0.047 A 
ATOM     27  C   UNL     1      -9.634 -10.607  15.769  0.00  0.00    +0.031 A 
ATOM     28  C   UNL     1     -10.465  -8.428  16.471  0.00  0.00    +0.043 A 
ATOM     29  C   UNL     1     -10.586  -9.581  15.693  0.00  0.00    +0.022 A 
ATOM     31  H   UNL     1      -6.934  -8.798  18.816  0.00  0.00    +0.167 HD
ENDBRANCH  14  21
ENDBRANCH   9  14
TORSDOF 6
ENDMDL
MODEL 8
REMARK VINA RESULT:      -6.2     26.616     29.390
REMARK  Name = 71693214
REMARK  9 active torsions:
REMARK  status: ('A' for Active; 'I' for Inactive)
REMARK    1  A    between atoms: N_3  and  C_12
REMARK    2  A    between atoms: N_3  and  C_17
REMARK    3  A    between atoms: C_6  and  C_10
REMARK    4  A    between atoms: C_7  and  C_12
REMARK    5  A    between atoms: C_9  and  C_14
REMARK    6  A    between atoms: C_10  and  C_15
REMARK    7  A    between atoms: C_10  and  C_16
REMARK    8  A    between atoms: C_11  and  C_18
REMARK    9  A    between atoms: C_14  and  C_21
REMARK                            x       y       z     vdW  Elec       q    Type
REMARK                         _______ _______ _______ _____ _____    ______ ____
ROOT
ATOM      6  C   UNL     1      -4.230 -11.318  12.515  0.00  0.00    +0.000 C 
ATOM      7  C   UNL     1      -2.768 -11.773  12.304  0.00  0.00    +0.029 C 
ATOM      8  C   UNL     1      -4.614 -11.412  13.998  0.00  0.00    +0.012 C 
ATOM      9  C   UNL     1      -3.685 -10.596  14.923  0.00  0.00    +0.022 C 
ATOM     11  C   UNL     1      -2.222 -10.673  14.514  0.00  0.00    -0.073 C 
ATOM     13  C   UNL     1      -1.831 -11.213  13.344  0.00  0.00    -0.023 C 
ATOM     18  C   UNL     1      -1.208 -10.064  15.443  0.00  0.00    +0.039 C 
ENDROOT
BRANCH   6  10
ATOM     10  C   UNL     1      -4.460  -9.902  11.971  0.00  0.00    -0.013 C 
ATOM     15  C   UNL     1      -5.942  -9.545  12.026  0.00  0.00    +0.007 C 
ATOM     16  C   UNL     1      -3.929  -9.787  10.546  0.00  0.00    +0.007 C 
ENDBRANCH   6  10
BRANCH   7  12
ATOM     12  C   UNL     1      -2.646 -13.300  12.286  0.00  0.00    +0.089 C 
BRANCH  12   3
ATOM      3  N   UNL     1      -1.405 -13.723  12.912  0.00  0.00    -0.313 NA
ATOM     30  H   UNL     1      -1.063 -12.969  13.508  0.00  0.00    +0.122 HD
BRANCH   3  17
ATOM      2  O   UNL     1      -3.216 -17.232  14.339  0.00  0.00    -0.380 OA
ATOM     17  C   UNL     1      -1.605 -14.930  13.710  0.00  0.00    +0.058 C 
ATOM     19  C   UNL     1      -1.635 -16.179  12.822  0.00  0.00    +0.047 C 
ATOM     20  C   UNL     1      -2.903 -14.828  14.516  0.00  0.00    +0.047 C 
ATOM     22  C   UNL     1      -1.977 -17.411  13.653  0.00  0.00    +0.161 C 
ATOM     23  C   UNL     1      -3.174 -16.136  15.252  0.00  0.00    +0.161 C 
ENDBRANCH   3  17
ENDBRANCH  12   3
ENDBRANCH   7  12
BRANCH   9  14
ATOM     14  C   UNL     1      -3.922 -11.042  16.371  0.00  0.00    +0.082 C 
BRANCH  14  21
ATOM      1 CL   UNL     1     -10.911  -8.218  17.486  0.00  0.00    -0.083 Cl
ATOM      4  N   UNL     1      -6.019  -9.680  16.378  0.00  0.00    -0.342 N 
ATOM      5  N   UNL     1      -6.070 -11.543  17.588  0.00  0.00    -0.232 NA
ATOM     21  C   UNL     1      -5.339 -10.787  16.800  0.00  0.00    +0.109 A 
ATOM     24  C   UNL     1      -7.275  -9.724  16.929  0.00  0.00    +0.068 A 
ATOM     25  C   UNL     1      -7.281 -10.896  17.680  0.00  0.00    +0.089 A 
ATOM     26  C   UNL     1      -8.371  -8.866  16.840  0.00  0.00    +0.047 A 
ATOM     27  C   UNL     1      -8.441 -11.250  18.390  0.00  0.00    +0.031 A 
ATOM     28  C   UNL     1      -9.518  -9.233  17.552  0.00  0.00    +0.043 A 
ATOM     29  C   UNL     1      -9.554 -10.402  18.314  0.00  0.00    +0.022 A 
ATOM     31  H   UNL     1      -5.666  -8.955  15.767  0.00  0.00    +0.167 HD
ENDBRANCH  14  21
ENDBRANCH   9  14
TORSDOF 6
ENDMDL
MODEL 9
REMARK VINA RESULT:      -6.2     14.004     16.700
REMARK  Name = 71693214
REMARK  9 active torsions:
REMARK  status: ('A' for Active; 'I' for Inactive)
REMARK    1  A    between atoms: N_3  and  C_12
REMARK    2  A    between atoms: N_3  and  C_17
REMARK    3  A    between atoms: C_6  and  C_10
REMARK    4  A    between atoms: C_7  and  C_12
REMARK    5  A    between atoms: C_9  and  C_14
REMARK    6  A    between atoms: C_10  and  C_15
REMARK    7  A    between atoms: C_10  and  C_16
REMARK    8  A    between atoms: C_11  and  C_18
REMARK    9  A    between atoms: C_14  and  C_21
REMARK                            x       y       z     vdW  Elec       q    Type
REMARK                         _______ _______ _______ _____ _____    ______ ____
ROOT
ATOM      6  C   UNL     1      10.735   5.981   6.020  0.00  0.00    +0.000 C 
ATOM      7  C   UNL     1      10.136   5.828   4.604  0.00  0.00    +0.029 C 
ATOM      8  C   UNL     1      11.028   7.456   6.324  0.00  0.00    +0.012 C 
ATOM      9  C   UNL     1       9.788   8.366   6.191  0.00  0.00    +0.022 C 
ATOM     11  C   UNL     1       8.904   7.998   5.009  0.00  0.00    -0.073 C 
ATOM     13  C   UNL     1       9.083   6.865   4.305  0.00  0.00    -0.023 C 
ATOM     18  C   UNL     1       7.766   8.924   4.678  0.00  0.00    +0.039 C 
ENDROOT
BRANCH   6  10
ATOM     10  C   UNL     1       9.817   5.367   7.086  0.00  0.00    -0.013 C 
ATOM     15  C   UNL     1      10.333   5.690   8.484  0.00  0.00    +0.007 C 
ATOM     16  C   UNL     1       9.705   3.859   6.887  0.00  0.00    +0.007 C 
ENDBRANCH   6  10
BRANCH   7  12
ATOM     12  C   UNL     1      11.218   5.882   3.522  0.00  0.00    +0.089 C 
BRANCH  12   3
ATOM      3  N   UNL     1      11.585   4.543   3.095  0.00  0.00    -0.313 NA
ATOM     30  H   UNL     1      10.781   3.927   3.213  0.00  0.00    +0.122 HD
BRANCH   3  17
ATOM      2  O   UNL     1      12.247   3.125  -0.800  0.00  0.00    -0.380 OA
ATOM     17  C   UNL     1      12.012   4.535   1.698  0.00  0.00    +0.058 C 
ATOM     19  C   UNL     1      10.820   4.325   0.758  0.00  0.00    +0.047 C 
ATOM     20  C   UNL     1      13.061   3.444   1.467  0.00  0.00    +0.047 C 
ATOM     22  C   UNL     1      11.300   4.186  -0.683  0.00  0.00    +0.161 C 
ATOM     23  C   UNL     1      13.416   3.353  -0.013  0.00  0.00    +0.161 C 
ENDBRANCH   3  17
ENDBRANCH  12   3
ENDBRANCH   7  12
BRANCH   9  14
ATOM     14  C   UNL     1      10.254   9.827   6.154  0.00  0.00    +0.082 C 
BRANCH  14  21
ATOM      1 CL   UNL     1       8.874  12.504  13.153  0.00  0.00    -0.083 Cl
ATOM      4  N   UNL     1       9.237  10.566   8.316  0.00  0.00    -0.342 N 
ATOM      5  N   UNL     1      11.437  10.822   8.143  0.00  0.00    -0.232 NA
ATOM     21  C   UNL     1      10.347  10.410   7.535  0.00  0.00    +0.109 A 
ATOM     24  C   UNL     1       9.635  11.115   9.507  0.00  0.00    +0.068 A 
ATOM     25  C   UNL     1      11.013  11.266   9.374  0.00  0.00    +0.089 A 
ATOM     26  C   UNL     1       8.931  11.483  10.655  0.00  0.00    +0.047 A 
ATOM     27  C   UNL     1      11.748  11.814  10.439  0.00  0.00    +0.031 A 
ATOM     28  C   UNL     1       9.679  12.027  11.705  0.00  0.00    +0.043 A 
ATOM     29  C   UNL     1      11.062  12.191  11.600  0.00  0.00    +0.022 A 
ATOM     31  H   UNL     1       8.287  10.320   8.065  0.00  0.00    +0.167 HD
ENDBRANCH  14  21
ENDBRANCH   9  14
TORSDOF 6
ENDMDL
MODEL 10
REMARK VINA RESULT:      -6.2     29.875     31.835
REMARK  Name = 71693214
REMARK  9 active torsions:
REMARK  status: ('A' for Active; 'I' for Inactive)
REMARK    1  A    between atoms: N_3  and  C_12
REMARK    2  A    between atoms: N_3  and  C_17
REMARK    3  A    between atoms: C_6  and  C_10
REMARK    4  A    between atoms: C_7  and  C_12
REMARK    5  A    between atoms: C_9  and  C_14
REMARK    6  A    between atoms: C_10  and  C_15
REMARK    7  A    between atoms: C_10  and  C_16
REMARK    8  A    between atoms: C_11  and  C_18
REMARK    9  A    between atoms: C_14  and  C_21
REMARK                            x       y       z     vdW  Elec       q    Type
REMARK                         _______ _______ _______ _____ _____    ______ ____
ROOT
ATOM      6  C   UNL     1     -14.257   6.811  32.514  0.00  0.00    +0.000 C 
ATOM      7  C   UNL     1     -14.246   5.516  33.358  0.00  0.00    +0.029 C 
ATOM      8  C   UNL     1     -15.535   6.892  31.669  0.00  0.00    +0.012 C 
ATOM      9  C   UNL     1     -16.829   6.816  32.508  0.00  0.00    +0.022 C 
ATOM     11  C   UNL     1     -16.739   5.815  33.650  0.00  0.00    -0.073 C 
ATOM     13  C   UNL     1     -15.578   5.236  34.007  0.00  0.00    -0.023 C 
ATOM     18  C   UNL     1     -17.998   5.528  34.423  0.00  0.00    +0.039 C 
ENDROOT
BRANCH   6  10
ATOM     10  C   UNL     1     -14.097   8.056  33.398  0.00  0.00    -0.013 C 
ATOM     15  C   UNL     1     -13.730   9.269  32.549  0.00  0.00    +0.007 C 
ATOM     16  C   UNL     1     -13.043   7.812  34.474  0.00  0.00    +0.007 C 
ENDBRANCH   6  10
BRANCH   7  12
ATOM     12  C   UNL     1     -13.826   4.301  32.524  0.00  0.00    +0.089 C 
BRANCH  12   3
ATOM      3  N   UNL     1     -14.468   3.095  33.017  0.00  0.00    -0.313 NA
ATOM     30  H   UNL     1     -15.356   3.347  33.451  0.00  0.00    +0.122 HD
BRANCH   3  17
ATOM      2  O   UNL     1     -13.836  -0.172  30.457  0.00  0.00    -0.380 OA
ATOM     17  C   UNL     1     -14.701   2.143  31.933  0.00  0.00    +0.058 C 
ATOM     19  C   UNL     1     -14.857   0.718  32.475  0.00  0.00    +0.047 C 
ATOM     20  C   UNL     1     -13.553   2.197  30.921  0.00  0.00    +0.047 C 
ATOM     22  C   UNL     1     -14.964  -0.277  31.324  0.00  0.00    +0.161 C 
ATOM     23  C   UNL     1     -13.733   1.119  29.857  0.00  0.00    +0.161 C 
ENDBRANCH   3  17
ENDBRANCH  12   3
ENDBRANCH   7  12
BRANCH   9  14
ATOM     14  C   UNL     1     -18.008   6.540  31.566  0.00  0.00    +0.082 C 
BRANCH  14  21
ATOM      1 CL   UNL     1     -16.134   2.620  25.308  0.00  0.00    -0.083 Cl
ATOM      4  N   UNL     1     -17.377   5.797  29.264  0.00  0.00    -0.342 N 
ATOM      5  N   UNL     1     -17.616   4.183  30.772  0.00  0.00    -0.232 NA
ATOM     21  C   UNL     1     -17.671   5.478  30.559  0.00  0.00    +0.109 A 
ATOM     24  C   UNL     1     -17.114   4.629  28.594  0.00  0.00    +0.068 A 
ATOM     25  C   UNL     1     -17.269   3.636  29.558  0.00  0.00    +0.089 A 
ATOM     26  C   UNL     1     -16.765   4.363  27.270  0.00  0.00    +0.047 A 
ATOM     27  C   UNL     1     -17.069   2.293  29.197  0.00  0.00    +0.031 A 
ATOM     28  C   UNL     1     -16.568   3.021  26.927  0.00  0.00    +0.043 A 
ATOM     29  C   UNL     1     -16.718   2.003  27.872  0.00  0.00    +0.022 A 
ATOM     31  H   UNL     1     -17.355   6.726  28.864  0.00  0.00    +0.167 HD
ENDBRANCH  14  21
ENDBRANCH   9  14
TORSDOF 6
ENDMDL
