MODEL 1
REMARK VINA RESULT:      -7.6      0.000      0.000
REMARK  Name = 7155596
REMARK  5 active torsions:
REMARK  status: ('A' for Active; 'I' for Inactive)
REMARK    1  A    between atoms: O_5  and  C_29
REMARK    2  A    between atoms: O_5  and  C_35
REMARK    3  A    between atoms: N_8  and  C_22
REMARK    4  A    between atoms: N_9  and  C_20
REMARK    5  A    between atoms: C_23  and  C_26
REMARK                            x       y       z     vdW  Elec       q    Type
REMARK                         _______ _______ _______ _____ _____    ______ ____
ROOT
ATOM      2  O   UNL     1      13.743   6.363   7.088  0.00  0.00    -0.266 OA
ATOM      3  O   UNL     1       9.782   7.870   2.959  0.00  0.00    -0.252 OA
ATOM      6  N   UNL     1       9.189   7.124   5.068  0.00  0.00    -0.284 N 
ATOM      7  N   UNL     1      11.711   7.514   7.019  0.00  0.00    -0.310 N 
ATOM      8  N   UNL     1       9.842   5.593   3.396  0.00  0.00    -0.269 N 
ATOM     10  C   UNL     1       9.460   6.379   7.450  0.00  0.00    +0.027 C 
ATOM     11  C   UNL     1       9.532   8.772   6.907  0.00  0.00    +0.054 C 
ATOM     12  C   UNL     1       9.006   7.755   7.916  0.00  0.00    +0.018 C 
ATOM     13  C   UNL     1       8.911   6.059   6.045  0.00  0.00    +0.114 C 
ATOM     14  C   UNL     1      10.992   6.325   7.490  0.00  0.00    +0.130 C 
ATOM     15  C   UNL     1       8.907   8.489   5.531  0.00  0.00    +0.119 C 
ATOM     16  C   UNL     1      11.045   8.725   6.808  0.00  0.00    +0.027 A 
ATOM     17  C   UNL     1      11.737   9.831   6.491  0.00  0.00    +0.024 A 
ATOM     18  C   UNL     1      13.111   7.402   6.895  0.00  0.00    +0.273 A 
ATOM     19  C   UNL     1       9.628   6.928   3.740  0.00  0.00    +0.306 C 
ATOM     20  C   UNL     1      13.844   8.652   6.515  0.00  0.00    +0.099 A 
ATOM     21  C   UNL     1      13.165   9.790   6.340  0.00  0.00    +0.030 A 
ATOM     36  H   UNL     1       9.307   4.880   3.880  0.00  0.00    +0.156 HD
ENDROOT
BRANCH   8  22
ATOM     22  C   UNL     1      10.709   5.093   2.392  0.00  0.00    +0.035 A 
ATOM     24  C   UNL     1      10.198   4.756   1.142  0.00  0.00    +0.027 A 
ATOM     25  C   UNL     1      12.067   4.944   2.662  0.00  0.00    +0.027 A 
ATOM     27  C   UNL     1      11.051   4.265   0.153  0.00  0.00    +0.047 A 
ATOM     28  C   UNL     1      12.919   4.453   1.673  0.00  0.00    +0.047 A 
ATOM     29  C   UNL     1      12.412   4.114   0.419  0.00  0.00    +0.120 A 
BRANCH  29   5
ATOM      5  O   UNL     1      13.244   3.636  -0.546  0.00  0.00    -0.495 OA
ATOM     35  C   UNL     1      14.623   3.993  -0.449  0.00  0.00    +0.277 C 
ENDBRANCH  29   5
ENDBRANCH   8  22
BRANCH  20   9
ATOM      4  O   UNL     1      15.259   8.391   4.051  0.00  0.00    -0.270 OA
ATOM      9  N   UNL     1      15.197   8.581   6.368  0.00  0.00    -0.277 N 
ATOM     23  C   UNL     1      15.828   8.454   5.138  0.00  0.00    +0.248 C 
ATOM     37  H   UNL     1      15.746   8.878   7.171  0.00  0.00    +0.155 HD
BRANCH  23  26
ATOM      1  F   UNL     1      21.407   8.304   5.285  0.00  0.00    -0.205 F 
ATOM     26  C   UNL     1      17.313   8.416   5.176  0.00  0.00    +0.037 A 
ATOM     30  C   UNL     1      17.957   8.754   6.348  0.00  0.00    +0.016 A 
ATOM     31  C   UNL     1      17.999   8.041   4.040  0.00  0.00    +0.016 A 
ATOM     32  C   UNL     1      19.351   8.715   6.385  0.00  0.00    +0.039 A 
ATOM     33  C   UNL     1      19.393   8.002   4.077  0.00  0.00    +0.039 A 
ATOM     34  C   UNL     1      20.069   8.339   5.250  0.00  0.00    +0.123 A 
ENDBRANCH  23  26
ENDBRANCH  20   9
TORSDOF 4
ENDMDL
MODEL 2
REMARK VINA RESULT:      -7.6     26.468     29.378
REMARK  Name = 7155596
REMARK  5 active torsions:
REMARK  status: ('A' for Active; 'I' for Inactive)
REMARK    1  A    between atoms: O_5  and  C_29
REMARK    2  A    between atoms: O_5  and  C_35
REMARK    3  A    between atoms: N_8  and  C_22
REMARK    4  A    between atoms: N_9  and  C_20
REMARK    5  A    between atoms: C_23  and  C_26
REMARK                            x       y       z     vdW  Elec       q    Type
REMARK                         _______ _______ _______ _____ _____    ______ ____
ROOT
ATOM      2  O   UNL     1     -10.709  -9.761  14.420  0.00  0.00    -0.266 OA
ATOM      3  O   UNL     1     -12.135  -4.538  12.033  0.00  0.00    -0.252 OA
ATOM      6  N   UNL     1     -13.709  -6.112  12.661  0.00  0.00    -0.284 N 
ATOM      7  N   UNL     1     -12.340  -8.122  14.760  0.00  0.00    -0.310 N 
ATOM      8  N   UNL     1     -12.536  -6.338  10.627  0.00  0.00    -0.269 N 
ATOM     10  C   UNL     1     -14.648  -8.215  13.662  0.00  0.00    +0.027 C 
ATOM     11  C   UNL     1     -14.069  -6.326  15.119  0.00  0.00    +0.054 C 
ATOM     12  C   UNL     1     -15.109  -7.415  14.872  0.00  0.00    +0.018 C 
ATOM     13  C   UNL     1     -14.522  -7.315  12.416  0.00  0.00    +0.114 C 
ATOM     14  C   UNL     1     -13.323  -8.907  14.003  0.00  0.00    +0.130 C 
ATOM     15  C   UNL     1     -14.019  -5.389  13.901  0.00  0.00    +0.119 C 
ATOM     16  C   UNL     1     -12.695  -6.918  15.374  0.00  0.00    +0.027 A 
ATOM     17  C   UNL     1     -11.816  -6.274  16.159  0.00  0.00    +0.024 A 
ATOM     18  C   UNL     1     -11.062  -8.694  14.925  0.00  0.00    +0.273 A 
ATOM     19  C   UNL     1     -12.734  -5.587  11.785  0.00  0.00    +0.306 C 
ATOM     20  C   UNL     1     -10.103  -7.933  15.786  0.00  0.00    +0.099 A 
ATOM     21  C   UNL     1     -10.494  -6.794  16.366  0.00  0.00    +0.030 A 
ATOM     36  H   UNL     1     -13.310  -6.891  10.274  0.00  0.00    +0.156 HD
ENDROOT
BRANCH   8  22
ATOM     22  C   UNL     1     -11.367  -6.391   9.827  0.00  0.00    +0.035 A 
ATOM     24  C   UNL     1     -10.732  -7.610   9.610  0.00  0.00    +0.027 A 
ATOM     25  C   UNL     1     -10.861  -5.222   9.263  0.00  0.00    +0.027 A 
ATOM     27  C   UNL     1      -9.582  -7.662   8.822  0.00  0.00    +0.047 A 
ATOM     28  C   UNL     1      -9.710  -5.275   8.476  0.00  0.00    +0.047 A 
ATOM     29  C   UNL     1      -9.071  -6.495   8.255  0.00  0.00    +0.120 A 
BRANCH  29   5
ATOM      5  O   UNL     1      -7.950  -6.546   7.485  0.00  0.00    -0.495 OA
ATOM     35  C   UNL     1      -7.949  -7.471   6.399  0.00  0.00    +0.277 C 
ENDBRANCH  29   5
ENDBRANCH   8  22
BRANCH  20   9
ATOM      4  O   UNL     1      -9.233  -9.569  17.956  0.00  0.00    -0.270 OA
ATOM      9  N   UNL     1      -8.850  -8.445  15.957  0.00  0.00    -0.277 N 
ATOM     23  C   UNL     1      -8.488  -9.238  17.038  0.00  0.00    +0.248 C 
ATOM     37  H   UNL     1      -8.253  -8.437  15.134  0.00  0.00    +0.155 HD
BRANCH  23  26
ATOM      1  F   UNL     1      -3.212 -11.062  17.044  0.00  0.00    -0.205 F 
ATOM     26  C   UNL     1      -7.083  -9.722  17.039  0.00  0.00    +0.037 A 
ATOM     30  C   UNL     1      -6.574 -10.280  18.194  0.00  0.00    +0.016 A 
ATOM     31  C   UNL     1      -6.336  -9.601  15.888  0.00  0.00    +0.016 A 
ATOM     32  C   UNL     1      -5.256 -10.737  18.195  0.00  0.00    +0.039 A 
ATOM     33  C   UNL     1      -5.018 -10.057  15.889  0.00  0.00    +0.039 A 
ATOM     34  C   UNL     1      -4.477 -10.625  17.043  0.00  0.00    +0.123 A 
ENDBRANCH  23  26
ENDBRANCH  20   9
TORSDOF 4
ENDMDL
MODEL 3
REMARK VINA RESULT:      -7.6     12.085     15.097
REMARK  Name = 7155596
REMARK  5 active torsions:
REMARK  status: ('A' for Active; 'I' for Inactive)
REMARK    1  A    between atoms: O_5  and  C_29
REMARK    2  A    between atoms: O_5  and  C_35
REMARK    3  A    between atoms: N_8  and  C_22
REMARK    4  A    between atoms: N_9  and  C_20
REMARK    5  A    between atoms: C_23  and  C_26
REMARK                            x       y       z     vdW  Elec       q    Type
REMARK                         _______ _______ _______ _____ _____    ______ ____
ROOT
ATOM      2  O   UNL     1      15.077  11.556  18.168  0.00  0.00    -0.266 OA
ATOM      3  O   UNL     1      15.097   5.958  20.086  0.00  0.00    -0.252 OA
ATOM      6  N   UNL     1      13.759   7.606  21.008  0.00  0.00    -0.284 N 
ATOM      7  N   UNL     1      13.490   9.993  18.875  0.00  0.00    -0.310 N 
ATOM      8  N   UNL     1      16.041   7.454  21.587  0.00  0.00    -0.269 N 
ATOM     10  C   UNL     1      12.668   9.849  21.293  0.00  0.00    +0.027 C 
ATOM     11  C   UNL     1      11.801   8.278  19.618  0.00  0.00    +0.054 C 
ATOM     12  C   UNL     1      11.390   9.288  20.685  0.00  0.00    +0.018 C 
ATOM     13  C   UNL     1      13.519   8.731  21.927  0.00  0.00    +0.114 C 
ATOM     14  C   UNL     1      13.440  10.608  20.207  0.00  0.00    +0.130 C 
ATOM     15  C   UNL     1      12.576   7.127  20.282  0.00  0.00    +0.119 C 
ATOM     16  C   UNL     1      12.654   8.923  18.541  0.00  0.00    +0.027 A 
ATOM     17  C   UNL     1      12.630   8.450  17.285  0.00  0.00    +0.024 A 
ATOM     18  C   UNL     1      14.338  10.600  17.927  0.00  0.00    +0.273 A 
ATOM     19  C   UNL     1      14.989   6.934  20.832  0.00  0.00    +0.306 C 
ATOM     20  C   UNL     1      14.301  10.028  16.543  0.00  0.00    +0.099 A 
ATOM     21  C   UNL     1      13.473   9.015  16.268  0.00  0.00    +0.030 A 
ATOM     36  H   UNL     1      15.821   7.922  22.460  0.00  0.00    +0.156 HD
ENDROOT
BRANCH   8  22
ATOM     22  C   UNL     1      17.427   7.368  21.302  0.00  0.00    +0.035 A 
ATOM     24  C   UNL     1      17.948   6.203  20.746  0.00  0.00    +0.027 A 
ATOM     25  C   UNL     1      18.258   8.451  21.578  0.00  0.00    +0.027 A 
ATOM     27  C   UNL     1      19.312   6.119  20.465  0.00  0.00    +0.047 A 
ATOM     28  C   UNL     1      19.622   8.366  21.297  0.00  0.00    +0.047 A 
ATOM     29  C   UNL     1      20.148   7.201  20.739  0.00  0.00    +0.120 A 
BRANCH  29   5
ATOM      5  O   UNL     1      21.478   7.120  20.463  0.00  0.00    -0.495 OA
ATOM     35  C   UNL     1      22.175   8.348  20.256  0.00  0.00    +0.277 C 
ENDBRANCH  29   5
ENDBRANCH   8  22
BRANCH  20   9
ATOM      4  O   UNL     1      13.469  11.466  14.224  0.00  0.00    -0.270 OA
ATOM      9  N   UNL     1      15.119  10.577  15.601  0.00  0.00    -0.277 N 
ATOM     23  C   UNL     1      14.651  11.268  14.491  0.00  0.00    +0.248 C 
ATOM     37  H   UNL     1      16.094  10.683  15.869  0.00  0.00    +0.155 HD
BRANCH  23  26
ATOM      1  F   UNL     1      18.577  13.316  11.090  0.00  0.00    -0.205 F 
ATOM     26  C   UNL     1      15.696  11.815  13.586  0.00  0.00    +0.037 A 
ATOM     30  C   UNL     1      16.953  12.065  14.096  0.00  0.00    +0.016 A 
ATOM     31  C   UNL     1      15.375  12.051  12.266  0.00  0.00    +0.016 A 
ATOM     32  C   UNL     1      17.934  12.576  13.246  0.00  0.00    +0.039 A 
ATOM     33  C   UNL     1      16.356  12.561  11.416  0.00  0.00    +0.039 A 
ATOM     34  C   UNL     1      17.636  12.824  11.905  0.00  0.00    +0.123 A 
ENDBRANCH  23  26
ENDBRANCH  20   9
TORSDOF 4
ENDMDL
MODEL 4
REMARK VINA RESULT:      -7.5      4.085      6.963
REMARK  Name = 7155596
REMARK  5 active torsions:
REMARK  status: ('A' for Active; 'I' for Inactive)
REMARK    1  A    between atoms: O_5  and  C_29
REMARK    2  A    between atoms: O_5  and  C_35
REMARK    3  A    between atoms: N_8  and  C_22
REMARK    4  A    between atoms: N_9  and  C_20
REMARK    5  A    between atoms: C_23  and  C_26
REMARK                            x       y       z     vdW  Elec       q    Type
REMARK                         _______ _______ _______ _____ _____    ______ ____
ROOT
ATOM      2  O   UNL     1      10.178   4.624   3.006  0.00  0.00    -0.266 OA
ATOM      3  O   UNL     1       9.612  10.167   4.998  0.00  0.00    -0.252 OA
ATOM      6  N   UNL     1       9.418   8.308   6.361  0.00  0.00    -0.284 N 
ATOM      7  N   UNL     1      10.842   5.830   4.893  0.00  0.00    -0.310 N 
ATOM      8  N   UNL     1       7.620   8.979   4.989  0.00  0.00    -0.269 N 
ATOM     10  C   UNL     1       9.472   5.894   7.051  0.00  0.00    +0.027 C 
ATOM     11  C   UNL     1      11.567   7.165   6.904  0.00  0.00    +0.054 C 
ATOM     12  C   UNL     1      10.809   6.136   7.737  0.00  0.00    +0.018 C 
ATOM     13  C   UNL     1       8.654   7.198   6.954  0.00  0.00    +0.114 C 
ATOM     14  C   UNL     1       9.728   5.277   5.672  0.00  0.00    +0.130 C 
ATOM     15  C   UNL     1      10.777   8.484   6.888  0.00  0.00    +0.119 C 
ATOM     16  C   UNL     1      11.786   6.677   5.484  0.00  0.00    +0.027 A 
ATOM     17  C   UNL     1      12.862   7.079   4.788  0.00  0.00    +0.024 A 
ATOM     18  C   UNL     1      10.972   5.383   3.563  0.00  0.00    +0.273 A 
ATOM     19  C   UNL     1       8.929   9.223   5.403  0.00  0.00    +0.306 C 
ATOM     20  C   UNL     1      12.172   5.874   2.813  0.00  0.00    +0.099 A 
ATOM     21  C   UNL     1      13.055   6.669   3.426  0.00  0.00    +0.030 A 
ATOM     36  H   UNL     1       6.991   8.512   5.633  0.00  0.00    +0.156 HD
ENDROOT
BRANCH   8  22
ATOM     22  C   UNL     1       7.025   9.354   3.758  0.00  0.00    +0.035 A 
ATOM     24  C   UNL     1       7.613   8.964   2.558  0.00  0.00    +0.027 A 
ATOM     25  C   UNL     1       5.855  10.109   3.758  0.00  0.00    +0.027 A 
ATOM     27  C   UNL     1       7.026   9.332   1.347  0.00  0.00    +0.047 A 
ATOM     28  C   UNL     1       5.269  10.477   2.546  0.00  0.00    +0.047 A 
ATOM     29  C   UNL     1       5.854  10.088   1.341  0.00  0.00    +0.120 A 
BRANCH  29   5
ATOM      5  O   UNL     1       5.281  10.445   0.160  0.00  0.00    -0.495 OA
ATOM     35  C   UNL     1       4.377   9.513  -0.432  0.00  0.00    +0.277 C 
ENDBRANCH  29   5
ENDBRANCH   8  22
BRANCH  20   9
ATOM      4  O   UNL     1      13.545   3.539   1.917  0.00  0.00    -0.270 OA
ATOM      9  N   UNL     1      12.324   5.477   1.518  0.00  0.00    -0.277 N 
ATOM     23  C   UNL     1      13.005   4.326   1.145  0.00  0.00    +0.248 C 
ATOM     37  H   UNL     1      11.703   5.919   0.844  0.00  0.00    +0.155 HD
BRANCH  23  26
ATOM      1  F   UNL     1      13.165   3.270  -4.335  0.00  0.00    -0.205 F 
ATOM     26  C   UNL     1      13.046   4.046  -0.314  0.00  0.00    +0.037 A 
ATOM     30  C   UNL     1      14.087   4.559  -1.060  0.00  0.00    +0.016 A 
ATOM     31  C   UNL     1      12.046   3.280  -0.874  0.00  0.00    +0.016 A 
ATOM     32  C   UNL     1      14.128   4.295  -2.429  0.00  0.00    +0.039 A 
ATOM     33  C   UNL     1      12.086   3.016  -2.242  0.00  0.00    +0.039 A 
ATOM     34  C   UNL     1      13.127   3.523  -3.021  0.00  0.00    +0.123 A 
ENDBRANCH  23  26
ENDBRANCH  20   9
TORSDOF 4
ENDMDL
MODEL 5
REMARK VINA RESULT:      -7.3      2.730      7.073
REMARK  Name = 7155596
REMARK  5 active torsions:
REMARK  status: ('A' for Active; 'I' for Inactive)
REMARK    1  A    between atoms: O_5  and  C_29
REMARK    2  A    between atoms: O_5  and  C_35
REMARK    3  A    between atoms: N_8  and  C_22
REMARK    4  A    between atoms: N_9  and  C_20
REMARK    5  A    between atoms: C_23  and  C_26
REMARK                            x       y       z     vdW  Elec       q    Type
REMARK                         _______ _______ _______ _____ _____    ______ ____
ROOT
ATOM      2  O   UNL     1      10.626   7.410   2.220  0.00  0.00    -0.266 OA
ATOM      3  O   UNL     1      13.589   6.358   7.233  0.00  0.00    -0.252 OA
ATOM      6  N   UNL     1      11.678   7.659   7.143  0.00  0.00    -0.284 N 
ATOM      7  N   UNL     1      10.093   6.934   4.445  0.00  0.00    -0.310 N 
ATOM      8  N   UNL     1      13.765   8.551   6.497  0.00  0.00    -0.269 N 
ATOM     10  C   UNL     1       9.635   8.756   6.180  0.00  0.00    +0.027 C 
ATOM     11  C   UNL     1       9.551   6.394   6.845  0.00  0.00    +0.054 C 
ATOM     12  C   UNL     1       8.769   7.705   6.861  0.00  0.00    +0.018 C 
ATOM     13  C   UNL     1      10.976   8.934   6.920  0.00  0.00    +0.114 C 
ATOM     14  C   UNL     1       9.840   8.354   4.715  0.00  0.00    +0.130 C 
ATOM     15  C   UNL     1      10.844   6.567   7.658  0.00  0.00    +0.119 C 
ATOM     16  C   UNL     1       9.884   5.963   5.429  0.00  0.00    +0.027 A 
ATOM     17  C   UNL     1      10.007   4.659   5.129  0.00  0.00    +0.024 A 
ATOM     18  C   UNL     1      10.450   6.593   3.124  0.00  0.00    +0.273 A 
ATOM     19  C   UNL     1      13.063   7.441   6.966  0.00  0.00    +0.306 C 
ATOM     20  C   UNL     1      10.602   5.130   2.837  0.00  0.00    +0.099 A 
ATOM     21  C   UNL     1      10.376   4.238   3.807  0.00  0.00    +0.030 A 
ATOM     36  H   UNL     1      13.406   9.474   6.713  0.00  0.00    +0.156 HD
ENDROOT
BRANCH   8  22
ATOM     22  C   UNL     1      14.982   8.552   5.770  0.00  0.00    +0.035 A 
ATOM     24  C   UNL     1      16.077   9.262   6.254  0.00  0.00    +0.027 A 
ATOM     25  C   UNL     1      15.075   7.842   4.575  0.00  0.00    +0.027 A 
ATOM     27  C   UNL     1      17.275   9.262   5.539  0.00  0.00    +0.047 A 
ATOM     28  C   UNL     1      16.273   7.843   3.861  0.00  0.00    +0.047 A 
ATOM     29  C   UNL     1      17.373   8.553   4.343  0.00  0.00    +0.120 A 
BRANCH  29   5
ATOM      5  O   UNL     1      18.541   8.552   3.646  0.00  0.00    -0.495 OA
ATOM     35  C   UNL     1      19.699   8.058   4.320  0.00  0.00    +0.277 C 
ENDBRANCH  29   5
ENDBRANCH   8  22
BRANCH  20   9
ATOM      4  O   UNL     1      13.264   4.694   1.907  0.00  0.00    -0.270 OA
ATOM      9  N   UNL     1      10.963   4.760   1.576  0.00  0.00    -0.277 N 
ATOM     23  C   UNL     1      12.281   4.562   1.184  0.00  0.00    +0.248 C 
ATOM     37  H   UNL     1      10.218   4.386   0.994  0.00  0.00    +0.155 HD
BRANCH  23  26
ATOM      1  F   UNL     1      13.019   2.964  -4.115  0.00  0.00    -0.205 F 
ATOM     26  C   UNL     1      12.476   4.138  -0.227  0.00  0.00    +0.037 A 
ATOM     30  C   UNL     1      13.711   4.325  -0.813  0.00  0.00    +0.016 A 
ATOM     31  C   UNL     1      11.419   3.569  -0.904  0.00  0.00    +0.016 A 
ATOM     32  C   UNL     1      13.896   3.925  -2.136  0.00  0.00    +0.039 A 
ATOM     33  C   UNL     1      11.603   3.169  -2.227  0.00  0.00    +0.039 A 
ATOM     34  C   UNL     1      12.842   3.347  -2.844  0.00  0.00    +0.123 A 
ENDBRANCH  23  26
ENDBRANCH  20   9
TORSDOF 4
ENDMDL
MODEL 6
REMARK VINA RESULT:      -7.2     26.269     29.947
REMARK  Name = 7155596
REMARK  5 active torsions:
REMARK  status: ('A' for Active; 'I' for Inactive)
REMARK    1  A    between atoms: O_5  and  C_29
REMARK    2  A    between atoms: O_5  and  C_35
REMARK    3  A    between atoms: N_8  and  C_22
REMARK    4  A    between atoms: N_9  and  C_20
REMARK    5  A    between atoms: C_23  and  C_26
REMARK                            x       y       z     vdW  Elec       q    Type
REMARK                         _______ _______ _______ _____ _____    ______ ____
ROOT
ATOM      2  O   UNL     1      -7.605  -8.842  17.060  0.00  0.00    -0.266 OA
ATOM      3  O   UNL     1      -5.127 -12.973  13.624  0.00  0.00    -0.252 OA
ATOM      6  N   UNL     1      -4.261 -12.351  15.677  0.00  0.00    -0.284 N 
ATOM      7  N   UNL     1      -6.595 -10.927  17.364  0.00  0.00    -0.310 N 
ATOM      8  N   UNL     1      -3.884 -11.020  13.766  0.00  0.00    -0.269 N 
ATOM     10  C   UNL     1      -4.110 -11.198  17.903  0.00  0.00    +0.027 C 
ATOM     11  C   UNL     1      -5.525 -13.189  17.656  0.00  0.00    +0.054 C 
ATOM     12  C   UNL     1      -4.534 -12.491  18.584  0.00  0.00    +0.018 C 
ATOM     13  C   UNL     1      -3.445 -11.481  16.541  0.00  0.00    +0.114 C 
ATOM     14  C   UNL     1      -5.336 -10.288  17.763  0.00  0.00    +0.130 C 
ATOM     15  C   UNL     1      -4.820 -13.538  16.335  0.00  0.00    +0.119 C 
ATOM     16  C   UNL     1      -6.737 -12.318  17.382  0.00  0.00    +0.027 A 
ATOM     17  C   UNL     1      -7.930 -12.879  17.128  0.00  0.00    +0.024 A 
ATOM     18  C   UNL     1      -7.676 -10.072  17.070  0.00  0.00    +0.273 A 
ATOM     19  C   UNL     1      -4.479 -12.166  14.294  0.00  0.00    +0.306 C 
ATOM     20  C   UNL     1      -8.983 -10.737  16.767  0.00  0.00    +0.099 A 
ATOM     21  C   UNL     1      -9.074 -12.070  16.813  0.00  0.00    +0.030 A 
ATOM     36  H   UNL     1      -3.048 -10.662  14.215  0.00  0.00    +0.156 HD
ENDROOT
BRANCH   8  22
ATOM     22  C   UNL     1      -4.286 -10.296  12.616  0.00  0.00    +0.035 A 
ATOM     24  C   UNL     1      -5.527  -9.666  12.594  0.00  0.00    +0.027 A 
ATOM     25  C   UNL     1      -3.436 -10.219  11.515  0.00  0.00    +0.027 A 
ATOM     27  C   UNL     1      -5.922  -8.952  11.462  0.00  0.00    +0.047 A 
ATOM     28  C   UNL     1      -3.832  -9.505  10.383  0.00  0.00    +0.047 A 
ATOM     29  C   UNL     1      -5.075  -8.872  10.357  0.00  0.00    +0.120 A 
BRANCH  29   5
ATOM      5  O   UNL     1      -5.460  -8.174   9.254  0.00  0.00    -0.495 OA
ATOM     35  C   UNL     1      -6.828  -8.280   8.863  0.00  0.00    +0.277 C 
ENDBRANCH  29   5
ENDBRANCH   8  22
BRANCH  20   9
ATOM      4  O   UNL     1     -10.773  -9.528  18.631  0.00  0.00    -0.270 OA
ATOM      9  N   UNL     1     -10.049  -9.944  16.461  0.00  0.00    -0.277 N 
ATOM     23  C   UNL     1     -10.885  -9.383  17.417  0.00  0.00    +0.248 C 
ATOM     37  H   UNL     1     -10.065  -9.568  15.516  0.00  0.00    +0.155 HD
BRANCH  23  26
ATOM      1  F   UNL     1     -15.007  -6.171  15.452  0.00  0.00    -0.205 F 
ATOM     26  C   UNL     1     -11.982  -8.528  16.892  0.00  0.00    +0.037 A 
ATOM     30  C   UNL     1     -13.281  -8.985  16.981  0.00  0.00    +0.016 A 
ATOM     31  C   UNL     1     -11.667  -7.306  16.337  0.00  0.00    +0.016 A 
ATOM     32  C   UNL     1     -14.311  -8.182  16.491  0.00  0.00    +0.039 A 
ATOM     33  C   UNL     1     -12.696  -6.504  15.847  0.00  0.00    +0.039 A 
ATOM     34  C   UNL     1     -14.019  -6.941  15.924  0.00  0.00    +0.123 A 
ENDBRANCH  23  26
ENDBRANCH  20   9
TORSDOF 4
ENDMDL
MODEL 7
REMARK VINA RESULT:      -7.0     25.174     28.024
REMARK  Name = 7155596
REMARK  5 active torsions:
REMARK  status: ('A' for Active; 'I' for Inactive)
REMARK    1  A    between atoms: O_5  and  C_29
REMARK    2  A    between atoms: O_5  and  C_35
REMARK    3  A    between atoms: N_8  and  C_22
REMARK    4  A    between atoms: N_9  and  C_20
REMARK    5  A    between atoms: C_23  and  C_26
REMARK                            x       y       z     vdW  Elec       q    Type
REMARK                         _______ _______ _______ _____ _____    ______ ____
ROOT
ATOM      2  O   UNL     1      -6.116 -12.022  10.942  0.00  0.00    -0.266 OA
ATOM      3  O   UNL     1      -3.396 -10.297  15.905  0.00  0.00    -0.252 OA
ATOM      6  N   UNL     1      -3.204 -12.432  15.035  0.00  0.00    -0.284 N 
ATOM      7  N   UNL     1      -4.021 -12.330  11.930  0.00  0.00    -0.310 N 
ATOM      8  N   UNL     1      -5.115 -11.810  16.270  0.00  0.00    -0.269 N 
ATOM     10  C   UNL     1      -3.473 -14.335  13.420  0.00  0.00    +0.027 C 
ATOM     11  C   UNL     1      -1.764 -12.622  13.008  0.00  0.00    +0.054 C 
ATOM     12  C   UNL     1      -2.040 -14.122  12.953  0.00  0.00    +0.018 C 
ATOM     13  C   UNL     1      -3.671 -13.817  14.858  0.00  0.00    +0.114 C 
ATOM     14  C   UNL     1      -4.422 -13.651  12.429  0.00  0.00    +0.130 C 
ATOM     15  C   UNL     1      -1.883 -12.139  14.464  0.00  0.00    +0.119 C 
ATOM     16  C   UNL     1      -2.724 -11.847  12.125  0.00  0.00    +0.027 A 
ATOM     17  C   UNL     1      -2.341 -10.690  11.560  0.00  0.00    +0.024 A 
ATOM     18  C   UNL     1      -4.969 -11.629  11.157  0.00  0.00    +0.273 A 
ATOM     19  C   UNL     1      -3.882 -11.419  15.749  0.00  0.00    +0.306 C 
ATOM     20  C   UNL     1      -4.511 -10.331  10.566  0.00  0.00    +0.099 A 
ATOM     21  C   UNL     1      -3.256  -9.919  10.767  0.00  0.00    +0.030 A 
ATOM     36  H   UNL     1      -5.253 -12.790  16.496  0.00  0.00    +0.156 HD
ENDROOT
BRANCH   8  22
ATOM     22  C   UNL     1      -6.220 -10.978  16.579  0.00  0.00    +0.035 A 
ATOM     24  C   UNL     1      -6.962 -10.404  15.551  0.00  0.00    +0.027 A 
ATOM     25  C   UNL     1      -6.556 -10.740  17.909  0.00  0.00    +0.027 A 
ATOM     27  C   UNL     1      -8.050  -9.586  15.855  0.00  0.00    +0.047 A 
ATOM     28  C   UNL     1      -7.644  -9.920  18.212  0.00  0.00    +0.047 A 
ATOM     29  C   UNL     1      -8.391  -9.344  17.185  0.00  0.00    +0.120 A 
BRANCH  29   5
ATOM      5  O   UNL     1      -9.453  -8.547  17.482  0.00  0.00    -0.495 OA
ATOM     35  C   UNL     1      -9.917  -7.672  16.453  0.00  0.00    +0.277 C 
ENDBRANCH  29   5
ENDBRANCH   8  22
BRANCH  20   9
ATOM      4  O   UNL     1      -4.875 -10.498   7.741  0.00  0.00    -0.270 OA
ATOM      9  N   UNL     1      -5.404  -9.614   9.826  0.00  0.00    -0.277 N 
ATOM     23  C   UNL     1      -5.535  -9.742   8.450  0.00  0.00    +0.248 C 
ATOM     37  H   UNL     1      -6.151  -9.163  10.349  0.00  0.00    +0.155 HD
BRANCH  23  26
ATOM      1  F   UNL     1      -9.454  -6.547   6.083  0.00  0.00    -0.205 F 
ATOM     26  C   UNL     1      -6.579  -8.893   7.820  0.00  0.00    +0.037 A 
ATOM     30  C   UNL     1      -7.230  -7.955   8.594  0.00  0.00    +0.016 A 
ATOM     31  C   UNL     1      -6.862  -9.068   6.482  0.00  0.00    +0.016 A 
ATOM     32  C   UNL     1      -8.208  -7.156   8.003  0.00  0.00    +0.039 A 
ATOM     33  C   UNL     1      -7.840  -8.269   5.890  0.00  0.00    +0.039 A 
ATOM     34  C   UNL     1      -8.514  -7.313   6.650  0.00  0.00    +0.123 A 
ENDBRANCH  23  26
ENDBRANCH  20   9
TORSDOF 4
ENDMDL
MODEL 8
REMARK VINA RESULT:      -7.0     30.845     34.662
REMARK  Name = 7155596
REMARK  5 active torsions:
REMARK  status: ('A' for Active; 'I' for Inactive)
REMARK    1  A    between atoms: O_5  and  C_29
REMARK    2  A    between atoms: O_5  and  C_35
REMARK    3  A    between atoms: N_8  and  C_22
REMARK    4  A    between atoms: N_9  and  C_20
REMARK    5  A    between atoms: C_23  and  C_26
REMARK                            x       y       z     vdW  Elec       q    Type
REMARK                         _______ _______ _______ _____ _____    ______ ____
ROOT
ATOM      2  O   UNL     1     -13.311   5.019  23.284  0.00  0.00    -0.266 OA
ATOM      3  O   UNL     1     -14.792  10.696  22.514  0.00  0.00    -0.252 OA
ATOM      6  N   UNL     1     -13.366   9.557  21.092  0.00  0.00    -0.284 N 
ATOM      7  N   UNL     1     -13.857   6.407  21.485  0.00  0.00    -0.310 N 
ATOM      8  N   UNL     1     -12.583  10.395  23.154  0.00  0.00    -0.269 N 
ATOM     10  C   UNL     1     -12.095   7.635  20.097  0.00  0.00    +0.027 C 
ATOM     11  C   UNL     1     -14.475   7.922  19.570  0.00  0.00    +0.054 C 
ATOM     12  C   UNL     1     -13.118   7.559  18.973  0.00  0.00    +0.018 C 
ATOM     13  C   UNL     1     -12.040   9.051  20.703  0.00  0.00    +0.114 C 
ATOM     14  C   UNL     1     -12.438   6.575  21.151  0.00  0.00    +0.130 C 
ATOM     15  C   UNL     1     -14.426   9.368  20.093  0.00  0.00    +0.119 C 
ATOM     16  C   UNL     1     -14.858   6.978  20.694  0.00  0.00    +0.027 A 
ATOM     17  C   UNL     1     -16.151   6.716  20.947  0.00  0.00    +0.024 A 
ATOM     18  C   UNL     1     -14.157   5.559  22.570  0.00  0.00    +0.273 A 
ATOM     19  C   UNL     1     -13.666  10.248  22.287  0.00  0.00    +0.306 C 
ATOM     20  C   UNL     1     -15.611   5.313  22.835  0.00  0.00    +0.099 A 
ATOM     21  C   UNL     1     -16.531   5.868  22.041  0.00  0.00    +0.030 A 
ATOM     36  H   UNL     1     -11.649  10.417  22.758  0.00  0.00    +0.156 HD
ENDROOT
BRANCH   8  22
ATOM     22  C   UNL     1     -12.626  10.567  24.560  0.00  0.00    +0.035 A 
ATOM     24  C   UNL     1     -13.811  10.329  25.250  0.00  0.00    +0.027 A 
ATOM     25  C   UNL     1     -11.481  10.973  25.242  0.00  0.00    +0.027 A 
ATOM     27  C   UNL     1     -13.852  10.498  26.635  0.00  0.00    +0.047 A 
ATOM     28  C   UNL     1     -11.524  11.143  26.626  0.00  0.00    +0.047 A 
ATOM     29  C   UNL     1     -12.709  10.904  27.322  0.00  0.00    +0.120 A 
BRANCH  29   5
ATOM      5  O   UNL     1     -12.749  11.068  28.673  0.00  0.00    -0.495 OA
ATOM     35  C   UNL     1     -11.839  10.289  29.449  0.00  0.00    +0.277 C 
ENDBRANCH  29   5
ENDBRANCH   8  22
BRANCH  20   9
ATOM      4  O   UNL     1     -16.464   2.595  22.678  0.00  0.00    -0.270 OA
ATOM      9  N   UNL     1     -15.943   4.512  23.887  0.00  0.00    -0.277 N 
ATOM     23  C   UNL     1     -16.351   3.192  23.745  0.00  0.00    +0.248 C 
ATOM     37  H   UNL     1     -15.639   4.834  24.803  0.00  0.00    +0.155 HD
BRANCH  23  26
ATOM      1  F   UNL     1     -17.469   0.476  28.493  0.00  0.00    -0.205 F 
ATOM     26  C   UNL     1     -16.650   2.470  25.010  0.00  0.00    +0.037 A 
ATOM     30  C   UNL     1     -17.379   1.301  24.951  0.00  0.00    +0.016 A 
ATOM     31  C   UNL     1     -16.186   2.991  26.199  0.00  0.00    +0.016 A 
ATOM     32  C   UNL     1     -17.657   0.622  26.137  0.00  0.00    +0.039 A 
ATOM     33  C   UNL     1     -16.465   2.312  27.385  0.00  0.00    +0.039 A 
ATOM     34  C   UNL     1     -17.200   1.127  27.355  0.00  0.00    +0.123 A 
ENDBRANCH  23  26
ENDBRANCH  20   9
TORSDOF 4
ENDMDL
MODEL 9
REMARK VINA RESULT:      -6.8     27.690     31.082
REMARK  Name = 7155596
REMARK  5 active torsions:
REMARK  status: ('A' for Active; 'I' for Inactive)
REMARK    1  A    between atoms: O_5  and  C_29
REMARK    2  A    between atoms: O_5  and  C_35
REMARK    3  A    between atoms: N_8  and  C_22
REMARK    4  A    between atoms: N_9  and  C_20
REMARK    5  A    between atoms: C_23  and  C_26
REMARK                            x       y       z     vdW  Elec       q    Type
REMARK                         _______ _______ _______ _____ _____    ______ ____
ROOT
ATOM      2  O   UNL     1     -14.955   8.680  20.004  0.00  0.00    -0.266 OA
ATOM      3  O   UNL     1     -11.133   8.041  15.533  0.00  0.00    -0.252 OA
ATOM      6  N   UNL     1     -11.601  10.084  16.513  0.00  0.00    -0.284 N 
ATOM      7  N   UNL     1     -12.863   9.540  19.417  0.00  0.00    -0.310 N 
ATOM      8  N   UNL     1     -13.082   9.147  14.933  0.00  0.00    -0.269 N 
ATOM     10  C   UNL     1     -12.577  11.734  18.134  0.00  0.00    +0.027 C 
ATOM     11  C   UNL     1     -10.597  10.430  18.769  0.00  0.00    +0.054 C 
ATOM     12  C   UNL     1     -11.230  11.816  18.838  0.00  0.00    +0.018 C 
ATOM     13  C   UNL     1     -12.409  11.305  16.663  0.00  0.00    +0.114 C 
ATOM     14  C   UNL     1     -13.482  10.771  18.911  0.00  0.00    +0.130 C 
ATOM     15  C   UNL     1     -10.360  10.054  17.296  0.00  0.00    +0.119 C 
ATOM     16  C   UNL     1     -11.474   9.385  19.434  0.00  0.00    +0.027 A 
ATOM     17  C   UNL     1     -10.921   8.303  20.008  0.00  0.00    +0.024 A 
ATOM     18  C   UNL     1     -13.727   8.579  19.979  0.00  0.00    +0.273 A 
ATOM     19  C   UNL     1     -11.892   9.006  15.648  0.00  0.00    +0.306 C 
ATOM     20  C   UNL     1     -13.074   7.376  20.586  0.00  0.00    +0.099 A 
ATOM     21  C   UNL     1     -11.741   7.280  20.593  0.00  0.00    +0.030 A 
ATOM     36  H   UNL     1     -13.412  10.084  14.729  0.00  0.00    +0.156 HD
ENDROOT
BRANCH   8  22
ATOM     22  C   UNL     1     -13.890   8.112  14.399  0.00  0.00    +0.035 A 
ATOM     24  C   UNL     1     -15.000   7.664  15.109  0.00  0.00    +0.027 A 
ATOM     25  C   UNL     1     -13.568   7.550  13.166  0.00  0.00    +0.027 A 
ATOM     27  C   UNL     1     -15.796   6.647  14.582  0.00  0.00    +0.047 A 
ATOM     28  C   UNL     1     -14.364   6.532  12.640  0.00  0.00    +0.047 A 
ATOM     29  C   UNL     1     -15.478   6.081  13.348  0.00  0.00    +0.120 A 
BRANCH  29   5
ATOM      5  O   UNL     1     -16.255   5.089  12.833  0.00  0.00    -0.495 OA
ATOM     35  C   UNL     1     -15.711   4.332  11.753  0.00  0.00    +0.277 C 
ENDBRANCH  29   5
ENDBRANCH   8  22
BRANCH  20   9
ATOM      4  O   UNL     1     -14.408   7.515  23.104  0.00  0.00    -0.270 OA
ATOM      9  N   UNL     1     -13.877   6.415  21.125  0.00  0.00    -0.277 N 
ATOM     23  C   UNL     1     -14.501   6.543  22.359  0.00  0.00    +0.248 C 
ATOM     37  H   UNL     1     -14.210   5.703  20.480  0.00  0.00    +0.155 HD
BRANCH  23  26
ATOM      1  F   UNL     1     -17.717   2.250  23.908  0.00  0.00    -0.205 F 
ATOM     26  C   UNL     1     -15.356   5.399  22.770  0.00  0.00    +0.037 A 
ATOM     30  C   UNL     1     -14.951   4.612  23.828  0.00  0.00    +0.016 A 
ATOM     31  C   UNL     1     -16.528   5.164  22.084  0.00  0.00    +0.016 A 
ATOM     32  C   UNL     1     -15.755   3.540  24.215  0.00  0.00    +0.039 A 
ATOM     33  C   UNL     1     -17.332   4.093  22.471  0.00  0.00    +0.039 A 
ATOM     34  C   UNL     1     -16.946   3.280  23.537  0.00  0.00    +0.123 A 
ENDBRANCH  23  26
ENDBRANCH  20   9
TORSDOF 4
ENDMDL
MODEL 10
REMARK VINA RESULT:      -6.7      4.667      8.482
REMARK  Name = 7155596
REMARK  5 active torsions:
REMARK  status: ('A' for Active; 'I' for Inactive)
REMARK    1  A    between atoms: O_5  and  C_29
REMARK    2  A    between atoms: O_5  and  C_35
REMARK    3  A    between atoms: N_8  and  C_22
REMARK    4  A    between atoms: N_9  and  C_20
REMARK    5  A    between atoms: C_23  and  C_26
REMARK                            x       y       z     vdW  Elec       q    Type
REMARK                         _______ _______ _______ _____ _____    ______ ____
ROOT
ATOM      2  O   UNL     1      12.673   7.164   1.699  0.00  0.00    -0.266 OA
ATOM      3  O   UNL     1       9.982   4.034  -2.541  0.00  0.00    -0.252 OA
ATOM      6  N   UNL     1      12.153   4.810  -2.728  0.00  0.00    -0.284 N 
ATOM      7  N   UNL     1      13.252   5.447   0.223  0.00  0.00    -0.310 N 
ATOM      8  N   UNL     1      10.328   6.256  -3.110  0.00  0.00    -0.269 N 
ATOM     10  C   UNL     1      14.322   5.883  -2.058  0.00  0.00    +0.027 C 
ATOM     11  C   UNL     1      13.838   3.579  -1.363  0.00  0.00    +0.054 C 
ATOM     12  C   UNL     1      14.936   4.500  -1.887  0.00  0.00    +0.018 C 
ATOM     13  C   UNL     1      13.145   5.848  -3.054  0.00  0.00    +0.114 C 
ATOM     14  C   UNL     1      13.893   6.407  -0.683  0.00  0.00    +0.130 C 
ATOM     15  C   UNL     1      12.711   3.491  -2.406  0.00  0.00    +0.119 C 
ATOM     16  C   UNL     1      13.281   4.074  -0.041  0.00  0.00    +0.027 A 
ATOM     17  C   UNL     1      12.793   3.203   0.857  0.00  0.00    +0.024 A 
ATOM     18  C   UNL     1      12.705   5.966   1.414  0.00  0.00    +0.273 A 
ATOM     19  C   UNL     1      10.751   4.971  -2.769  0.00  0.00    +0.306 C 
ATOM     20  C   UNL     1      12.148   4.964   2.378  0.00  0.00    +0.099 A 
ATOM     21  C   UNL     1      12.214   3.660   2.089  0.00  0.00    +0.030 A 
ATOM     36  H   UNL     1      10.936   6.824  -3.691  0.00  0.00    +0.156 HD
ENDROOT
BRANCH   8  22
ATOM     22  C   UNL     1       9.097   6.872  -2.774  0.00  0.00    +0.035 A 
ATOM     24  C   UNL     1       9.060   7.854  -1.788  0.00  0.00    +0.027 A 
ATOM     25  C   UNL     1       7.931   6.492  -3.434  0.00  0.00    +0.027 A 
ATOM     27  C   UNL     1       7.848   8.461  -1.459  0.00  0.00    +0.047 A 
ATOM     28  C   UNL     1       6.719   7.099  -3.104  0.00  0.00    +0.047 A 
ATOM     29  C   UNL     1       6.678   8.084  -2.117  0.00  0.00    +0.120 A 
BRANCH  29   5
ATOM      5  O   UNL     1       5.496   8.677  -1.797  0.00  0.00    -0.495 OA
ATOM     35  C   UNL     1       5.498   9.574  -0.687  0.00  0.00    +0.277 C 
ENDBRANCH  29   5
ENDBRANCH   8  22
BRANCH  20   9
ATOM      4  O   UNL     1       9.516   6.025   2.678  0.00  0.00    -0.270 OA
ATOM      9  N   UNL     1      11.594   5.427   3.534  0.00  0.00    -0.277 N 
ATOM     23  C   UNL     1      10.303   5.932   3.616  0.00  0.00    +0.248 C 
ATOM     37  H   UNL     1      12.070   5.157   4.392  0.00  0.00    +0.155 HD
BRANCH  23  26
ATOM      1  F   UNL     1       8.668   7.578   8.695  0.00  0.00    -0.205 F 
ATOM     26  C   UNL     1       9.867   6.369   4.968  0.00  0.00    +0.037 A 
ATOM     30  C   UNL     1      10.730   6.202   6.032  0.00  0.00    +0.016 A 
ATOM     31  C   UNL     1       8.616   6.929   5.116  0.00  0.00    +0.016 A 
ATOM     32  C   UNL     1      10.322   6.614   7.300  0.00  0.00    +0.039 A 
ATOM     33  C   UNL     1       8.208   7.341   6.384  0.00  0.00    +0.039 A 
ATOM     34  C   UNL     1       9.061   7.184   7.477  0.00  0.00    +0.123 A 
ENDBRANCH  23  26
ENDBRANCH  20   9
TORSDOF 4
ENDMDL
