MODEL 1
REMARK VINA RESULT:      -5.9      0.000      0.000
REMARK  Name = 75537041
REMARK  4 active torsions:
REMARK  status: ('A' for Active; 'I' for Inactive)
REMARK    1  A    between atoms: O_2  and  C_18
REMARK    2  A    between atoms: O_2  and  C_19
REMARK    3  A    between atoms: N_4  and  C_13
REMARK    4  A    between atoms: C_13  and  C_14
REMARK                            x       y       z     vdW  Elec       q    Type
REMARK                         _______ _______ _______ _____ _____    ______ ____
ROOT
ATOM      1  O   UNL     1      11.073   5.486  21.830  0.00  0.00    -0.253 OA
ATOM      3  N   UNL     1      11.657   7.299  20.447  0.00  0.00    -0.279 N 
ATOM      4  N   UNL     1      13.244   8.987  18.854  0.00  0.00    -0.295 NA
ATOM      5  N   UNL     1      10.416   7.694  22.277  0.00  0.00    -0.297 N 
ATOM      7  C   UNL     1      11.321   8.705  20.363  0.00  0.00    +0.109 C 
ATOM      8  C   UNL     1      12.568   9.531  20.049  0.00  0.00    +0.109 C 
ATOM      9  C   UNL     1      12.449   6.694  19.396  0.00  0.00    +0.125 C 
ATOM     10  C   UNL     1      10.677   9.000  21.715  0.00  0.00    +0.129 C 
ATOM     11  C   UNL     1      13.652   7.584  19.071  0.00  0.00    +0.104 C 
ATOM     12  C   UNL     1      11.053   6.675  21.543  0.00  0.00    +0.303 C 
ATOM     20  H   UNL     1       9.908   7.534  23.140  0.00  0.00    +0.150 HD
ENDROOT
BRANCH   4  13
ATOM     13  C   UNL     1      14.406   9.807  18.508  0.00  0.00    +0.121 C 
BRANCH  13  14
ATOM      6  N   UNL     1      13.206  10.398  14.966  0.00  0.00    -0.221 NA
ATOM     14  C   UNL     1      14.277  10.409  17.135  0.00  0.00    -0.015 A 
ATOM     15  C   UNL     1      15.061  11.492  16.750  0.00  0.00    +0.011 A 
ATOM     16  C   UNL     1      13.373   9.904  16.214  0.00  0.00    +0.119 A 
ATOM     17  C   UNL     1      14.918  12.027  15.476  0.00  0.00    +0.067 A 
ATOM     18  C   UNL     1      13.986  11.450  14.629  0.00  0.00    +0.214 A 
BRANCH  18   2
ATOM      2  O   UNL     1      13.827  11.960  13.367  0.00  0.00    -0.480 OA
ATOM     19  C   UNL     1      12.537  12.464  13.039  0.00  0.00    +0.279 C 
ENDBRANCH  18   2
ENDBRANCH  13  14
ENDBRANCH   4  13
TORSDOF 3
ENDMDL
MODEL 2
REMARK VINA RESULT:      -5.6     12.590     16.559
REMARK  Name = 75537041
REMARK  4 active torsions:
REMARK  status: ('A' for Active; 'I' for Inactive)
REMARK    1  A    between atoms: O_2  and  C_18
REMARK    2  A    between atoms: O_2  and  C_19
REMARK    3  A    between atoms: N_4  and  C_13
REMARK    4  A    between atoms: C_13  and  C_14
REMARK                            x       y       z     vdW  Elec       q    Type
REMARK                         _______ _______ _______ _____ _____    ______ ____
ROOT
ATOM      1  O   UNL     1      11.677   3.879  -1.624  0.00  0.00    -0.253 OA
ATOM      3  N   UNL     1      11.245   4.347   0.641  0.00  0.00    -0.279 N 
ATOM      4  N   UNL     1      10.565   5.816   2.939  0.00  0.00    -0.295 NA
ATOM      5  N   UNL     1      13.065   3.139   0.117  0.00  0.00    -0.297 N 
ATOM      7  C   UNL     1      11.799   3.948   1.918  0.00  0.00    +0.109 C 
ATOM      8  C   UNL     1      11.880   5.150   2.859  0.00  0.00    +0.109 C 
ATOM      9  C   UNL     1      10.031   5.135   0.608  0.00  0.00    +0.125 C 
ATOM     10  C   UNL     1      13.144   3.329   1.548  0.00  0.00    +0.129 C 
ATOM     11  C   UNL     1      10.131   6.290   1.610  0.00  0.00    +0.104 C 
ATOM     12  C   UNL     1      11.951   3.800  -0.435  0.00  0.00    +0.303 C 
ATOM     20  H   UNL     1      13.769   2.662  -0.436  0.00  0.00    +0.150 HD
ENDROOT
BRANCH   4  13
ATOM     13  C   UNL     1      10.616   6.932   3.885  0.00  0.00    +0.121 C 
BRANCH  13  14
ATOM      6  N   UNL     1      11.597   6.360   7.496  0.00  0.00    -0.221 NA
ATOM     14  C   UNL     1      10.563   6.458   5.313  0.00  0.00    -0.015 A 
ATOM     15  C   UNL     1       9.487   5.711   5.781  0.00  0.00    +0.011 A 
ATOM     16  C   UNL     1      11.583   6.753   6.203  0.00  0.00    +0.119 A 
ATOM     17  C   UNL     1       9.466   5.289   7.105  0.00  0.00    +0.067 A 
ATOM     18  C   UNL     1      10.535   5.636   7.915  0.00  0.00    +0.214 A 
BRANCH  18   2
ATOM      2  O   UNL     1      10.537   5.231   9.224  0.00  0.00    -0.480 OA
ATOM     19  C   UNL     1       9.347   4.616   9.704  0.00  0.00    +0.279 C 
ENDBRANCH  18   2
ENDBRANCH  13  14
ENDBRANCH   4  13
TORSDOF 3
ENDMDL
MODEL 3
REMARK VINA RESULT:      -5.6     26.876     28.567
REMARK  Name = 75537041
REMARK  4 active torsions:
REMARK  status: ('A' for Active; 'I' for Inactive)
REMARK    1  A    between atoms: O_2  and  C_18
REMARK    2  A    between atoms: O_2  and  C_19
REMARK    3  A    between atoms: N_4  and  C_13
REMARK    4  A    between atoms: C_13  and  C_14
REMARK                            x       y       z     vdW  Elec       q    Type
REMARK                         _______ _______ _______ _____ _____    ______ ____
ROOT
ATOM      1  O   UNL     1      -3.348 -12.281  19.952  0.00  0.00    -0.253 OA
ATOM      3  N   UNL     1      -5.082 -11.187  18.796  0.00  0.00    -0.279 N 
ATOM      4  N   UNL     1      -7.681 -10.590  17.906  0.00  0.00    -0.295 NA
ATOM      5  N   UNL     1      -3.195 -11.689  17.686  0.00  0.00    -0.297 N 
ATOM      7  C   UNL     1      -5.256 -10.586  17.490  0.00  0.00    +0.109 C 
ATOM      8  C   UNL     1      -6.633 -10.935  16.925  0.00  0.00    +0.109 C 
ATOM      9  C   UNL     1      -6.122 -11.036  19.791  0.00  0.00    +0.125 C 
ATOM     10  C   UNL     1      -4.076 -11.127  16.687  0.00  0.00    +0.129 C 
ATOM     11  C   UNL     1      -7.489 -11.334  19.167  0.00  0.00    +0.104 C 
ATOM     12  C   UNL     1      -3.822 -11.777  18.944  0.00  0.00    +0.303 C 
ATOM     20  H   UNL     1      -2.269 -12.056  17.491  0.00  0.00    +0.150 HD
ENDROOT
BRANCH   4  13
ATOM     13  C   UNL     1      -9.008 -10.863  17.351  0.00  0.00    +0.121 C 
BRANCH  13  14
ATOM      6  N   UNL     1      -9.801  -7.341  16.210  0.00  0.00    -0.221 NA
ATOM     14  C   UNL     1      -9.775  -9.595  17.086  0.00  0.00    -0.015 A 
ATOM     15  C   UNL     1     -11.114  -9.480  17.441  0.00  0.00    +0.011 A 
ATOM     16  C   UNL     1      -9.170  -8.507  16.478  0.00  0.00    +0.119 A 
ATOM     17  C   UNL     1     -11.797  -8.298  17.182  0.00  0.00    +0.067 A 
ATOM     18  C   UNL     1     -11.102  -7.267  16.570  0.00  0.00    +0.214 A 
BRANCH  18   2
ATOM      2  O   UNL     1     -11.753  -6.091  16.304  0.00  0.00    -0.480 OA
ATOM     19  C   UNL     1     -12.032  -5.810  14.937  0.00  0.00    +0.279 C 
ENDBRANCH  18   2
ENDBRANCH  13  14
ENDBRANCH   4  13
TORSDOF 3
ENDMDL
MODEL 4
REMARK VINA RESULT:      -5.5      4.648      6.246
REMARK  Name = 75537041
REMARK  4 active torsions:
REMARK  status: ('A' for Active; 'I' for Inactive)
REMARK    1  A    between atoms: O_2  and  C_18
REMARK    2  A    between atoms: O_2  and  C_19
REMARK    3  A    between atoms: N_4  and  C_13
REMARK    4  A    between atoms: C_13  and  C_14
REMARK                            x       y       z     vdW  Elec       q    Type
REMARK                         _______ _______ _______ _____ _____    ______ ____
ROOT
ATOM      1  O   UNL     1      10.212  14.400  21.474  0.00  0.00    -0.253 OA
ATOM      3  N   UNL     1      11.245  12.427  22.236  0.00  0.00    -0.279 N 
ATOM      4  N   UNL     1      12.119   9.755  22.255  0.00  0.00    -0.295 NA
ATOM      5  N   UNL     1       9.967  13.597  23.665  0.00  0.00    -0.297 N 
ATOM      7  C   UNL     1      11.403  11.749  23.506  0.00  0.00    +0.109 C 
ATOM      8  C   UNL     1      11.228  10.241  23.328  0.00  0.00    +0.109 C 
ATOM      9  C   UNL     1      11.960  11.939  21.076  0.00  0.00    +0.125 C 
ATOM     10  C   UNL     1      10.361  12.417  24.400  0.00  0.00    +0.129 C 
ATOM     11  C   UNL     1      11.810  10.418  20.972  0.00  0.00    +0.104 C 
ATOM     12  C   UNL     1      10.453  13.575  22.344  0.00  0.00    +0.303 C 
ATOM     20  H   UNL     1       9.346  14.314  24.026  0.00  0.00    +0.150 HD
ENDROOT
BRANCH   4  13
ATOM     13  C   UNL     1      12.004   8.302  22.117  0.00  0.00    +0.121 C 
BRANCH  13  14
ATOM      6  N   UNL     1      14.013   6.687  19.344  0.00  0.00    -0.221 NA
ATOM     14  C   UNL     1      13.168   7.719  21.361  0.00  0.00    -0.015 A 
ATOM     15  C   UNL     1      14.436   7.662  21.930  0.00  0.00    +0.011 A 
ATOM     16  C   UNL     1      13.010   7.222  20.077  0.00  0.00    +0.119 A 
ATOM     17  C   UNL     1      15.491   7.119  21.207  0.00  0.00    +0.067 A 
ATOM     18  C   UNL     1      15.230   6.649  19.930  0.00  0.00    +0.214 A 
BRANCH  18   2
ATOM      2  O   UNL     1      16.255   6.109  19.197  0.00  0.00    -0.480 OA
ATOM     19  C   UNL     1      17.576   6.369  19.658  0.00  0.00    +0.279 C 
ENDBRANCH  18   2
ENDBRANCH  13  14
ENDBRANCH   4  13
TORSDOF 3
ENDMDL
MODEL 5
REMARK VINA RESULT:      -5.5     30.801     31.673
REMARK  Name = 75537041
REMARK  4 active torsions:
REMARK  status: ('A' for Active; 'I' for Inactive)
REMARK    1  A    between atoms: O_2  and  C_18
REMARK    2  A    between atoms: O_2  and  C_19
REMARK    3  A    between atoms: N_4  and  C_13
REMARK    4  A    between atoms: C_13  and  C_14
REMARK                            x       y       z     vdW  Elec       q    Type
REMARK                         _______ _______ _______ _____ _____    ______ ____
ROOT
ATOM      1  O   UNL     1     -14.289  -0.842  29.544  0.00  0.00    -0.253 OA
ATOM      3  N   UNL     1     -14.666   1.353  30.306  0.00  0.00    -0.279 N 
ATOM      4  N   UNL     1     -15.053   3.484  32.098  0.00  0.00    -0.295 NA
ATOM      5  N   UNL     1     -15.921   0.566  28.617  0.00  0.00    -0.297 N 
ATOM      7  C   UNL     1     -15.466   2.485  29.887  0.00  0.00    +0.109 C 
ATOM      8  C   UNL     1     -16.096   3.167  31.102  0.00  0.00    +0.109 C 
ATOM      9  C   UNL     1     -13.712   1.516  31.382  0.00  0.00    +0.125 C 
ATOM     10  C   UNL     1     -16.461   1.876  28.903  0.00  0.00    +0.129 C 
ATOM     11  C   UNL     1     -14.367   2.258  32.552  0.00  0.00    +0.104 C 
ATOM     12  C   UNL     1     -14.877   0.229  29.499  0.00  0.00    +0.303 C 
ATOM     20  H   UNL     1     -16.300  -0.069  27.923  0.00  0.00    +0.150 HD
ENDROOT
BRANCH   4  13
ATOM     13  C   UNL     1     -15.637   4.192  33.238  0.00  0.00    +0.121 C 
BRANCH  13  14
ATOM      6  N   UNL     1     -13.477   6.344  35.482  0.00  0.00    -0.221 NA
ATOM     14  C   UNL     1     -14.758   5.322  33.705  0.00  0.00    -0.015 A 
ATOM     15  C   UNL     1     -14.408   6.359  32.846  0.00  0.00    +0.011 A 
ATOM     16  C   UNL     1     -14.270   5.361  35.001  0.00  0.00    +0.119 A 
ATOM     17  C   UNL     1     -13.593   7.387  33.305  0.00  0.00    +0.067 A 
ATOM     18  C   UNL     1     -13.158   7.335  34.619  0.00  0.00    +0.214 A 
BRANCH  18   2
ATOM      2  O   UNL     1     -12.354   8.337  35.094  0.00  0.00    -0.480 OA
ATOM     19  C   UNL     1     -12.585   8.763  36.432  0.00  0.00    +0.279 C 
ENDBRANCH  18   2
ENDBRANCH  13  14
ENDBRANCH   4  13
TORSDOF 3
ENDMDL
MODEL 6
REMARK VINA RESULT:      -5.3     25.760     27.483
REMARK  Name = 75537041
REMARK  4 active torsions:
REMARK  status: ('A' for Active; 'I' for Inactive)
REMARK    1  A    between atoms: O_2  and  C_18
REMARK    2  A    between atoms: O_2  and  C_19
REMARK    3  A    between atoms: N_4  and  C_13
REMARK    4  A    between atoms: C_13  and  C_14
REMARK                            x       y       z     vdW  Elec       q    Type
REMARK                         _______ _______ _______ _____ _____    ______ ____
ROOT
ATOM      1  O   UNL     1      -9.624 -10.980  20.108  0.00  0.00    -0.253 OA
ATOM      3  N   UNL     1      -7.836 -11.189  18.592  0.00  0.00    -0.279 N 
ATOM      4  N   UNL     1      -5.214 -11.579  17.656  0.00  0.00    -0.295 NA
ATOM      5  N   UNL     1      -9.290  -9.499  18.319  0.00  0.00    -0.297 N 
ATOM      7  C   UNL     1      -7.431 -10.555  17.354  0.00  0.00    +0.109 C 
ATOM      8  C   UNL     1      -5.921 -10.319  17.349  0.00  0.00    +0.109 C 
ATOM      9  C   UNL     1      -7.112 -12.349  19.066  0.00  0.00    +0.125 C 
ATOM     10  C   UNL     1      -8.280  -9.288  17.307  0.00  0.00    +0.129 C 
ATOM     11  C   UNL     1      -5.604 -12.093  18.984  0.00  0.00    +0.104 C 
ATOM     12  C   UNL     1      -8.992 -10.612  19.128  0.00  0.00    +0.303 C 
ATOM     20  H   UNL     1     -10.074  -8.876  18.484  0.00  0.00    +0.150 HD
ENDROOT
BRANCH   4  13
ATOM     13  C   UNL     1      -3.765 -11.378  17.593  0.00  0.00    +0.121 C 
BRANCH  13  14
ATOM      6  N   UNL     1      -3.414 -12.150  13.904  0.00  0.00    -0.221 NA
ATOM     14  C   UNL     1      -3.268 -11.329  16.173  0.00  0.00    -0.015 A 
ATOM     15  C   UNL     1      -2.249 -10.459  15.801  0.00  0.00    +0.011 A 
ATOM     16  C   UNL     1      -3.813 -12.146  15.196  0.00  0.00    +0.119 A 
ATOM     17  C   UNL     1      -1.812 -10.434  14.481  0.00  0.00    +0.067 A 
ATOM     18  C   UNL     1      -2.421 -11.292  13.579  0.00  0.00    +0.214 A 
BRANCH  18   2
ATOM      2  O   UNL     1      -2.008 -11.286  12.273  0.00  0.00    -0.480 OA
ATOM     19  C   UNL     1      -2.935 -10.796  11.311  0.00  0.00    +0.279 C 
ENDBRANCH  18   2
ENDBRANCH  13  14
ENDBRANCH   4  13
TORSDOF 3
ENDMDL
MODEL 7
REMARK VINA RESULT:      -5.1     26.116     28.529
REMARK  Name = 75537041
REMARK  4 active torsions:
REMARK  status: ('A' for Active; 'I' for Inactive)
REMARK    1  A    between atoms: O_2  and  C_18
REMARK    2  A    between atoms: O_2  and  C_19
REMARK    3  A    between atoms: N_4  and  C_13
REMARK    4  A    between atoms: C_13  and  C_14
REMARK                            x       y       z     vdW  Elec       q    Type
REMARK                         _______ _______ _______ _____ _____    ______ ____
ROOT
ATOM      1  O   UNL     1     -12.937  -7.961  13.781  0.00  0.00    -0.253 OA
ATOM      3  N   UNL     1     -10.934  -8.012  15.015  0.00  0.00    -0.279 N 
ATOM      4  N   UNL     1      -8.856  -9.024  16.615  0.00  0.00    -0.295 NA
ATOM      5  N   UNL     1     -12.328  -6.272  15.291  0.00  0.00    -0.297 N 
ATOM      7  C   UNL     1     -10.220  -7.108  15.893  0.00  0.00    +0.109 C 
ATOM      8  C   UNL     1      -9.648  -7.871  17.087  0.00  0.00    +0.109 C 
ATOM      9  C   UNL     1     -10.305  -9.250  14.607  0.00  0.00    +0.125 C 
ATOM     10  C   UNL     1     -11.265  -6.052  16.245  0.00  0.00    +0.129 C 
ATOM     11  C   UNL     1      -9.691  -9.949  15.823  0.00  0.00    +0.104 C 
ATOM     12  C   UNL     1     -12.156  -7.481  14.590  0.00  0.00    +0.303 C 
ATOM     20  H   UNL     1     -13.142  -5.675  15.195  0.00  0.00    +0.150 HD
ENDROOT
BRANCH   4  13
ATOM     13  C   UNL     1      -8.252  -9.727  17.748  0.00  0.00    +0.121 C 
BRANCH  13  14
ATOM      6  N   UNL     1      -4.883  -9.935  16.034  0.00  0.00    -0.221 NA
ATOM     14  C   UNL     1      -6.808 -10.067  17.491  0.00  0.00    -0.015 A 
ATOM     15  C   UNL     1      -6.068 -10.795  18.416  0.00  0.00    +0.011 A 
ATOM     16  C   UNL     1      -6.175  -9.664  16.326  0.00  0.00    +0.119 A 
ATOM     17  C   UNL     1      -4.736 -11.093  18.151  0.00  0.00    +0.067 A 
ATOM     18  C   UNL     1      -4.195 -10.645  16.956  0.00  0.00    +0.214 A 
BRANCH  18   2
ATOM      2  O   UNL     1      -2.885 -10.926  16.673  0.00  0.00    -0.480 OA
ATOM     19  C   UNL     1      -2.550 -11.100  15.301  0.00  0.00    +0.279 C 
ENDBRANCH  18   2
ENDBRANCH  13  14
ENDBRANCH   4  13
TORSDOF 3
ENDMDL
MODEL 8
REMARK VINA RESULT:      -5.1     23.508     26.307
REMARK  Name = 75537041
REMARK  4 active torsions:
REMARK  status: ('A' for Active; 'I' for Inactive)
REMARK    1  A    between atoms: O_2  and  C_18
REMARK    2  A    between atoms: O_2  and  C_19
REMARK    3  A    between atoms: N_4  and  C_13
REMARK    4  A    between atoms: C_13  and  C_14
REMARK                            x       y       z     vdW  Elec       q    Type
REMARK                         _______ _______ _______ _____ _____    ______ ____
ROOT
ATOM      1  O   UNL     1      -9.709  11.654  16.332  0.00  0.00    -0.253 OA
ATOM      3  N   UNL     1     -10.878   9.971  17.489  0.00  0.00    -0.279 N 
ATOM      4  N   UNL     1     -11.531   8.151  19.530  0.00  0.00    -0.295 NA
ATOM      5  N   UNL     1     -10.458   9.683  15.301  0.00  0.00    -0.297 N 
ATOM      7  C   UNL     1     -11.568   8.746  17.143  0.00  0.00    +0.109 C 
ATOM      8  C   UNL     1     -11.257   7.655  18.167  0.00  0.00    +0.109 C 
ATOM      9  C   UNL     1     -10.957  10.472  18.845  0.00  0.00    +0.125 C 
ATOM     10  C   UNL     1     -11.087   8.453  15.724  0.00  0.00    +0.129 C 
ATOM     11  C   UNL     1     -10.701   9.333  19.838  0.00  0.00    +0.104 C 
ATOM     12  C   UNL     1     -10.282  10.575  16.377  0.00  0.00    +0.303 C 
ATOM     20  H   UNL     1     -10.107   9.854  14.364  0.00  0.00    +0.150 HD
ENDROOT
BRANCH   4  13
ATOM     13  C   UNL     1     -11.295   7.094  20.514  0.00  0.00    +0.121 C 
BRANCH  13  14
ATOM      6  N   UNL     1     -14.863   7.176  21.777  0.00  0.00    -0.221 NA
ATOM     14  C   UNL     1     -12.566   6.681  21.207  0.00  0.00    -0.015 A 
ATOM     15  C   UNL     1     -12.648   5.474  21.894  0.00  0.00    +0.011 A 
ATOM     16  C   UNL     1     -13.692   7.488  21.178  0.00  0.00    +0.119 A 
ATOM     17  C   UNL     1     -13.836   5.118  22.522  0.00  0.00    +0.067 A 
ATOM     18  C   UNL     1     -14.905   5.996  22.435  0.00  0.00    +0.214 A 
BRANCH  18   2
ATOM      2  O   UNL     1     -16.087   5.667  23.046  0.00  0.00    -0.480 OA
ATOM     19  C   UNL     1     -16.532   4.324  22.895  0.00  0.00    +0.279 C 
ENDBRANCH  18   2
ENDBRANCH  13  14
ENDBRANCH   4  13
TORSDOF 3
ENDMDL
MODEL 9
REMARK VINA RESULT:      -5.0     12.406     16.490
REMARK  Name = 75537041
REMARK  4 active torsions:
REMARK  status: ('A' for Active; 'I' for Inactive)
REMARK    1  A    between atoms: O_2  and  C_18
REMARK    2  A    between atoms: O_2  and  C_19
REMARK    3  A    between atoms: N_4  and  C_13
REMARK    4  A    between atoms: C_13  and  C_14
REMARK                            x       y       z     vdW  Elec       q    Type
REMARK                         _______ _______ _______ _____ _____    ______ ____
ROOT
ATOM      1  O   UNL     1      15.735   3.942  -0.684  0.00  0.00    -0.253 OA
ATOM      3  N   UNL     1      14.597   4.720   1.223  0.00  0.00    -0.279 N 
ATOM      4  N   UNL     1      12.460   5.303   2.954  0.00  0.00    -0.295 NA
ATOM      5  N   UNL     1      16.184   6.020   0.309  0.00  0.00    -0.297 N 
ATOM      7  C   UNL     1      14.713   5.844   2.128  0.00  0.00    +0.109 C 
ATOM      8  C   UNL     1      13.329   6.394   2.472  0.00  0.00    +0.109 C 
ATOM      9  C   UNL     1      13.659   3.659   1.525  0.00  0.00    +0.125 C 
ATOM     10  C   UNL     1      15.623   6.814   1.378  0.00  0.00    +0.129 C 
ATOM     11  C   UNL     1      12.306   4.256   1.925  0.00  0.00    +0.104 C 
ATOM     12  C   UNL     1      15.527   4.781   0.180  0.00  0.00    +0.303 C 
ATOM     20  H   UNL     1      16.904   6.345  -0.327  0.00  0.00    +0.150 HD
ENDROOT
BRANCH   4  13
ATOM     13  C   UNL     1      11.150   5.829   3.344  0.00  0.00    +0.121 C 
BRANCH  13  14
ATOM      6  N   UNL     1       9.767   4.825   6.722  0.00  0.00    -0.221 NA
ATOM     14  C   UNL     1      10.945   5.771   4.834  0.00  0.00    -0.015 A 
ATOM     15  C   UNL     1      11.701   6.562   5.693  0.00  0.00    +0.011 A 
ATOM     16  C   UNL     1      10.000   4.927   5.394  0.00  0.00    +0.119 A 
ATOM     17  C   UNL     1      11.490   6.485   7.065  0.00  0.00    +0.067 A 
ATOM     18  C   UNL     1      10.520   5.610   7.525  0.00  0.00    +0.214 A 
BRANCH  18   2
ATOM      2  O   UNL     1      10.294   5.517   8.873  0.00  0.00    -0.480 OA
ATOM     19  C   UNL     1       9.451   4.456   9.309  0.00  0.00    +0.279 C 
ENDBRANCH  18   2
ENDBRANCH  13  14
ENDBRANCH   4  13
TORSDOF 3
ENDMDL
MODEL 10
REMARK VINA RESULT:      -5.0     24.218     26.043
REMARK  Name = 75537041
REMARK  4 active torsions:
REMARK  status: ('A' for Active; 'I' for Inactive)
REMARK    1  A    between atoms: O_2  and  C_18
REMARK    2  A    between atoms: O_2  and  C_19
REMARK    3  A    between atoms: N_4  and  C_13
REMARK    4  A    between atoms: C_13  and  C_14
REMARK                            x       y       z     vdW  Elec       q    Type
REMARK                         _______ _______ _______ _____ _____    ______ ____
ROOT
ATOM      1  O   UNL     1     -12.019  10.503  12.210  0.00  0.00    -0.253 OA
ATOM      3  N   UNL     1     -11.949   9.450  14.313  0.00  0.00    -0.279 N 
ATOM      4  N   UNL     1     -11.761   9.159  17.103  0.00  0.00    -0.295 NA
ATOM      5  N   UNL     1     -10.743   8.579  12.630  0.00  0.00    -0.297 N 
ATOM      7  C   UNL     1     -11.395   8.227  14.855  0.00  0.00    +0.109 C 
ATOM      8  C   UNL     1     -10.778   8.488  16.230  0.00  0.00    +0.109 C 
ATOM      9  C   UNL     1     -12.811  10.267  15.140  0.00  0.00    +0.125 C 
ATOM     10  C   UNL     1     -10.408   7.774  13.783  0.00  0.00    +0.129 C 
ATOM     11  C   UNL     1     -12.184  10.451  16.526  0.00  0.00    +0.104 C 
ATOM     12  C   UNL     1     -11.628   9.623  12.963  0.00  0.00    +0.303 C 
ATOM     20  H   UNL     1     -10.329   8.463  11.711  0.00  0.00    +0.150 HD
ENDROOT
BRANCH   4  13
ATOM     13  C   UNL     1     -11.201   9.359  18.441  0.00  0.00    +0.121 C 
BRANCH  13  14
ATOM      6  N   UNL     1     -13.895   8.317  20.889  0.00  0.00    -0.221 NA
ATOM     14  C   UNL     1     -11.944   8.564  19.482  0.00  0.00    -0.015 A 
ATOM     15  C   UNL     1     -11.414   7.386  19.996  0.00  0.00    +0.011 A 
ATOM     16  C   UNL     1     -13.176   8.983  19.957  0.00  0.00    +0.119 A 
ATOM     17  C   UNL     1     -12.124   6.673  20.956  0.00  0.00    +0.067 A 
ATOM     18  C   UNL     1     -13.348   7.176  21.366  0.00  0.00    +0.214 A 
BRANCH  18   2
ATOM      2  O   UNL     1     -14.066   6.491  22.310  0.00  0.00    -0.480 OA
ATOM     19  C   UNL     1     -13.887   5.080  22.351  0.00  0.00    +0.279 C 
ENDBRANCH  18   2
ENDBRANCH  13  14
ENDBRANCH   4  13
TORSDOF 3
ENDMDL
