MODEL 1
REMARK VINA RESULT:      -6.2      0.000      0.000
REMARK  Name = 26761840
REMARK  4 active torsions:
REMARK  status: ('A' for Active; 'I' for Inactive)
REMARK    1  A    between atoms: O_2  and  C_17
REMARK    2  A    between atoms: O_2  and  C_19
REMARK    3  A    between atoms: N_4  and  C_7
REMARK    4  A    between atoms: C_8  and  C_17
REMARK                            x       y       z     vdW  Elec       q    Type
REMARK                         _______ _______ _______ _____ _____    ______ ____
ROOT
ATOM      4  N   UNL     1      12.703   8.337  18.827  0.00  0.00    -0.281 NA
ATOM      5  N   UNL     1      13.605  11.272  16.709  0.00  0.00    -0.347 N 
ATOM      6  N   UNL     1      14.390   9.734  15.290  0.00  0.00    -0.240 NA
ATOM      8  C   UNL     1      13.752   7.445  18.273  0.00  0.00    +0.173 C 
ATOM     11  C   UNL     1      12.990   9.785  18.703  0.00  0.00    +0.140 C 
ATOM     12  C   UNL     1      14.031   7.696  16.762  0.00  0.00    +0.087 C 
ATOM     13  C   UNL     1      13.496  10.071  17.342  0.00  0.00    +0.053 A 
ATOM     14  C   UNL     1      13.986   9.145  16.454  0.00  0.00    +0.065 A 
ATOM     18  C   UNL     1      14.148  11.017  15.474  0.00  0.00    +0.197 A 
ATOM     20  H   UNL     1      13.341  12.178  17.074  0.00  0.00    +0.167 HD
ENDROOT
BRANCH   4   7
ATOM      1  O   UNL     1      10.254   7.115  22.011  0.00  0.00    -0.380 OA
ATOM      7  C   UNL     1      12.305   7.988  20.189  0.00  0.00    +0.062 C 
ATOM      9  C   UNL     1      11.187   8.916  20.671  0.00  0.00    +0.047 C 
ATOM     10  C   UNL     1      11.847   6.528  20.272  0.00  0.00    +0.047 C 
ATOM     15  C   UNL     1      10.688   8.475  22.043  0.00  0.00    +0.161 C 
ATOM     16  C   UNL     1      11.311   6.220  21.666  0.00  0.00    +0.161 C 
ENDBRANCH   4   7
BRANCH   8  17
ATOM      3  O   UNL     1      15.503   8.650  19.413  0.00  0.00    -0.249 OA
ATOM     17  C   UNL     1      15.022   7.579  19.066  0.00  0.00    +0.325 C 
BRANCH  17   2
ATOM      2  O   UNL     1      15.532   6.342  19.325  0.00  0.00    -0.467 OA
ATOM     19  C   UNL     1      16.961   6.257  19.346  0.00  0.00    +0.280 C 
ENDBRANCH  17   2
ENDBRANCH   8  17
TORSDOF 3
ENDMDL
MODEL 2
REMARK VINA RESULT:      -6.2      2.742      4.377
REMARK  Name = 26761840
REMARK  4 active torsions:
REMARK  status: ('A' for Active; 'I' for Inactive)
REMARK    1  A    between atoms: O_2  and  C_17
REMARK    2  A    between atoms: O_2  and  C_19
REMARK    3  A    between atoms: N_4  and  C_7
REMARK    4  A    between atoms: C_8  and  C_17
REMARK                            x       y       z     vdW  Elec       q    Type
REMARK                         _______ _______ _______ _____ _____    ______ ____
ROOT
ATOM      4  N   UNL     1      13.559   8.856  20.464  0.00  0.00    -0.281 NA
ATOM      5  N   UNL     1      16.143   6.416  21.596  0.00  0.00    -0.347 N 
ATOM      6  N   UNL     1      16.758   6.398  19.446  0.00  0.00    -0.240 NA
ATOM      8  C   UNL     1      13.508   8.359  19.066  0.00  0.00    +0.173 C 
ATOM     11  C   UNL     1      14.036   7.867  21.458  0.00  0.00    +0.140 C 
ATOM     12  C   UNL     1      14.889   7.862  18.545  0.00  0.00    +0.087 C 
ATOM     13  C   UNL     1      15.229   7.171  20.926  0.00  0.00    +0.053 A 
ATOM     14  C   UNL     1      15.624   7.141  19.611  0.00  0.00    +0.065 A 
ATOM     18  C   UNL     1      17.046   5.973  20.660  0.00  0.00    +0.197 A 
ATOM     20  H   UNL     1      16.159   6.216  22.587  0.00  0.00    +0.167 HD
ENDROOT
BRANCH   4   7
ATOM      1  O   UNL     1      10.883  10.994  22.891  0.00  0.00    -0.380 OA
ATOM      7  C   UNL     1      12.318   9.492  20.899  0.00  0.00    +0.062 C 
ATOM      9  C   UNL     1      11.826   8.862  22.205  0.00  0.00    +0.047 C 
ATOM     10  C   UNL     1      12.506  11.000  21.082  0.00  0.00    +0.047 C 
ATOM     15  C   UNL     1      10.599   9.606  22.722  0.00  0.00    +0.161 C 
ATOM     16  C   UNL     1      11.242  11.626  21.662  0.00  0.00    +0.161 C 
ENDBRANCH   4   7
BRANCH   8  17
ATOM      3  O   UNL     1      12.199   6.485  19.836  0.00  0.00    -0.249 OA
ATOM     17  C   UNL     1      12.481   7.269  18.938  0.00  0.00    +0.325 C 
BRANCH  17   2
ATOM      2  O   UNL     1      11.935   7.301  17.690  0.00  0.00    -0.467 OA
ATOM     19  C   UNL     1      11.428   8.573  17.273  0.00  0.00    +0.280 C 
ENDBRANCH  17   2
ENDBRANCH   8  17
TORSDOF 3
ENDMDL
MODEL 3
REMARK VINA RESULT:      -6.1      2.692      5.367
REMARK  Name = 26761840
REMARK  4 active torsions:
REMARK  status: ('A' for Active; 'I' for Inactive)
REMARK    1  A    between atoms: O_2  and  C_17
REMARK    2  A    between atoms: O_2  and  C_19
REMARK    3  A    between atoms: N_4  and  C_7
REMARK    4  A    between atoms: C_8  and  C_17
REMARK                            x       y       z     vdW  Elec       q    Type
REMARK                         _______ _______ _______ _____ _____    ______ ____
ROOT
ATOM      4  N   UNL     1      14.709   7.338  20.656  0.00  0.00    -0.281 NA
ATOM      5  N   UNL     1      11.850   8.729  22.607  0.00  0.00    -0.347 N 
ATOM      6  N   UNL     1      10.596   7.445  21.274  0.00  0.00    -0.240 NA
ATOM      8  C   UNL     1      13.914   7.061  19.433  0.00  0.00    +0.173 C 
ATOM     11  C   UNL     1      14.151   8.394  21.532  0.00  0.00    +0.140 C 
ATOM     12  C   UNL     1      12.450   6.631  19.741  0.00  0.00    +0.087 C 
ATOM     13  C   UNL     1      12.694   8.189  21.685  0.00  0.00    +0.053 A 
ATOM     14  C   UNL     1      11.902   7.410  20.877  0.00  0.00    +0.065 A 
ATOM     18  C   UNL     1      10.596   8.249  22.318  0.00  0.00    +0.197 A 
ATOM     20  H   UNL     1      12.093   9.361  23.358  0.00  0.00    +0.167 HD
ENDROOT
BRANCH   4   7
ATOM      1  O   UNL     1      18.871   7.231  21.191  0.00  0.00    -0.380 OA
ATOM      7  C   UNL     1      16.127   7.562  20.387  0.00  0.00    +0.062 C 
ATOM      9  C   UNL     1      16.758   8.388  21.511  0.00  0.00    +0.047 C 
ATOM     10  C   UNL     1      16.874   6.234  20.229  0.00  0.00    +0.047 C 
ATOM     15  C   UNL     1      18.261   8.518  21.293  0.00  0.00    +0.161 C 
ATOM     16  C   UNL     1      18.372   6.483  20.082  0.00  0.00    +0.161 C 
ENDBRANCH   4   7
BRANCH   8  17
ATOM      3  O   UNL     1      13.610   9.388  18.874  0.00  0.00    -0.249 OA
ATOM     17  C   UNL     1      13.924   8.258  18.523  0.00  0.00    +0.325 C 
BRANCH  17   2
ATOM      2  O   UNL     1      14.330   7.881  17.278  0.00  0.00    -0.467 OA
ATOM     19  C   UNL     1      13.987   8.782  16.220  0.00  0.00    +0.280 C 
ENDBRANCH  17   2
ENDBRANCH   8  17
TORSDOF 3
ENDMDL
MODEL 4
REMARK VINA RESULT:      -5.9      3.068      4.972
REMARK  Name = 26761840
REMARK  4 active torsions:
REMARK  status: ('A' for Active; 'I' for Inactive)
REMARK    1  A    between atoms: O_2  and  C_17
REMARK    2  A    between atoms: O_2  and  C_19
REMARK    3  A    between atoms: N_4  and  C_7
REMARK    4  A    between atoms: C_8  and  C_17
REMARK                            x       y       z     vdW  Elec       q    Type
REMARK                         _______ _______ _______ _____ _____    ______ ____
ROOT
ATOM      4  N   UNL     1      12.781   9.628  21.106  0.00  0.00    -0.281 NA
ATOM      5  N   UNL     1      15.508   7.277  22.077  0.00  0.00    -0.347 N 
ATOM      6  N   UNL     1      15.219   6.435  20.026  0.00  0.00    -0.240 NA
ATOM      8  C   UNL     1      12.162   8.713  20.114  0.00  0.00    +0.173 C 
ATOM     11  C   UNL     1      13.575   8.956  22.159  0.00  0.00    +0.140 C 
ATOM     12  C   UNL     1      13.203   7.831  19.365  0.00  0.00    +0.087 C 
ATOM     13  C   UNL     1      14.433   7.919  21.543  0.00  0.00    +0.053 A 
ATOM     14  C   UNL     1      14.273   7.384  20.289  0.00  0.00    +0.065 A 
ATOM     18  C   UNL     1      15.949   6.392  21.123  0.00  0.00    +0.197 A 
ATOM     20  H   UNL     1      15.908   7.418  22.995  0.00  0.00    +0.167 HD
ENDROOT
BRANCH   4   7
ATOM      1  O   UNL     1      11.381  13.022  23.143  0.00  0.00    -0.380 OA
ATOM      7  C   UNL     1      11.838  10.586  21.678  0.00  0.00    +0.062 C 
ATOM      9  C   UNL     1      12.029  10.680  23.194  0.00  0.00    +0.047 C 
ATOM     10  C   UNL     1      12.004  11.970  21.042  0.00  0.00    +0.047 C 
ATOM     15  C   UNL     1      11.131  11.766  23.775  0.00  0.00    +0.161 C 
ATOM     16  C   UNL     1      11.107  12.985  21.743  0.00  0.00    +0.161 C 
ENDBRANCH   4   7
BRANCH   8  17
ATOM      3  O   UNL     1      10.222   8.279  21.480  0.00  0.00    -0.249 OA
ATOM     17  C   UNL     1      11.128   7.848  20.779  0.00  0.00    +0.325 C 
BRANCH  17   2
ATOM      2  O   UNL     1      11.366   6.540  20.477  0.00  0.00    -0.467 OA
ATOM     19  C   UNL     1      11.173   5.616  21.554  0.00  0.00    +0.280 C 
ENDBRANCH  17   2
ENDBRANCH   8  17
TORSDOF 3
ENDMDL
MODEL 5
REMARK VINA RESULT:      -5.8      2.150      3.011
REMARK  Name = 26761840
REMARK  4 active torsions:
REMARK  status: ('A' for Active; 'I' for Inactive)
REMARK    1  A    between atoms: O_2  and  C_17
REMARK    2  A    between atoms: O_2  and  C_19
REMARK    3  A    between atoms: N_4  and  C_7
REMARK    4  A    between atoms: C_8  and  C_17
REMARK                            x       y       z     vdW  Elec       q    Type
REMARK                         _______ _______ _______ _____ _____    ______ ____
ROOT
ATOM      4  N   UNL     1      12.527   9.675  19.560  0.00  0.00    -0.281 NA
ATOM      5  N   UNL     1      14.671  10.104  16.538  0.00  0.00    -0.347 N 
ATOM      6  N   UNL     1      13.022   9.028  15.480  0.00  0.00    -0.240 NA
ATOM      8  C   UNL     1      11.830   8.464  19.059  0.00  0.00    +0.173 C 
ATOM     11  C   UNL     1      13.860   9.917  18.961  0.00  0.00    +0.140 C 
ATOM     12  C   UNL     1      11.609   8.481  17.518  0.00  0.00    +0.087 C 
ATOM     13  C   UNL     1      13.785   9.716  17.497  0.00  0.00    +0.053 A 
ATOM     14  C   UNL     1      12.786   9.055  16.825  0.00  0.00    +0.065 A 
ATOM     18  C   UNL     1      14.166   9.667  15.338  0.00  0.00    +0.197 A 
ATOM     20  H   UNL     1      15.534  10.613  16.677  0.00  0.00    +0.167 HD
ENDROOT
BRANCH   4   7
ATOM      1  O   UNL     1      12.305  11.331  23.411  0.00  0.00    -0.380 OA
ATOM      7  C   UNL     1      12.575   9.755  21.018  0.00  0.00    +0.062 C 
ATOM      9  C   UNL     1      13.639  10.762  21.461  0.00  0.00    +0.047 C 
ATOM     10  C   UNL     1      11.210  10.145  21.594  0.00  0.00    +0.047 C 
ATOM     15  C   UNL     1      13.605  10.936  22.976  0.00  0.00    +0.161 C 
ATOM     16  C   UNL     1      11.311  10.353  23.101  0.00  0.00    +0.161 C 
ENDBRANCH   4   7
BRANCH   8  17
ATOM      3  O   UNL     1      13.796   7.102  19.371  0.00  0.00    -0.249 OA
ATOM     17  C   UNL     1      12.582   7.226  19.463  0.00  0.00    +0.325 C 
BRANCH  17   2
ATOM      2  O   UNL     1      11.706   6.294  19.934  0.00  0.00    -0.467 OA
ATOM     19  C   UNL     1      11.508   6.298  21.352  0.00  0.00    +0.280 C 
ENDBRANCH  17   2
ENDBRANCH   8  17
TORSDOF 3
ENDMDL
MODEL 6
REMARK VINA RESULT:      -5.6     15.179     18.166
REMARK  Name = 26761840
REMARK  4 active torsions:
REMARK  status: ('A' for Active; 'I' for Inactive)
REMARK    1  A    between atoms: O_2  and  C_17
REMARK    2  A    between atoms: O_2  and  C_19
REMARK    3  A    between atoms: N_4  and  C_7
REMARK    4  A    between atoms: C_8  and  C_17
REMARK                            x       y       z     vdW  Elec       q    Type
REMARK                         _______ _______ _______ _____ _____    ______ ____
ROOT
ATOM      4  N   UNL     1      -2.012   1.283  24.340  0.00  0.00    -0.281 NA
ATOM      5  N   UNL     1       1.667   1.623  23.830  0.00  0.00    -0.347 N 
ATOM      6  N   UNL     1       1.488  -0.350  22.794  0.00  0.00    -0.240 NA
ATOM      8  C   UNL     1      -2.018  -0.200  24.288  0.00  0.00    +0.173 C 
ATOM     11  C   UNL     1      -0.717   1.886  24.731  0.00  0.00    +0.140 C 
ATOM     12  C   UNL     1      -0.963  -0.780  23.301  0.00  0.00    +0.087 C 
ATOM     13  C   UNL     1       0.379   1.214  23.999  0.00  0.00    +0.053 A 
ATOM     14  C   UNL     1       0.295   0.001  23.360  0.00  0.00    +0.065 A 
ATOM     18  C   UNL     1       2.295   0.648  23.096  0.00  0.00    +0.197 A 
ATOM     20  H   UNL     1       2.084   2.477  24.176  0.00  0.00    +0.167 HD
ENDROOT
BRANCH   4   7
ATOM      1  O   UNL     1      -5.399   3.587  25.260  0.00  0.00    -0.380 OA
ATOM      7  C   UNL     1      -3.116   1.841  25.119  0.00  0.00    +0.062 C 
ATOM      9  C   UNL     1      -2.980   3.362  25.222  0.00  0.00    +0.047 C 
ATOM     10  C   UNL     1      -4.468   1.475  24.498  0.00  0.00    +0.047 C 
ATOM     15  C   UNL     1      -4.193   3.955  25.929  0.00  0.00    +0.161 C 
ATOM     16  C   UNL     1      -5.599   2.174  25.246  0.00  0.00    +0.161 C 
ENDBRANCH   4   7
BRANCH   8  17
ATOM      3  O   UNL     1      -0.755  -0.715  26.277  0.00  0.00    -0.249 OA
ATOM     17  C   UNL     1      -1.813  -0.770  25.663  0.00  0.00    +0.325 C 
BRANCH  17   2
ATOM      2  O   UNL     1      -2.971  -1.343  26.097  0.00  0.00    -0.467 OA
ATOM     19  C   UNL     1      -3.571  -2.277  25.193  0.00  0.00    +0.280 C 
ENDBRANCH  17   2
ENDBRANCH   8  17
TORSDOF 3
ENDMDL
MODEL 7
REMARK VINA RESULT:      -5.6     30.288     31.390
REMARK  Name = 26761840
REMARK  4 active torsions:
REMARK  status: ('A' for Active; 'I' for Inactive)
REMARK    1  A    between atoms: O_2  and  C_17
REMARK    2  A    between atoms: O_2  and  C_19
REMARK    3  A    between atoms: N_4  and  C_7
REMARK    4  A    between atoms: C_8  and  C_17
REMARK                            x       y       z     vdW  Elec       q    Type
REMARK                         _______ _______ _______ _____ _____    ______ ____
ROOT
ATOM      4  N   UNL     1     -15.618   2.810  30.350  0.00  0.00    -0.281 NA
ATOM      5  N   UNL     1     -15.990   3.557  26.715  0.00  0.00    -0.347 N 
ATOM      6  N   UNL     1     -17.097   1.615  26.649  0.00  0.00    -0.240 NA
ATOM      8  C   UNL     1     -15.721   1.337  30.195  0.00  0.00    +0.173 C 
ATOM     11  C   UNL     1     -15.162   3.531  29.139  0.00  0.00    +0.140 C 
ATOM     12  C   UNL     1     -16.690   0.909  29.055  0.00  0.00    +0.087 C 
ATOM     13  C   UNL     1     -15.879   3.007  27.955  0.00  0.00    +0.053 A 
ATOM     14  C   UNL     1     -16.561   1.817  27.889  0.00  0.00    +0.065 A 
ATOM     18  C   UNL     1     -16.734   2.681  25.963  0.00  0.00    +0.197 A 
ATOM     20  H   UNL     1     -15.601   4.436  26.402  0.00  0.00    +0.167 HD
ENDROOT
BRANCH   4   7
ATOM      1  O   UNL     1     -14.766   4.637  34.032  0.00  0.00    -0.380 OA
ATOM      7  C   UNL     1     -14.859   3.217  31.530  0.00  0.00    +0.062 C 
ATOM      9  C   UNL     1     -14.769   4.743  31.604  0.00  0.00    +0.047 C 
ATOM     10  C   UNL     1     -15.494   2.666  32.811  0.00  0.00    +0.047 C 
ATOM     15  C   UNL     1     -14.084   5.172  32.898  0.00  0.00    +0.161 C 
ATOM     16  C   UNL     1     -14.769   3.210  34.038  0.00  0.00    +0.161 C 
ENDBRANCH   4   7
BRANCH   8  17
ATOM      3  O   UNL     1     -13.311   1.286  30.295  0.00  0.00    -0.249 OA
ATOM     17  C   UNL     1     -14.359   0.741  29.972  0.00  0.00    +0.325 C 
BRANCH  17   2
ATOM      2  O   UNL     1     -14.486  -0.473  29.365  0.00  0.00    -0.467 OA
ATOM     19  C   UNL     1     -13.269  -1.208  29.199  0.00  0.00    +0.280 C 
ENDBRANCH  17   2
ENDBRANCH   8  17
TORSDOF 3
ENDMDL
MODEL 8
REMARK VINA RESULT:      -5.6      2.125      5.337
REMARK  Name = 26761840
REMARK  4 active torsions:
REMARK  status: ('A' for Active; 'I' for Inactive)
REMARK    1  A    between atoms: O_2  and  C_17
REMARK    2  A    between atoms: O_2  and  C_19
REMARK    3  A    between atoms: N_4  and  C_7
REMARK    4  A    between atoms: C_8  and  C_17
REMARK                            x       y       z     vdW  Elec       q    Type
REMARK                         _______ _______ _______ _____ _____    ______ ____
ROOT
ATOM      4  N   UNL     1      13.286   9.375  19.265  0.00  0.00    -0.281 NA
ATOM      5  N   UNL     1      10.362   7.642  20.800  0.00  0.00    -0.347 N 
ATOM      6  N   UNL     1      11.233   8.347  22.735  0.00  0.00    -0.240 NA
ATOM      8  C   UNL     1      14.158   9.250  20.460  0.00  0.00    +0.173 C 
ATOM     11  C   UNL     1      12.207   8.365  19.176  0.00  0.00    +0.140 C 
ATOM     12  C   UNL     1      13.373   9.345  21.801  0.00  0.00    +0.087 C 
ATOM     13  C   UNL     1      11.555   8.223  20.497  0.00  0.00    +0.053 A 
ATOM     14  C   UNL     1      12.072   8.643  21.698  0.00  0.00    +0.065 A 
ATOM     18  C   UNL     1      10.211   7.742  22.161  0.00  0.00    +0.197 A 
ATOM     20  H   UNL     1       9.711   7.216  20.153  0.00  0.00    +0.167 HD
ENDROOT
BRANCH   4   7
ATOM      1  O   UNL     1      14.042  10.028  15.187  0.00  0.00    -0.380 OA
ATOM      7  C   UNL     1      14.031   9.472  18.012  0.00  0.00    +0.062 C 
ATOM      9  C   UNL     1      13.466   8.492  16.980  0.00  0.00    +0.047 C 
ATOM     10  C   UNL     1      13.991  10.899  17.456  0.00  0.00    +0.047 C 
ATOM     15  C   UNL     1      14.161   8.678  15.636  0.00  0.00    +0.161 C 
ATOM     16  C   UNL     1      14.657  10.952  16.085  0.00  0.00    +0.161 C 
ENDBRANCH   4   7
BRANCH   8  17
ATOM      3  O   UNL     1      14.465   6.893  20.051  0.00  0.00    -0.249 OA
ATOM     17  C   UNL     1      14.937   7.966  20.404  0.00  0.00    +0.325 C 
BRANCH  17   2
ATOM      2  O   UNL     1      16.221   8.193  20.800  0.00  0.00    -0.467 OA
ATOM     19  C   UNL     1      16.694   9.533  20.617  0.00  0.00    +0.280 C 
ENDBRANCH  17   2
ENDBRANCH   8  17
TORSDOF 3
ENDMDL
MODEL 9
REMARK VINA RESULT:      -5.5     12.105     14.489
REMARK  Name = 26761840
REMARK  4 active torsions:
REMARK  status: ('A' for Active; 'I' for Inactive)
REMARK    1  A    between atoms: O_2  and  C_17
REMARK    2  A    between atoms: O_2  and  C_19
REMARK    3  A    between atoms: N_4  and  C_7
REMARK    4  A    between atoms: C_8  and  C_17
REMARK                            x       y       z     vdW  Elec       q    Type
REMARK                         _______ _______ _______ _____ _____    ______ ____
ROOT
ATOM      4  N   UNL     1       9.600   6.422   5.594  0.00  0.00    -0.281 NA
ATOM      5  N   UNL     1      10.041   3.876   8.285  0.00  0.00    -0.347 N 
ATOM      6  N   UNL     1       9.038   5.393   9.586  0.00  0.00    -0.240 NA
ATOM      8  C   UNL     1       9.581   7.587   6.514  0.00  0.00    +0.173 C 
ATOM     11  C   UNL     1      10.296   5.226   6.122  0.00  0.00    +0.140 C 
ATOM     12  C   UNL     1       8.910   7.273   7.883  0.00  0.00    +0.087 C 
ATOM     13  C   UNL     1       9.884   4.995   7.524  0.00  0.00    +0.053 A 
ATOM     14  C   UNL     1       9.272   5.911   8.344  0.00  0.00    +0.065 A 
ATOM     18  C   UNL     1       9.514   4.165   9.520  0.00  0.00    +0.197 A 
ATOM     20  H   UNL     1      10.463   3.002   8.002  0.00  0.00    +0.167 HD
ENDROOT
BRANCH   4   7
ATOM      1  O   UNL     1       9.786   6.427   1.400  0.00  0.00    -0.380 OA
ATOM      7  C   UNL     1      10.058   6.754   4.247  0.00  0.00    +0.062 C 
ATOM      9  C   UNL     1      10.526   5.492   3.518  0.00  0.00    +0.047 C 
ATOM     10  C   UNL     1       8.951   7.444   3.444  0.00  0.00    +0.047 C 
ATOM     15  C   UNL     1      10.888   5.819   2.073  0.00  0.00    +0.161 C 
ATOM     16  C   UNL     1       9.400   7.662   2.003  0.00  0.00    +0.161 C 
ENDBRANCH   4   7
BRANCH   8  17
ATOM      3  O   UNL     1      11.932   7.401   7.020  0.00  0.00    -0.249 OA
ATOM     17  C   UNL     1      10.976   8.106   6.725  0.00  0.00    +0.325 C 
BRANCH  17   2
ATOM      2  O   UNL     1      10.993   9.456   6.536  0.00  0.00    -0.467 OA
ATOM     19  C   UNL     1      11.789  10.197   7.468  0.00  0.00    +0.280 C 
ENDBRANCH  17   2
ENDBRANCH   8  17
TORSDOF 3
ENDMDL
MODEL 10
REMARK VINA RESULT:      -5.5     16.187     19.235
REMARK  Name = 26761840
REMARK  4 active torsions:
REMARK  status: ('A' for Active; 'I' for Inactive)
REMARK    1  A    between atoms: O_2  and  C_17
REMARK    2  A    between atoms: O_2  and  C_19
REMARK    3  A    between atoms: N_4  and  C_7
REMARK    4  A    between atoms: C_8  and  C_17
REMARK                            x       y       z     vdW  Elec       q    Type
REMARK                         _______ _______ _______ _____ _____    ______ ____
ROOT
ATOM      4  N   UNL     1      -2.935   1.299  25.429  0.00  0.00    -0.281 NA
ATOM      5  N   UNL     1      -0.311   3.519  23.981  0.00  0.00    -0.347 N 
ATOM      6  N   UNL     1      -1.314   5.122  25.174  0.00  0.00    -0.240 NA
ATOM      8  C   UNL     1      -3.927   2.383  25.639  0.00  0.00    +0.173 C 
ATOM     11  C   UNL     1      -1.929   1.573  24.377  0.00  0.00    +0.140 C 
ATOM     12  C   UNL     1      -3.273   3.744  26.018  0.00  0.00    +0.087 C 
ATOM     13  C   UNL     1      -1.423   2.955  24.527  0.00  0.00    +0.053 A 
ATOM     14  C   UNL     1      -2.023   3.957  25.250  0.00  0.00    +0.065 A 
ATOM     18  C   UNL     1      -0.288   4.826  24.401  0.00  0.00    +0.197 A 
ATOM     20  H   UNL     1       0.367   3.069  23.381  0.00  0.00    +0.167 HD
ENDROOT
BRANCH   4   7
ATOM      1  O   UNL     1      -3.352  -2.709  24.252  0.00  0.00    -0.380 OA
ATOM      7  C   UNL     1      -3.544  -0.018  25.255  0.00  0.00    +0.062 C 
ATOM      9  C   UNL     1      -3.676  -0.350  23.766  0.00  0.00    +0.047 C 
ATOM     10  C   UNL     1      -2.725  -1.101  25.963  0.00  0.00    +0.047 C 
ATOM     15  C   UNL     1      -4.198  -1.772  23.586  0.00  0.00    +0.161 C 
ATOM     16  C   UNL     1      -3.299  -2.481  25.661  0.00  0.00    +0.161 C 
ENDBRANCH   4   7
BRANCH   8  17
ATOM      3  O   UNL     1      -4.409   3.055  23.373  0.00  0.00    -0.249 OA
ATOM     17  C   UNL     1      -4.789   2.543  24.418  0.00  0.00    +0.325 C 
BRANCH  17   2
ATOM      2  O   UNL     1      -6.030   2.037  24.667  0.00  0.00    -0.467 OA
ATOM     19  C   UNL     1      -6.413   1.996  26.046  0.00  0.00    +0.280 C 
ENDBRANCH  17   2
ENDBRANCH   8  17
TORSDOF 3
ENDMDL
