MODEL 1
REMARK VINA RESULT:      -8.4      0.000      0.000
REMARK  Name = 26763568
REMARK  2 active torsions:
REMARK  status: ('A' for Active; 'I' for Inactive)
REMARK    1  A    between atoms: C_17  and  C_20
REMARK    2  A    between atoms: C_21  and  C_23
REMARK                            x       y       z     vdW  Elec       q    Type
REMARK                         _______ _______ _______ _____ _____    ______ ____
ROOT
ATOM      3  O   UNL     1      16.700   9.984  20.594  0.00  0.00    -0.273 OA
ATOM      4  O   UNL     1      18.692   5.193  19.584  0.00  0.00    -0.270 OA
ATOM      5  O   UNL     1      12.711   9.286  20.651  0.00  0.00    -0.270 OA
ATOM      6  N   UNL     1      17.087   6.733  20.219  0.00  0.00    -0.283 N 
ATOM      7  N   UNL     1      14.528   8.053  19.852  0.00  0.00    -0.294 N 
ATOM      8  N   UNL     1      18.641   9.014  21.282  0.00  0.00    -0.283 N 
ATOM      9  C   UNL     1      16.584   7.656  21.226  0.00  0.00    +0.180 C 
ATOM     10  C   UNL     1      15.057   7.793  21.193  0.00  0.00    +0.140 C 
ATOM     11  C   UNL     1      16.162   6.320  19.164  0.00  0.00    +0.128 C 
ATOM     12  C   UNL     1      15.261   7.465  18.725  0.00  0.00    +0.127 C 
ATOM     13  C   UNL     1      17.298   8.975  20.973  0.00  0.00    +0.239 C 
ATOM     14  C   UNL     1      18.330   6.113  20.318  0.00  0.00    +0.249 C 
ATOM     15  C   UNL     1      19.297   6.599  21.338  0.00  0.00    +0.059 A 
ATOM     16  C   UNL     1      19.477   7.950  21.679  0.00  0.00    +0.046 A 
ATOM     17  C   UNL     1      13.342   8.785  19.722  0.00  0.00    +0.247 C 
ATOM     18  C   UNL     1      20.193   5.636  21.841  0.00  0.00    +0.023 A 
ATOM     19  C   UNL     1      20.590   8.313  22.457  0.00  0.00    +0.024 A 
ATOM     21  C   UNL     1      21.264   6.009  22.652  0.00  0.00    -0.017 A 
ATOM     22  C   UNL     1      21.471   7.350  22.949  0.00  0.00    +0.010 A 
ATOM     34  H   UNL     1      19.053   9.943  21.322  0.00  0.00    +0.155 HD
ENDROOT
BRANCH  21  23
ATOM      1 CL   UNL     1      25.006   1.875  24.751  0.00  0.00    -0.084 Cl
ATOM     23  C   UNL     1      22.172   5.005  23.162  0.00  0.00    -0.018 A 
ATOM     28  C   UNL     1      22.171   3.722  22.616  0.00  0.00    +0.010 A 
ATOM     29  C   UNL     1      23.049   5.321  24.199  0.00  0.00    +0.010 A 
ATOM     31  C   UNL     1      23.048   2.754  23.107  0.00  0.00    +0.020 A 
ATOM     32  C   UNL     1      23.925   4.353  24.692  0.00  0.00    +0.020 A 
ATOM     33  C   UNL     1      23.924   3.070  24.145  0.00  0.00    +0.041 A 
ENDBRANCH  21  23
BRANCH  17  20
ATOM      2  F   UNL     1       9.827   8.136  16.444  0.00  0.00    -0.205 F 
ATOM     20  C   UNL     1      12.794   8.981  18.371  0.00  0.00    +0.040 A 
ATOM     24  C   UNL     1      11.546   8.454  18.041  0.00  0.00    +0.051 A 
ATOM     25  C   UNL     1      13.524   9.693  17.419  0.00  0.00    +0.013 A 
ATOM     26  C   UNL     1      11.026   8.641  16.759  0.00  0.00    +0.124 A 
ATOM     27  C   UNL     1      13.005   9.879  16.138  0.00  0.00    +0.004 A 
ATOM     30  C   UNL     1      11.756   9.354  15.808  0.00  0.00    +0.038 A 
ENDBRANCH  17  20
TORSDOF 2
ENDMDL
MODEL 2
REMARK VINA RESULT:      -8.1     28.919     32.617
REMARK  Name = 26763568
REMARK  2 active torsions:
REMARK  status: ('A' for Active; 'I' for Inactive)
REMARK    1  A    between atoms: C_17  and  C_20
REMARK    2  A    between atoms: C_21  and  C_23
REMARK                            x       y       z     vdW  Elec       q    Type
REMARK                         _______ _______ _______ _____ _____    ______ ____
ROOT
ATOM      3  O   UNL     1     -10.385 -10.485  20.562  0.00  0.00    -0.273 OA
ATOM      4  O   UNL     1      -9.087  -8.597  15.799  0.00  0.00    -0.270 OA
ATOM      5  O   UNL     1     -14.059 -12.064  19.915  0.00  0.00    -0.270 OA
ATOM      6  N   UNL     1     -10.272  -9.865  17.328  0.00  0.00    -0.283 N 
ATOM      7  N   UNL     1     -12.732 -10.573  18.697  0.00  0.00    -0.294 N 
ATOM      8  N   UNL     1      -8.360 -10.325  19.537  0.00  0.00    -0.283 N 
ATOM      9  C   UNL     1     -10.317 -11.022  18.210  0.00  0.00    +0.180 C 
ATOM     10  C   UNL     1     -11.732 -11.592  18.367  0.00  0.00    +0.140 C 
ATOM     11  C   UNL     1     -11.546  -9.238  16.977  0.00  0.00    +0.128 C 
ATOM     12  C   UNL     1     -12.513  -9.229  18.153  0.00  0.00    +0.127 C 
ATOM     13  C   UNL     1      -9.718 -10.562  19.530  0.00  0.00    +0.239 C 
ATOM     14  C   UNL     1      -9.108  -9.448  16.688  0.00  0.00    +0.249 C 
ATOM     15  C   UNL     1      -7.806 -10.029  17.113  0.00  0.00    +0.059 A 
ATOM     16  C   UNL     1      -7.467 -10.324  18.444  0.00  0.00    +0.046 A 
ATOM     17  C   UNL     1     -13.853 -10.944  19.449  0.00  0.00    +0.247 C 
ATOM     18  C   UNL     1      -6.815 -10.106  16.117  0.00  0.00    +0.023 A 
ATOM     19  C   UNL     1      -6.129 -10.621  18.756  0.00  0.00    +0.024 A 
ATOM     21  C   UNL     1      -5.503 -10.450  16.437  0.00  0.00    -0.017 A 
ATOM     22  C   UNL     1      -5.156 -10.694  17.760  0.00  0.00    +0.010 A 
ATOM     34  H   UNL     1      -7.937 -10.237  20.458  0.00  0.00    +0.155 HD
ENDROOT
BRANCH  21  23
ATOM      1 CL   UNL     1      -1.370 -10.776  12.158  0.00  0.00    -0.084 Cl
ATOM     23  C   UNL     1      -4.498 -10.528  15.398  0.00  0.00    -0.018 A 
ATOM     28  C   UNL     1      -3.148 -10.594  15.737  0.00  0.00    +0.010 A 
ATOM     29  C   UNL     1      -4.883 -10.539  14.058  0.00  0.00    +0.010 A 
ATOM     31  C   UNL     1      -2.180 -10.671  14.735  0.00  0.00    +0.020 A 
ATOM     32  C   UNL     1      -3.915 -10.615  13.055  0.00  0.00    +0.020 A 
ATOM     33  C   UNL     1      -2.564 -10.681  13.395  0.00  0.00    +0.041 A 
ENDBRANCH  21  23
BRANCH  17  20
ATOM      2  F   UNL     1     -15.642  -7.358  22.183  0.00  0.00    -0.205 F 
ATOM     20  C   UNL     1     -14.876  -9.920  19.716  0.00  0.00    +0.040 A 
ATOM     24  C   UNL     1     -14.772  -9.109  20.846  0.00  0.00    +0.051 A 
ATOM     25  C   UNL     1     -15.950  -9.763  18.841  0.00  0.00    +0.013 A 
ATOM     26  C   UNL     1     -15.742  -8.138  21.099  0.00  0.00    +0.124 A 
ATOM     27  C   UNL     1     -16.920  -8.793  19.094  0.00  0.00    +0.004 A 
ATOM     30  C   UNL     1     -16.817  -7.981  20.223  0.00  0.00    +0.038 A 
ENDBRANCH  17  20
TORSDOF 2
ENDMDL
MODEL 3
REMARK VINA RESULT:      -8.1      4.941     10.467
REMARK  Name = 26763568
REMARK  2 active torsions:
REMARK  status: ('A' for Active; 'I' for Inactive)
REMARK    1  A    between atoms: C_17  and  C_20
REMARK    2  A    between atoms: C_21  and  C_23
REMARK                            x       y       z     vdW  Elec       q    Type
REMARK                         _______ _______ _______ _____ _____    ______ ____
ROOT
ATOM      3  O   UNL     1      20.356   7.285  23.108  0.00  0.00    -0.273 OA
ATOM      4  O   UNL     1      17.470   4.970  19.332  0.00  0.00    -0.270 OA
ATOM      5  O   UNL     1      24.141   6.790  21.755  0.00  0.00    -0.270 OA
ATOM      6  N   UNL     1      19.351   5.929  20.278  0.00  0.00    -0.283 N 
ATOM      7  N   UNL     1      22.106   5.792  21.185  0.00  0.00    -0.294 N 
ATOM      8  N   UNL     1      18.281   7.785  22.317  0.00  0.00    -0.283 N 
ATOM      9  C   UNL     1      20.041   7.131  20.720  0.00  0.00    +0.180 C 
ATOM     10  C   UNL     1      21.566   7.019  20.594  0.00  0.00    +0.140 C 
ATOM     11  C   UNL     1      20.158   4.724  20.081  0.00  0.00    +0.128 C 
ATOM     12  C   UNL     1      21.251   4.600  21.134  0.00  0.00    +0.127 C 
ATOM     13  C   UNL     1      19.585   7.371  22.151  0.00  0.00    +0.239 C 
ATOM     14  C   UNL     1      18.016   5.926  19.885  0.00  0.00    +0.249 C 
ATOM     15  C   UNL     1      17.180   7.124  20.168  0.00  0.00    +0.059 A 
ATOM     16  C   UNL     1      17.267   7.890  21.343  0.00  0.00    +0.046 A 
ATOM     17  C   UNL     1      23.406   5.804  21.702  0.00  0.00    +0.247 C 
ATOM     18  C   UNL     1      16.129   7.366  19.264  0.00  0.00    +0.023 A 
ATOM     19  C   UNL     1      16.260   8.832  21.617  0.00  0.00    +0.024 A 
ATOM     21  C   UNL     1      15.166   8.338  19.529  0.00  0.00    -0.017 A 
ATOM     22  C   UNL     1      15.223   9.062  20.712  0.00  0.00    +0.010 A 
ATOM     34  H   UNL     1      18.053   8.152  23.238  0.00  0.00    +0.155 HD
ENDROOT
BRANCH  21  23
ATOM      1 CL   UNL     1      10.757   9.309  15.639  0.00  0.00    -0.084 Cl
ATOM     23  C   UNL     1      14.095   8.575  18.584  0.00  0.00    -0.018 A 
ATOM     28  C   UNL     1      14.293   9.438  17.507  0.00  0.00    +0.010 A 
ATOM     29  C   UNL     1      12.865   7.939  18.752  0.00  0.00    +0.010 A 
ATOM     31  C   UNL     1      13.261   9.665  16.596  0.00  0.00    +0.020 A 
ATOM     32  C   UNL     1      11.832   8.166  17.841  0.00  0.00    +0.020 A 
ATOM     33  C   UNL     1      12.032   9.030  16.764  0.00  0.00    +0.041 A 
ENDBRANCH  21  23
BRANCH  17  20
ATOM      2  F   UNL     1      25.926   1.702  21.114  0.00  0.00    -0.205 F 
ATOM     20  C   UNL     1      23.952   4.545  22.233  0.00  0.00    +0.040 A 
ATOM     24  C   UNL     1      24.694   3.703  21.405  0.00  0.00    +0.051 A 
ATOM     25  C   UNL     1      23.726   4.194  23.564  0.00  0.00    +0.013 A 
ATOM     26  C   UNL     1      25.212   2.509  21.909  0.00  0.00    +0.124 A 
ATOM     27  C   UNL     1      24.243   3.000  24.067  0.00  0.00    +0.004 A 
ATOM     30  C   UNL     1      24.987   2.158  23.240  0.00  0.00    +0.038 A 
ENDBRANCH  17  20
TORSDOF 2
ENDMDL
MODEL 4
REMARK VINA RESULT:      -7.8     28.657     32.690
REMARK  Name = 26763568
REMARK  2 active torsions:
REMARK  status: ('A' for Active; 'I' for Inactive)
REMARK    1  A    between atoms: C_17  and  C_20
REMARK    2  A    between atoms: C_21  and  C_23
REMARK                            x       y       z     vdW  Elec       q    Type
REMARK                         _______ _______ _______ _____ _____    ______ ____
ROOT
ATOM      3  O   UNL     1      -5.305 -13.308  18.037  0.00  0.00    -0.273 OA
ATOM      4  O   UNL     1      -9.696 -10.911  16.330  0.00  0.00    -0.270 OA
ATOM      5  O   UNL     1      -2.395 -10.727  16.910  0.00  0.00    -0.270 OA
ATOM      6  N   UNL     1      -7.468 -11.084  16.927  0.00  0.00    -0.283 N 
ATOM      7  N   UNL     1      -4.637 -10.961  16.293  0.00  0.00    -0.294 N 
ATOM      8  N   UNL     1      -7.408 -13.280  18.907  0.00  0.00    -0.283 N 
ATOM      9  C   UNL     1      -6.472 -11.196  17.982  0.00  0.00    +0.180 C 
ATOM     10  C   UNL     1      -5.135 -10.544  17.606  0.00  0.00    +0.140 C 
ATOM     11  C   UNL     1      -7.001 -10.670  15.604  0.00  0.00    +0.128 C 
ATOM     12  C   UNL     1      -5.643 -11.272  15.272  0.00  0.00    +0.127 C 
ATOM     13  C   UNL     1      -6.340 -12.682  18.273  0.00  0.00    +0.239 C 
ATOM     14  C   UNL     1      -8.835 -11.189  17.166  0.00  0.00    +0.249 C 
ATOM     15  C   UNL     1      -9.299 -11.694  18.486  0.00  0.00    +0.059 A 
ATOM     16  C   UNL     1      -8.670 -12.724  19.205  0.00  0.00    +0.046 A 
ATOM     17  C   UNL     1      -3.256 -10.984  16.069  0.00  0.00    +0.247 C 
ATOM     18  C   UNL     1     -10.545 -11.210  18.924  0.00  0.00    +0.023 A 
ATOM     19  C   UNL     1      -9.337 -13.293  20.304  0.00  0.00    +0.024 A 
ATOM     21  C   UNL     1     -11.171 -11.753  20.046  0.00  0.00    -0.017 A 
ATOM     22  C   UNL     1     -10.573 -12.805  20.728  0.00  0.00    +0.010 A 
ATOM     34  H   UNL     1      -7.226 -14.204  19.292  0.00  0.00    +0.155 HD
ENDROOT
BRANCH  21  23
ATOM      1 CL   UNL     1     -16.439  -9.634  21.850  0.00  0.00    -0.084 Cl
ATOM     23  C   UNL     1     -12.451 -11.239  20.483  0.00  0.00    -0.018 A 
ATOM     28  C   UNL     1     -13.299 -12.038  21.249  0.00  0.00    +0.010 A 
ATOM     29  C   UNL     1     -12.835  -9.943  20.140  0.00  0.00    +0.010 A 
ATOM     31  C   UNL     1     -14.532 -11.542  21.672  0.00  0.00    +0.020 A 
ATOM     32  C   UNL     1     -14.069  -9.446  20.562  0.00  0.00    +0.020 A 
ATOM     33  C   UNL     1     -14.917 -10.247  21.328  0.00  0.00    +0.041 A 
ENDBRANCH  21  23
BRANCH  17  20
ATOM      2  F   UNL     1      -1.678  -9.728  11.658  0.00  0.00    -0.205 F 
ATOM     20  C   UNL     1      -2.779 -11.346  14.725  0.00  0.00    +0.040 A 
ATOM     24  C   UNL     1      -2.449 -10.346  13.810  0.00  0.00    +0.051 A 
ATOM     25  C   UNL     1      -2.659 -12.688  14.366  0.00  0.00    +0.013 A 
ATOM     26  C   UNL     1      -1.996 -10.688  12.536  0.00  0.00    +0.124 A 
ATOM     27  C   UNL     1      -2.206 -13.030  13.091  0.00  0.00    +0.004 A 
ATOM     30  C   UNL     1      -1.875 -12.031  12.176  0.00  0.00    +0.038 A 
ENDBRANCH  17  20
TORSDOF 2
ENDMDL
MODEL 5
REMARK VINA RESULT:      -7.7     28.982     33.372
REMARK  Name = 26763568
REMARK  2 active torsions:
REMARK  status: ('A' for Active; 'I' for Inactive)
REMARK    1  A    between atoms: C_17  and  C_20
REMARK    2  A    between atoms: C_21  and  C_23
REMARK                            x       y       z     vdW  Elec       q    Type
REMARK                         _______ _______ _______ _____ _____    ______ ____
ROOT
ATOM      3  O   UNL     1      -7.490 -13.258  18.032  0.00  0.00    -0.273 OA
ATOM      4  O   UNL     1     -10.184  -8.914  16.685  0.00  0.00    -0.270 OA
ATOM      5  O   UNL     1      -3.797 -11.797  18.822  0.00  0.00    -0.270 OA
ATOM      6  N   UNL     1      -8.445 -10.133  17.600  0.00  0.00    -0.283 N 
ATOM      7  N   UNL     1      -5.650 -10.913  17.705  0.00  0.00    -0.294 N 
ATOM      8  N   UNL     1      -9.677 -12.714  18.354  0.00  0.00    -0.283 N 
ATOM      9  C   UNL     1      -7.956 -10.979  18.679  0.00  0.00    +0.180 C 
ATOM     10  C   UNL     1      -6.452 -10.813  18.927  0.00  0.00    +0.140 C 
ATOM     11  C   UNL     1      -7.447  -9.507  16.733  0.00  0.00    +0.128 C 
ATOM     12  C   UNL     1      -6.271 -10.436  16.465  0.00  0.00    +0.127 C 
ATOM     13  C   UNL     1      -8.336 -12.401  18.297  0.00  0.00    +0.239 C 
ATOM     14  C   UNL     1      -9.783  -9.773  17.470  0.00  0.00    +0.249 C 
ATOM     15  C   UNL     1     -10.801 -10.478  18.295  0.00  0.00    +0.059 A 
ATOM     16  C   UNL     1     -10.766 -11.851  18.593  0.00  0.00    +0.046 A 
ATOM     17  C   UNL     1      -4.338 -11.392  17.794  0.00  0.00    +0.247 C 
ATOM     18  C   UNL     1     -11.946  -9.730  18.626  0.00  0.00    +0.023 A 
ATOM     19  C   UNL     1     -11.906 -12.455  19.153  0.00  0.00    +0.024 A 
ATOM     21  C   UNL     1     -13.049 -10.336  19.226  0.00  0.00    -0.017 A 
ATOM     22  C   UNL     1     -13.035 -11.702  19.477  0.00  0.00    +0.010 A 
ATOM     34  H   UNL     1      -9.896 -13.707  18.315  0.00  0.00    +0.155 HD
ENDROOT
BRANCH  21  23
ATOM      1 CL   UNL     1     -17.850  -7.092  20.613  0.00  0.00    -0.084 Cl
ATOM     23  C   UNL     1     -14.216  -9.549  19.564  0.00  0.00    -0.018 A 
ATOM     28  C   UNL     1     -14.447  -9.178  20.887  0.00  0.00    +0.010 A 
ATOM     29  C   UNL     1     -15.106  -9.161  18.563  0.00  0.00    +0.010 A 
ATOM     31  C   UNL     1     -15.572  -8.418  21.212  0.00  0.00    +0.020 A 
ATOM     32  C   UNL     1     -16.231  -8.401  18.888  0.00  0.00    +0.020 A 
ATOM     33  C   UNL     1     -16.463  -8.030  20.213  0.00  0.00    +0.041 A 
ENDBRANCH  21  23
BRANCH  17  20
ATOM      2  F   UNL     1      -0.871  -9.531  14.958  0.00  0.00    -0.205 F 
ATOM     20  C   UNL     1      -3.529 -11.425  16.565  0.00  0.00    +0.040 A 
ATOM     24  C   UNL     1      -2.565 -10.443  16.339  0.00  0.00    +0.051 A 
ATOM     25  C   UNL     1      -3.727 -12.437  15.627  0.00  0.00    +0.013 A 
ATOM     26  C   UNL     1      -1.797 -10.474  15.175  0.00  0.00    +0.124 A 
ATOM     27  C   UNL     1      -2.960 -12.468  14.462  0.00  0.00    +0.004 A 
ATOM     30  C   UNL     1      -1.995 -11.487  14.236  0.00  0.00    +0.038 A 
ENDBRANCH  17  20
TORSDOF 2
ENDMDL
MODEL 6
REMARK VINA RESULT:      -7.5     28.491     32.620
REMARK  Name = 26763568
REMARK  2 active torsions:
REMARK  status: ('A' for Active; 'I' for Inactive)
REMARK    1  A    between atoms: C_17  and  C_20
REMARK    2  A    between atoms: C_21  and  C_23
REMARK                            x       y       z     vdW  Elec       q    Type
REMARK                         _______ _______ _______ _____ _____    ______ ____
ROOT
ATOM      3  O   UNL     1      -3.733 -12.308   9.854  0.00  0.00    -0.273 OA
ATOM      4  O   UNL     1      -6.225  -7.691   9.213  0.00  0.00    -0.270 OA
ATOM      5  O   UNL     1      -5.013 -13.503  13.506  0.00  0.00    -0.270 OA
ATOM      6  N   UNL     1      -5.804  -9.762  10.152  0.00  0.00    -0.283 N 
ATOM      7  N   UNL     1      -5.063 -11.445  12.400  0.00  0.00    -0.294 N 
ATOM      8  N   UNL     1      -4.539 -11.312   7.973  0.00  0.00    -0.283 N 
ATOM      9  C   UNL     1      -5.876 -11.212  10.042  0.00  0.00    +0.180 C 
ATOM     10  C   UNL     1      -6.034 -11.902  11.403  0.00  0.00    +0.140 C 
ATOM     11  C   UNL     1      -5.586  -9.200  11.485  0.00  0.00    +0.128 C 
ATOM     12  C   UNL     1      -4.624 -10.048  12.305  0.00  0.00    +0.127 C 
ATOM     13  C   UNL     1      -4.612 -11.637   9.311  0.00  0.00    +0.239 C 
ATOM     14  C   UNL     1      -6.096  -8.910   9.092  0.00  0.00    +0.249 C 
ATOM     15  C   UNL     1      -6.229  -9.481   7.725  0.00  0.00    +0.059 A 
ATOM     16  C   UNL     1      -5.427 -10.517   7.218  0.00  0.00    +0.046 A 
ATOM     17  C   UNL     1      -4.658 -12.329  13.406  0.00  0.00    +0.247 C 
ATOM     18  C   UNL     1      -7.100  -8.797   6.857  0.00  0.00    +0.023 A 
ATOM     19  C   UNL     1      -5.465 -10.796   5.840  0.00  0.00    +0.024 A 
ATOM     21  C   UNL     1      -7.161  -9.120   5.502  0.00  0.00    -0.017 A 
ATOM     22  C   UNL     1      -6.333 -10.110   4.990  0.00  0.00    +0.010 A 
ATOM     34  H   UNL     1      -3.807 -11.785   7.448  0.00  0.00    +0.155 HD
ENDROOT
BRANCH  21  23
ATOM      1 CL   UNL     1     -10.883  -6.183   1.894  0.00  0.00    -0.084 Cl
ATOM     23  C   UNL     1      -8.066  -8.407   4.626  0.00  0.00    -0.018 A 
ATOM     28  C   UNL     1      -9.169  -7.740   5.156  0.00  0.00    +0.010 A 
ATOM     29  C   UNL     1      -7.832  -8.387   3.251  0.00  0.00    +0.010 A 
ATOM     31  C   UNL     1     -10.041  -7.052   4.311  0.00  0.00    +0.020 A 
ATOM     32  C   UNL     1      -8.704  -7.699   2.405  0.00  0.00    +0.020 A 
ATOM     33  C   UNL     1      -9.808  -7.032   2.937  0.00  0.00    +0.041 A 
ENDBRANCH  21  23
BRANCH  17  20
ATOM      2  F   UNL     1      -3.793 -10.671  17.882  0.00  0.00    -0.205 F 
ATOM     20  C   UNL     1      -3.730 -11.830  14.434  0.00  0.00    +0.040 A 
ATOM     24  C   UNL     1      -4.211 -11.480  15.695  0.00  0.00    +0.051 A 
ATOM     25  C   UNL     1      -2.372 -11.707  14.146  0.00  0.00    +0.013 A 
ATOM     26  C   UNL     1      -3.332 -11.007  16.670  0.00  0.00    +0.124 A 
ATOM     27  C   UNL     1      -1.492 -11.234  15.120  0.00  0.00    +0.004 A 
ATOM     30  C   UNL     1      -1.972 -10.884  16.382  0.00  0.00    +0.038 A 
ENDBRANCH  17  20
TORSDOF 2
ENDMDL
MODEL 7
REMARK VINA RESULT:      -7.4     16.790     20.346
REMARK  Name = 26763568
REMARK  2 active torsions:
REMARK  status: ('A' for Active; 'I' for Inactive)
REMARK    1  A    between atoms: C_17  and  C_20
REMARK    2  A    between atoms: C_21  and  C_23
REMARK                            x       y       z     vdW  Elec       q    Type
REMARK                         _______ _______ _______ _____ _____    ______ ____
ROOT
ATOM      3  O   UNL     1      11.041   3.808   3.103  0.00  0.00    -0.273 OA
ATOM      4  O   UNL     1      10.024   8.957   2.474  0.00  0.00    -0.270 OA
ATOM      5  O   UNL     1      14.390   3.292   0.885  0.00  0.00    -0.270 OA
ATOM      6  N   UNL     1      11.289   7.021   2.415  0.00  0.00    -0.283 N 
ATOM      7  N   UNL     1      12.792   4.996   0.978  0.00  0.00    -0.294 N 
ATOM      8  N   UNL     1      10.124   5.320   4.536  0.00  0.00    -0.283 N 
ATOM      9  C   UNL     1      12.038   6.006   3.142  0.00  0.00    +0.180 C 
ATOM     10  C   UNL     1      13.194   5.423   2.320  0.00  0.00    +0.140 C 
ATOM     11  C   UNL     1      11.520   7.124   0.974  0.00  0.00    +0.128 C 
ATOM     12  C   UNL     1      11.715   5.756   0.336  0.00  0.00    +0.127 C 
ATOM     13  C   UNL     1      11.020   4.954   3.554  0.00  0.00    +0.239 C 
ATOM     14  C   UNL     1      10.508   7.982   3.051  0.00  0.00    +0.249 C 
ATOM     15  C   UNL     1      10.206   7.822   4.499  0.00  0.00    +0.059 A 
ATOM     16  C   UNL     1       9.938   6.590   5.120  0.00  0.00    +0.046 A 
ATOM     17  C   UNL     1      13.484   3.944   0.367  0.00  0.00    +0.247 C 
ATOM     18  C   UNL     1      10.010   9.014   5.220  0.00  0.00    +0.023 A 
ATOM     19  C   UNL     1       9.413   6.586   6.424  0.00  0.00    +0.024 A 
ATOM     21  C   UNL     1       9.534   8.989   6.530  0.00  0.00    -0.017 A 
ATOM     22  C   UNL     1       9.222   7.775   7.128  0.00  0.00    +0.010 A 
ATOM     34  H   UNL     1       9.602   4.555   4.957  0.00  0.00    +0.155 HD
ENDROOT
BRANCH  21  23
ATOM      1 CL   UNL     1       8.748  14.082   9.520  0.00  0.00    -0.084 Cl
ATOM     23  C   UNL     1       9.342  10.225   7.257  0.00  0.00    -0.018 A 
ATOM     28  C   UNL     1       9.478  10.247   8.644  0.00  0.00    +0.010 A 
ATOM     29  C   UNL     1       9.023  11.395   6.568  0.00  0.00    +0.010 A 
ATOM     31  C   UNL     1       9.294  11.440   9.345  0.00  0.00    +0.020 A 
ATOM     32  C   UNL     1       8.838  12.588   7.268  0.00  0.00    +0.020 A 
ATOM     33  C   UNL     1       8.974  12.610   8.656  0.00  0.00    +0.041 A 
ENDBRANCH  21  23
BRANCH  17  20
ATOM      2  F   UNL     1      10.757   1.392  -2.729  0.00  0.00    -0.205 F 
ATOM     20  C   UNL     1      13.106   3.572  -1.006  0.00  0.00    +0.040 A 
ATOM     24  C   UNL     1      12.091   2.639  -1.221  0.00  0.00    +0.051 A 
ATOM     25  C   UNL     1      13.763   4.151  -2.091  0.00  0.00    +0.013 A 
ATOM     26  C   UNL     1      11.732   2.286  -2.523  0.00  0.00    +0.124 A 
ATOM     27  C   UNL     1      13.404   3.798  -3.393  0.00  0.00    +0.004 A 
ATOM     30  C   UNL     1      12.389   2.866  -3.609  0.00  0.00    +0.038 A 
ENDBRANCH  17  20
TORSDOF 2
ENDMDL
MODEL 8
REMARK VINA RESULT:      -7.4     13.943     17.793
REMARK  Name = 26763568
REMARK  2 active torsions:
REMARK  status: ('A' for Active; 'I' for Inactive)
REMARK    1  A    between atoms: C_17  and  C_20
REMARK    2  A    between atoms: C_21  and  C_23
REMARK                            x       y       z     vdW  Elec       q    Type
REMARK                         _______ _______ _______ _____ _____    ______ ____
ROOT
ATOM      3  O   UNL     1       9.264   8.259   8.451  0.00  0.00    -0.273 OA
ATOM      4  O   UNL     1      13.293   8.040   5.037  0.00  0.00    -0.270 OA
ATOM      5  O   UNL     1       8.564  12.238   8.737  0.00  0.00    -0.270 OA
ATOM      6  N   UNL     1      11.502   8.994   6.146  0.00  0.00    -0.283 N 
ATOM      7  N   UNL     1      10.366  10.996   7.916  0.00  0.00    -0.294 N 
ATOM      8  N   UNL     1       9.788   6.698   6.880  0.00  0.00    -0.283 N 
ATOM      9  C   UNL     1      10.060   9.084   6.327  0.00  0.00    +0.180 C 
ATOM     10  C   UNL     1       9.606  10.479   6.775  0.00  0.00    +0.140 C 
ATOM     11  C   UNL     1      12.316  10.083   6.686  0.00  0.00    +0.128 C 
ATOM     12  C   UNL     1      11.771  10.588   8.015  0.00  0.00    +0.127 C 
ATOM     13  C   UNL     1       9.697   7.998   7.327  0.00  0.00    +0.239 C 
ATOM     14  C   UNL     1      12.104   8.021   5.354  0.00  0.00    +0.249 C 
ATOM     15  C   UNL     1      11.287   6.871   4.882  0.00  0.00    +0.059 A 
ATOM     16  C   UNL     1      10.302   6.230   5.652  0.00  0.00    +0.046 A 
ATOM     17  C   UNL     1       9.740  11.881   8.800  0.00  0.00    +0.247 C 
ATOM     18  C   UNL     1      11.676   6.306   3.653  0.00  0.00    +0.023 A 
ATOM     19  C   UNL     1       9.782   5.002   5.207  0.00  0.00    +0.024 A 
ATOM     21  C   UNL     1      11.114   5.111   3.204  0.00  0.00    -0.017 A 
ATOM     22  C   UNL     1      10.176   4.452   3.987  0.00  0.00    +0.010 A 
ATOM     34  H   UNL     1       9.338   6.001   7.469  0.00  0.00    +0.155 HD
ENDROOT
BRANCH  21  23
ATOM      1 CL   UNL     1      12.800   2.788  -2.017  0.00  0.00    -0.084 Cl
ATOM     23  C   UNL     1      11.524   4.548   1.936  0.00  0.00    -0.018 A 
ATOM     28  C   UNL     1      12.696   3.798   1.853  0.00  0.00    +0.010 A 
ATOM     29  C   UNL     1      10.746   4.755   0.797  0.00  0.00    +0.010 A 
ATOM     31  C   UNL     1      13.091   3.253   0.630  0.00  0.00    +0.020 A 
ATOM     32  C   UNL     1      11.140   4.211  -0.426  0.00  0.00    +0.020 A 
ATOM     33  C   UNL     1      12.313   3.460  -0.508  0.00  0.00    +0.041 A 
ENDBRANCH  21  23
BRANCH  17  20
ATOM      2  F   UNL     1      11.449  11.632  13.333  0.00  0.00    -0.205 F 
ATOM     20  C   UNL     1      10.539  12.438   9.904  0.00  0.00    +0.040 A 
ATOM     24  C   UNL     1      10.616  11.758  11.120  0.00  0.00    +0.051 A 
ATOM     25  C   UNL     1      11.217  13.644   9.734  0.00  0.00    +0.013 A 
ATOM     26  C   UNL     1      11.374  12.285  12.166  0.00  0.00    +0.124 A 
ATOM     27  C   UNL     1      11.974  14.172  10.781  0.00  0.00    +0.004 A 
ATOM     30  C   UNL     1      12.053  13.492  11.996  0.00  0.00    +0.038 A 
ENDBRANCH  17  20
TORSDOF 2
ENDMDL
MODEL 9
REMARK VINA RESULT:      -7.3     23.324     24.688
REMARK  Name = 26763568
REMARK  2 active torsions:
REMARK  status: ('A' for Active; 'I' for Inactive)
REMARK    1  A    between atoms: C_17  and  C_20
REMARK    2  A    between atoms: C_21  and  C_23
REMARK                            x       y       z     vdW  Elec       q    Type
REMARK                         _______ _______ _______ _____ _____    ______ ____
ROOT
ATOM      3  O   UNL     1       7.200  -5.435  34.485  0.00  0.00    -0.273 OA
ATOM      4  O   UNL     1       5.045 -10.259  34.633  0.00  0.00    -0.270 OA
ATOM      5  O   UNL     1       8.985  -5.154  38.110  0.00  0.00    -0.270 OA
ATOM      6  N   UNL     1       6.446  -8.540  35.290  0.00  0.00    -0.283 N 
ATOM      7  N   UNL     1       7.366  -6.600  37.244  0.00  0.00    -0.294 N 
ATOM      8  N   UNL     1       6.869  -6.958  32.827  0.00  0.00    -0.283 N 
ATOM      9  C   UNL     1       7.638  -7.745  35.033  0.00  0.00    +0.180 C 
ATOM     10  C   UNL     1       8.303  -7.243  36.321  0.00  0.00    +0.140 C 
ATOM     11  C   UNL     1       5.889  -8.499  36.642  0.00  0.00    +0.128 C 
ATOM     12  C   UNL     1       5.989  -7.107  37.250  0.00  0.00    +0.127 C 
ATOM     13  C   UNL     1       7.193  -6.612  34.122  0.00  0.00    +0.239 C 
ATOM     14  C   UNL     1       5.930  -9.446  34.367  0.00  0.00    +0.249 C 
ATOM     15  C   UNL     1       6.442  -9.421  32.971  0.00  0.00    +0.059 A 
ATOM     16  C   UNL     1       6.767  -8.249  32.267  0.00  0.00    +0.046 A 
ATOM     17  C   UNL     1       7.837  -5.595  38.097  0.00  0.00    +0.247 C 
ATOM     18  C   UNL     1       6.416 -10.650  32.286  0.00  0.00    +0.023 A 
ATOM     19  C   UNL     1       6.989  -8.327  30.881  0.00  0.00    +0.024 A 
ATOM     21  C   UNL     1       6.686 -10.716  30.920  0.00  0.00    -0.017 A 
ATOM     22  C   UNL     1       6.960  -9.551  30.214  0.00  0.00    +0.010 A 
ATOM     34  H   UNL     1       6.790  -6.182  32.174  0.00  0.00    +0.155 HD
ENDROOT
BRANCH  21  23
ATOM      1 CL   UNL     1       6.569 -15.959  28.093  0.00  0.00    -0.084 Cl
ATOM     23  C   UNL     1       6.658 -11.990  30.235  0.00  0.00    -0.018 A 
ATOM     28  C   UNL     1       5.667 -12.922  30.537  0.00  0.00    +0.010 A 
ATOM     29  C   UNL     1       7.622 -12.283  29.270  0.00  0.00    +0.010 A 
ATOM     31  C   UNL     1       5.639 -14.150  29.874  0.00  0.00    +0.020 A 
ATOM     32  C   UNL     1       7.595 -13.511  28.608  0.00  0.00    +0.020 A 
ATOM     33  C   UNL     1       6.603 -14.444  28.911  0.00  0.00    +0.041 A 
ENDBRANCH  21  23
BRANCH  17  20
ATOM      2  F   UNL     1       4.436  -2.328  39.232  0.00  0.00    -0.205 F 
ATOM     20  C   UNL     1       6.893  -5.006  39.060  0.00  0.00    +0.040 A 
ATOM     24  C   UNL     1       6.097  -3.925  38.682  0.00  0.00    +0.051 A 
ATOM     25  C   UNL     1       6.796  -5.527  40.350  0.00  0.00    +0.013 A 
ATOM     26  C   UNL     1       5.201  -3.365  39.595  0.00  0.00    +0.124 A 
ATOM     27  C   UNL     1       5.902  -4.968  41.262  0.00  0.00    +0.004 A 
ATOM     30  C   UNL     1       5.104  -3.887  40.885  0.00  0.00    +0.038 A 
ENDBRANCH  17  20
TORSDOF 2
ENDMDL
MODEL 10
REMARK VINA RESULT:      -7.3     17.882     22.180
REMARK  Name = 26763568
REMARK  2 active torsions:
REMARK  status: ('A' for Active; 'I' for Inactive)
REMARK    1  A    between atoms: C_17  and  C_20
REMARK    2  A    between atoms: C_21  and  C_23
REMARK                            x       y       z     vdW  Elec       q    Type
REMARK                         _______ _______ _______ _____ _____    ______ ____
ROOT
ATOM      3  O   UNL     1      10.760   7.367  -1.564  0.00  0.00    -0.273 OA
ATOM      4  O   UNL     1      12.325   4.035   2.229  0.00  0.00    -0.270 OA
ATOM      5  O   UNL     1       9.707   4.858  -4.563  0.00  0.00    -0.270 OA
ATOM      6  N   UNL     1      11.278   4.678   0.271  0.00  0.00    -0.283 N 
ATOM      7  N   UNL     1      10.962   4.565  -2.614  0.00  0.00    -0.294 N 
ATOM      8  N   UNL     1      10.603   7.526   0.701  0.00  0.00    -0.283 N 
ATOM      9  C   UNL     1      10.161   5.353  -0.375  0.00  0.00    +0.180 C 
ATOM     10  C   UNL     1       9.803   4.737  -1.734  0.00  0.00    +0.140 C 
ATOM     11  C   UNL     1      12.072   3.761  -0.547  0.00  0.00    +0.128 C 
ATOM     12  C   UNL     1      12.248   4.280  -1.967  0.00  0.00    +0.127 C 
ATOM     13  C   UNL     1      10.562   6.816  -0.479  0.00  0.00    +0.239 C 
ATOM     14  C   UNL     1      11.508   4.744   1.642  0.00  0.00    +0.249 C 
ATOM     15  C   UNL     1      10.757   5.741   2.451  0.00  0.00    +0.059 A 
ATOM     16  C   UNL     1      10.450   7.042   2.018  0.00  0.00    +0.046 A 
ATOM     17  C   UNL     1      10.774   4.621  -3.999  0.00  0.00    +0.247 C 
ATOM     18  C   UNL     1      10.515   5.386   3.791  0.00  0.00    +0.023 A 
ATOM     19  C   UNL     1       9.972   7.976   2.954  0.00  0.00    +0.024 A 
ATOM     21  C   UNL     1       9.995   6.312   4.694  0.00  0.00    -0.017 A 
ATOM     22  C   UNL     1       9.736   7.611   4.280  0.00  0.00    +0.010 A 
ATOM     34  H   UNL     1      10.652   8.537   0.602  0.00  0.00    +0.155 HD
ENDROOT
BRANCH  21  23
ATOM      1 CL   UNL     1       8.977   4.722  10.346  0.00  0.00    -0.084 Cl
ATOM     23  C   UNL     1       9.749   5.926   6.067  0.00  0.00    -0.018 A 
ATOM     28  C   UNL     1       9.295   6.871   6.986  0.00  0.00    +0.010 A 
ATOM     29  C   UNL     1       9.964   4.608   6.470  0.00  0.00    +0.010 A 
ATOM     31  C   UNL     1       9.056   6.499   8.310  0.00  0.00    +0.020 A 
ATOM     32  C   UNL     1       9.726   4.235   7.794  0.00  0.00    +0.020 A 
ATOM     33  C   UNL     1       9.272   5.182   8.713  0.00  0.00    +0.041 A 
ENDBRANCH  21  23
BRANCH  17  20
ATOM      2  F   UNL     1      13.670   1.611  -6.465  0.00  0.00    -0.205 F 
ATOM     20  C   UNL     1      11.940   4.383  -4.866  0.00  0.00    +0.040 A 
ATOM     24  C   UNL     1      12.259   3.084  -5.262  0.00  0.00    +0.051 A 
ATOM     25  C   UNL     1      12.725   5.455  -5.289  0.00  0.00    +0.013 A 
ATOM     26  C   UNL     1      13.364   2.857  -6.084  0.00  0.00    +0.124 A 
ATOM     27  C   UNL     1      13.830   5.228  -6.110  0.00  0.00    +0.004 A 
ATOM     30  C   UNL     1      14.150   3.930  -6.508  0.00  0.00    +0.038 A 
ENDBRANCH  17  20
TORSDOF 2
ENDMDL
