MODEL 1
REMARK VINA RESULT:      -6.1      0.000      0.000
REMARK  Name = 11883170
REMARK  10 active torsions:
REMARK  status: ('A' for Active; 'I' for Inactive)
REMARK    1  A    between atoms: O_2  and  C_12
REMARK    2  A    between atoms: O_3  and  C_17
REMARK    3  A    between atoms: N_6  and  C_24
REMARK    4  A    between atoms: C_7  and  C_15
REMARK    5  A    between atoms: C_9  and  C_17
REMARK    6  A    between atoms: C_9  and  C_18
REMARK    7  A    between atoms: C_10  and  C_20
REMARK    8  A    between atoms: C_20  and  C_21
REMARK    9  A    between atoms: C_22  and  C_23
REMARK   10  A    between atoms: C_24  and  C_29
REMARK                            x       y       z     vdW  Elec       q    Type
REMARK                         _______ _______ _______ _____ _____    ______ ____
ROOT
ATOM      1  S   UNL     1      -7.744 -10.011  12.671  0.00  0.00    -0.072 S 
ATOM      5  N   UNL     1      -5.591 -10.111  14.101  0.00  0.00    -0.243 NA
ATOM      7  C   UNL     1      -7.829 -10.551  17.209  0.00  0.00    -0.020 C 
ATOM      8  C   UNL     1      -8.959 -11.311  16.385  0.00  0.00    +0.011 C 
ATOM      9  C   UNL     1     -10.287 -11.672  17.157  0.00  0.00    +0.021 C 
ATOM     10  C   UNL     1      -6.457 -10.681  16.401  0.00  0.00    +0.053 C 
ATOM     11  C   UNL     1      -7.649 -11.235  18.589  0.00  0.00    +0.010 C 
ATOM     12  C   UNL     1      -9.926 -12.302  18.531  0.00  0.00    +0.123 C 
ATOM     13  C   UNL     1      -9.201 -10.642  15.001  0.00  0.00    +0.049 C 
ATOM     14  C   UNL     1      -8.952 -11.456  19.343  0.00  0.00    +0.032 C 
ATOM     15  C   UNL     1      -8.153  -9.054  17.436  0.00  0.00    +0.012 C 
ATOM     16  C   UNL     1      -6.658 -10.372  14.939  0.00  0.00    +0.056 A 
ATOM     18  C   UNL     1     -11.068 -12.745  16.346  0.00  0.00    +0.016 C 
ATOM     19  C   UNL     1      -7.896 -10.378  14.328  0.00  0.00    +0.014 A 
ATOM     22  C   UNL     1      -6.044  -9.898  12.885  0.00  0.00    +0.109 A 
ENDROOT
BRANCH  22  23
ATOM     23  C   UNL     1      -5.224  -9.585  11.739  0.00  0.00    +0.007 A 
ATOM     25  C   UNL     1      -3.919 -10.074  11.662  0.00  0.00    +0.010 A 
ATOM     26  C   UNL     1      -5.735  -8.793  10.711  0.00  0.00    +0.010 A 
ATOM     27  C   UNL     1      -3.127  -9.772  10.555  0.00  0.00    +0.001 A 
ATOM     28  C   UNL     1      -4.941  -8.491   9.605  0.00  0.00    +0.001 A 
ATOM     30  C   UNL     1      -3.637  -8.980   9.526  0.00  0.00    +0.000 A 
ENDBRANCH  22  23
BRANCH  12   2
ATOM      2  O   UNL     1     -11.103 -12.521  19.308  0.00  0.00    -0.391 OA
ATOM     32  H   UNL     1     -11.850 -12.630  18.697  0.00  0.00    +0.210 HD
ENDBRANCH  12   2
BRANCH   9  17
ATOM     17  C   UNL     1     -11.266 -10.490  17.333  0.00  0.00    +0.165 C 
BRANCH  17   3
ATOM      3  O   UNL     1     -12.578 -11.005  17.281  0.00  0.00    -0.394 OA
ATOM     33  H   UNL     1     -13.082 -10.621  18.018  0.00  0.00    +0.209 HD
ENDBRANCH  17   3
ENDBRANCH   9  17
BRANCH  10  20
ATOM     20  C   UNL     1      -5.290  -9.875  16.989  0.00  0.00    +0.106 C 
BRANCH  20  21
ATOM      4  O   UNL     1      -3.813 -11.596  17.832  0.00  0.00    -0.276 OA
ATOM      6  N   UNL     1      -3.114 -10.247  16.074  0.00  0.00    -0.304 N 
ATOM     21  C   UNL     1      -4.013 -10.682  17.037  0.00  0.00    +0.214 C 
ATOM     34  H   UNL     1      -3.386  -9.513  15.426  0.00  0.00    +0.150 HD
BRANCH   6  24
ATOM     24  C   UNL     1      -1.807 -10.834  15.891  0.00  0.00    +0.193 C 
BRANCH  24  29
ATOM     29  C   UNL     1      -1.771 -11.680  14.698  0.00  0.00    -0.087 C 
ATOM     31  C   UNL     1      -1.745 -12.377  13.721  0.00  0.00    +0.005 C 
ENDBRANCH  24  29
ENDBRANCH   6  24
ENDBRANCH  20  21
ENDBRANCH  10  20
TORSDOF 8
ENDMDL
MODEL 2
REMARK VINA RESULT:      -6.0      4.111      8.789
REMARK  Name = 11883170
REMARK  10 active torsions:
REMARK  status: ('A' for Active; 'I' for Inactive)
REMARK    1  A    between atoms: O_2  and  C_12
REMARK    2  A    between atoms: O_3  and  C_17
REMARK    3  A    between atoms: N_6  and  C_24
REMARK    4  A    between atoms: C_7  and  C_15
REMARK    5  A    between atoms: C_9  and  C_17
REMARK    6  A    between atoms: C_9  and  C_18
REMARK    7  A    between atoms: C_10  and  C_20
REMARK    8  A    between atoms: C_20  and  C_21
REMARK    9  A    between atoms: C_22  and  C_23
REMARK   10  A    between atoms: C_24  and  C_29
REMARK                            x       y       z     vdW  Elec       q    Type
REMARK                         _______ _______ _______ _____ _____    ______ ____
ROOT
ATOM      1  S   UNL     1     -10.372 -12.473  20.100  0.00  0.00    -0.072 S 
ATOM      5  N   UNL     1     -10.771 -10.297  18.759  0.00  0.00    -0.243 NA
ATOM      7  C   UNL     1      -7.153 -10.587  17.460  0.00  0.00    -0.020 C 
ATOM      8  C   UNL     1      -7.174 -12.177  17.522  0.00  0.00    +0.011 C 
ATOM      9  C   UNL     1      -5.825 -12.925  17.191  0.00  0.00    +0.021 C 
ATOM     10  C   UNL     1      -8.665 -10.075  17.388  0.00  0.00    +0.053 C 
ATOM     11  C   UNL     1      -6.422 -10.131  16.170  0.00  0.00    +0.010 C 
ATOM     12  C   UNL     1      -5.205 -12.316  15.902  0.00  0.00    +0.123 C 
ATOM     13  C   UNL     1      -7.871 -12.686  18.818  0.00  0.00    +0.049 C 
ATOM     14  C   UNL     1      -5.071 -10.799  15.958  0.00  0.00    +0.032 C 
ATOM     15  C   UNL     1      -6.449  -9.946  18.681  0.00  0.00    +0.012 C 
ATOM     16  C   UNL     1      -9.523 -10.776  18.410  0.00  0.00    +0.056 A 
ATOM     18  C   UNL     1      -6.134 -14.420  16.895  0.00  0.00    +0.016 C 
ATOM     19  C   UNL     1      -9.155 -11.956  19.026  0.00  0.00    +0.014 A 
ATOM     22  C   UNL     1     -11.307 -11.105  19.648  0.00  0.00    +0.109 A 
ENDROOT
BRANCH  22  23
ATOM     23  C   UNL     1     -12.604 -10.925  20.254  0.00  0.00    +0.007 A 
ATOM     25  C   UNL     1     -13.295  -9.725  20.078  0.00  0.00    +0.010 A 
ATOM     26  C   UNL     1     -13.167 -11.949  21.015  0.00  0.00    +0.010 A 
ATOM     27  C   UNL     1     -14.549  -9.551  20.663  0.00  0.00    +0.001 A 
ATOM     28  C   UNL     1     -14.420 -11.773  21.601  0.00  0.00    +0.001 A 
ATOM     30  C   UNL     1     -15.112 -10.575  21.425  0.00  0.00    +0.000 A 
ENDBRANCH  22  23
BRANCH  12   2
ATOM      2  O   UNL     1      -3.920 -12.882  15.646  0.00  0.00    -0.391 OA
ATOM     32  H   UNL     1      -3.768 -12.861  14.687  0.00  0.00    +0.210 HD
ENDBRANCH  12   2
BRANCH   9  17
ATOM     17  C   UNL     1      -4.798 -12.933  18.345  0.00  0.00    +0.165 C 
BRANCH  17   3
ATOM      3  O   UNL     1      -4.104 -14.160  18.296  0.00  0.00    -0.394 OA
ATOM     33  H   UNL     1      -3.473 -14.179  19.035  0.00  0.00    +0.209 HD
ENDBRANCH  17   3
ENDBRANCH   9  17
BRANCH  10  20
ATOM     20  C   UNL     1      -8.828  -8.551  17.469  0.00  0.00    +0.106 C 
BRANCH  20  21
ATOM      4  O   UNL     1      -9.626  -8.529  15.186  0.00  0.00    -0.276 OA
ATOM      6  N   UNL     1     -10.268  -6.834  16.640  0.00  0.00    -0.304 N 
ATOM     21  C   UNL     1      -9.602  -8.001  16.294  0.00  0.00    +0.214 C 
ATOM     34  H   UNL     1     -10.229  -6.497  17.597  0.00  0.00    +0.150 HD
BRANCH   6  24
ATOM     24  C   UNL     1     -11.086  -6.087  15.713  0.00  0.00    +0.193 C 
BRANCH  24  29
ATOM     29  C   UNL     1     -12.491  -6.479  15.815  0.00  0.00    -0.087 C 
ATOM     31  C   UNL     1     -13.643  -6.805  15.898  0.00  0.00    +0.005 C 
ENDBRANCH  24  29
ENDBRANCH   6  24
ENDBRANCH  20  21
ENDBRANCH  10  20
TORSDOF 8
ENDMDL
MODEL 3
REMARK VINA RESULT:      -5.7      1.382      1.871
REMARK  Name = 11883170
REMARK  10 active torsions:
REMARK  status: ('A' for Active; 'I' for Inactive)
REMARK    1  A    between atoms: O_2  and  C_12
REMARK    2  A    between atoms: O_3  and  C_17
REMARK    3  A    between atoms: N_6  and  C_24
REMARK    4  A    between atoms: C_7  and  C_15
REMARK    5  A    between atoms: C_9  and  C_17
REMARK    6  A    between atoms: C_9  and  C_18
REMARK    7  A    between atoms: C_10  and  C_20
REMARK    8  A    between atoms: C_20  and  C_21
REMARK    9  A    between atoms: C_22  and  C_23
REMARK   10  A    between atoms: C_24  and  C_29
REMARK                            x       y       z     vdW  Elec       q    Type
REMARK                         _______ _______ _______ _____ _____    ______ ____
ROOT
ATOM      1  S   UNL     1      -7.910  -9.628  12.353  0.00  0.00    -0.072 S 
ATOM      5  N   UNL     1      -6.211  -9.951  14.277  0.00  0.00    -0.243 NA
ATOM      7  C   UNL     1      -9.174  -9.842  16.740  0.00  0.00    -0.020 C 
ATOM      8  C   UNL     1     -10.179 -10.480  15.682  0.00  0.00    +0.011 C 
ATOM      9  C   UNL     1     -11.695 -10.586  16.108  0.00  0.00    +0.021 C 
ATOM     10  C   UNL     1      -7.687 -10.230  16.304  0.00  0.00    +0.053 C 
ATOM     11  C   UNL     1      -9.446 -10.451  18.141  0.00  0.00    +0.010 C 
ATOM     12  C   UNL     1     -11.782 -11.169  17.547  0.00  0.00    +0.123 C 
ATOM     13  C   UNL     1      -9.968  -9.877  14.263  0.00  0.00    +0.049 C 
ATOM     14  C   UNL     1     -10.911 -10.424  18.552  0.00  0.00    +0.032 C 
ATOM     15  C   UNL     1      -9.299  -8.301  16.836  0.00  0.00    +0.012 C 
ATOM     16  C   UNL     1      -7.477  -9.994  14.830  0.00  0.00    +0.056 A 
ATOM     18  C   UNL     1     -12.419 -11.583  15.160  0.00  0.00    +0.016 C 
ATOM     19  C   UNL     1      -8.514  -9.856  13.929  0.00  0.00    +0.014 A 
ATOM     22  C   UNL     1      -6.316  -9.755  12.981  0.00  0.00    +0.109 A 
ENDROOT
BRANCH  22  23
ATOM     23  C   UNL     1      -5.204  -9.646  12.067  0.00  0.00    +0.007 A 
ATOM     25  C   UNL     1      -5.314  -8.848  10.928  0.00  0.00    +0.010 A 
ATOM     26  C   UNL     1      -4.020 -10.338  12.323  0.00  0.00    +0.010 A 
ATOM     27  C   UNL     1      -4.240  -8.743  10.045  0.00  0.00    +0.001 A 
ATOM     28  C   UNL     1      -2.947 -10.233  11.440  0.00  0.00    +0.001 A 
ATOM     30  C   UNL     1      -3.056  -9.435  10.300  0.00  0.00    +0.000 A 
ENDBRANCH  22  23
BRANCH  12   2
ATOM      2  O   UNL     1     -13.132 -11.157  18.012  0.00  0.00    -0.391 OA
ATOM     32  H   UNL     1     -13.170 -10.607  18.811  0.00  0.00    +0.210 HD
ENDBRANCH  12   2
BRANCH   9  17
ATOM     17  C   UNL     1     -12.484  -9.262  16.001  0.00  0.00    +0.165 C 
BRANCH  17   3
ATOM      3  O   UNL     1     -13.468  -9.427  15.004  0.00  0.00    -0.394 OA
ATOM     33  H   UNL     1     -14.266  -8.949  15.287  0.00  0.00    +0.209 HD
ENDBRANCH  17   3
ENDBRANCH   9  17
BRANCH  10  20
ATOM     20  C   UNL     1      -6.583  -9.568  17.141  0.00  0.00    +0.106 C 
BRANCH  20  21
ATOM      4  O   UNL     1      -5.582 -11.401  18.363  0.00  0.00    -0.276 OA
ATOM      6  N   UNL     1      -4.359 -10.323  16.707  0.00  0.00    -0.304 N 
ATOM     21  C   UNL     1      -5.481 -10.540  17.493  0.00  0.00    +0.214 C 
ATOM     34  H   UNL     1      -4.383  -9.618  15.976  0.00  0.00    +0.150 HD
BRANCH   6  24
ATOM     24  C   UNL     1      -3.148 -11.104  16.825  0.00  0.00    +0.193 C 
BRANCH  24  29
ATOM     29  C   UNL     1      -2.065 -10.521  16.034  0.00  0.00    -0.087 C 
ATOM     31  C   UNL     1      -1.176 -10.046  15.382  0.00  0.00    +0.005 C 
ENDBRANCH  24  29
ENDBRANCH   6  24
ENDBRANCH  20  21
ENDBRANCH  10  20
TORSDOF 8
ENDMDL
MODEL 4
REMARK VINA RESULT:      -5.7     25.764     29.021
REMARK  Name = 11883170
REMARK  10 active torsions:
REMARK  status: ('A' for Active; 'I' for Inactive)
REMARK    1  A    between atoms: O_2  and  C_12
REMARK    2  A    between atoms: O_3  and  C_17
REMARK    3  A    between atoms: N_6  and  C_24
REMARK    4  A    between atoms: C_7  and  C_15
REMARK    5  A    between atoms: C_9  and  C_17
REMARK    6  A    between atoms: C_9  and  C_18
REMARK    7  A    between atoms: C_10  and  C_20
REMARK    8  A    between atoms: C_20  and  C_21
REMARK    9  A    between atoms: C_22  and  C_23
REMARK   10  A    between atoms: C_24  and  C_29
REMARK                            x       y       z     vdW  Elec       q    Type
REMARK                         _______ _______ _______ _____ _____    ______ ____
ROOT
ATOM      1  S   UNL     1       9.934   5.063   3.298  0.00  0.00    -0.072 S 
ATOM      5  N   UNL     1      12.048   6.366   4.023  0.00  0.00    -0.243 NA
ATOM      7  C   UNL     1      13.842   4.921   0.931  0.00  0.00    -0.020 C 
ATOM      8  C   UNL     1      12.497   4.861   0.081  0.00  0.00    +0.011 C 
ATOM      9  C   UNL     1      12.583   4.196  -1.347  0.00  0.00    +0.021 C 
ATOM     10  C   UNL     1      13.639   5.990   2.101  0.00  0.00    +0.053 C 
ATOM     11  C   UNL     1      15.004   5.404   0.025  0.00  0.00    +0.010 C 
ATOM     12  C   UNL     1      13.823   4.755  -2.099  0.00  0.00    +0.123 C 
ATOM     13  C   UNL     1      11.304   4.350   0.940  0.00  0.00    +0.049 C 
ATOM     14  C   UNL     1      15.113   4.651  -1.293  0.00  0.00    +0.032 C 
ATOM     15  C   UNL     1      14.228   3.552   1.545  0.00  0.00    +0.012 C 
ATOM     16  C   UNL     1      12.318   5.787   2.797  0.00  0.00    +0.056 A 
ATOM     18  C   UNL     1      11.324   4.597  -2.168  0.00  0.00    +0.016 C 
ATOM     19  C   UNL     1      11.277   5.062   2.250  0.00  0.00    +0.014 A 
ATOM     22  C   UNL     1      10.826   6.047   4.388  0.00  0.00    +0.109 A 
ENDROOT
BRANCH  22  23
ATOM     23  C   UNL     1      10.194   6.462   5.617  0.00  0.00    +0.007 A 
ATOM     25  C   UNL     1       9.267   7.504   5.606  0.00  0.00    +0.010 A 
ATOM     26  C   UNL     1      10.512   5.823   6.815  0.00  0.00    +0.010 A 
ATOM     27  C   UNL     1       8.656   7.906   6.794  0.00  0.00    +0.001 A 
ATOM     28  C   UNL     1       9.902   6.226   8.003  0.00  0.00    +0.001 A 
ATOM     30  C   UNL     1       8.974   7.267   7.993  0.00  0.00    +0.000 A 
ENDBRANCH  22  23
BRANCH  12   2
ATOM      2  O   UNL     1      14.003   4.080  -3.344  0.00  0.00    -0.391 OA
ATOM     32  H   UNL     1      14.928   4.194  -3.616  0.00  0.00    +0.210 HD
ENDBRANCH  12   2
BRANCH   9  17
ATOM     17  C   UNL     1      12.596   2.651  -1.335  0.00  0.00    +0.165 C 
BRANCH  17   3
ATOM      3  O   UNL     1      11.887   2.205  -2.469  0.00  0.00    -0.394 OA
ATOM     33  H   UNL     1      11.042   2.684  -2.504  0.00  0.00    +0.209 HD
ENDBRANCH  17   3
ENDBRANCH   9  17
BRANCH  10  20
ATOM     20  C   UNL     1      14.797   6.064   3.106  0.00  0.00    +0.106 C 
BRANCH  20  21
ATOM      4  O   UNL     1      14.788   8.478   3.276  0.00  0.00    -0.276 OA
ATOM      6  N   UNL     1      14.906   7.193   5.209  0.00  0.00    -0.304 N 
ATOM     21  C   UNL     1      14.827   7.386   3.837  0.00  0.00    +0.214 C 
ATOM     34  H   UNL     1      14.884   6.251   5.588  0.00  0.00    +0.150 HD
BRANCH   6  24
ATOM     24  C   UNL     1      14.954   8.281   6.159  0.00  0.00    +0.193 C 
BRANCH  24  29
ATOM     29  C   UNL     1      13.611   8.643   6.613  0.00  0.00    -0.087 C 
ATOM     31  C   UNL     1      12.511   8.944   6.987  0.00  0.00    +0.005 C 
ENDBRANCH  24  29
ENDBRANCH   6  24
ENDBRANCH  20  21
ENDBRANCH  10  20
TORSDOF 8
ENDMDL
MODEL 5
REMARK VINA RESULT:      -5.6     26.688     31.274
REMARK  Name = 11883170
REMARK  10 active torsions:
REMARK  status: ('A' for Active; 'I' for Inactive)
REMARK    1  A    between atoms: O_2  and  C_12
REMARK    2  A    between atoms: O_3  and  C_17
REMARK    3  A    between atoms: N_6  and  C_24
REMARK    4  A    between atoms: C_7  and  C_15
REMARK    5  A    between atoms: C_9  and  C_17
REMARK    6  A    between atoms: C_9  and  C_18
REMARK    7  A    between atoms: C_10  and  C_20
REMARK    8  A    between atoms: C_20  and  C_21
REMARK    9  A    between atoms: C_22  and  C_23
REMARK   10  A    between atoms: C_24  and  C_29
REMARK                            x       y       z     vdW  Elec       q    Type
REMARK                         _______ _______ _______ _____ _____    ______ ____
ROOT
ATOM      1  S   UNL     1      13.682   8.055   6.678  0.00  0.00    -0.072 S 
ATOM      5  N   UNL     1      13.506   7.045   4.303  0.00  0.00    -0.243 NA
ATOM      7  C   UNL     1      16.943   8.608   3.523  0.00  0.00    -0.020 C 
ATOM      8  C   UNL     1      17.433   8.477   5.033  0.00  0.00    +0.011 C 
ATOM      9  C   UNL     1      18.837   9.104   5.386  0.00  0.00    +0.021 C 
ATOM     10  C   UNL     1      15.761   7.557   3.295  0.00  0.00    +0.053 C 
ATOM     11  C   UNL     1      18.110   8.246   2.568  0.00  0.00    +0.010 C 
ATOM     12  C   UNL     1      19.874   8.680   4.309  0.00  0.00    +0.123 C 
ATOM     13  C   UNL     1      16.305   8.862   6.033  0.00  0.00    +0.049 C 
ATOM     14  C   UNL     1      19.413   8.967   2.884  0.00  0.00    +0.032 C 
ATOM     15  C   UNL     1      16.441  10.032   3.176  0.00  0.00    +0.012 C 
ATOM     16  C   UNL     1      14.759   7.617   4.419  0.00  0.00    +0.056 A 
ATOM     18  C   UNL     1      19.321   8.527   6.747  0.00  0.00    +0.016 C 
ATOM     19  C   UNL     1      15.030   8.191   5.646  0.00  0.00    +0.014 A 
ATOM     22  C   UNL     1      12.849   7.222   5.428  0.00  0.00    +0.109 A 
ENDROOT
BRANCH  22  23
ATOM     23  C   UNL     1      11.502   6.768   5.680  0.00  0.00    +0.007 A 
ATOM     25  C   UNL     1      10.894   5.870   4.803  0.00  0.00    +0.010 A 
ATOM     26  C   UNL     1      10.808   7.229   6.799  0.00  0.00    +0.010 A 
ATOM     27  C   UNL     1       9.593   5.431   5.046  0.00  0.00    +0.001 A 
ATOM     28  C   UNL     1       9.507   6.791   7.041  0.00  0.00    +0.001 A 
ATOM     30  C   UNL     1       8.899   5.892   6.165  0.00  0.00    +0.000 A 
ENDBRANCH  22  23
BRANCH  12   2
ATOM      2  O   UNL     1      21.123   9.335   4.528  0.00  0.00    -0.391 OA
ATOM     32  H   UNL     1      20.939  10.222   4.877  0.00  0.00    +0.210 HD
ENDBRANCH  12   2
BRANCH   9  17
ATOM     17  C   UNL     1      18.826  10.638   5.566  0.00  0.00    +0.165 C 
BRANCH  17   3
ATOM      3  O   UNL     1      19.798  10.966   6.533  0.00  0.00    -0.394 OA
ATOM     33  H   UNL     1      20.584  11.301   6.069  0.00  0.00    +0.209 HD
ENDBRANCH  17   3
ENDBRANCH   9  17
BRANCH  10  20
ATOM     20  C   UNL     1      15.075   7.656   1.926  0.00  0.00    +0.106 C 
BRANCH  20  21
ATOM      4  O   UNL     1      15.003   6.213  -0.014  0.00  0.00    -0.276 OA
ATOM      6  N   UNL     1      15.088   5.274   2.110  0.00  0.00    -0.304 N 
ATOM     21  C   UNL     1      15.051   6.328   1.207  0.00  0.00    +0.214 C 
ATOM     34  H   UNL     1      15.177   5.465   3.104  0.00  0.00    +0.150 HD
BRANCH   6  24
ATOM     24  C   UNL     1      15.074   3.887   1.706  0.00  0.00    +0.193 C 
BRANCH  24  29
ATOM     29  C   UNL     1      13.706   3.381   1.607  0.00  0.00    -0.087 C 
ATOM     31  C   UNL     1      12.582   2.965   1.530  0.00  0.00    +0.005 C 
ENDBRANCH  24  29
ENDBRANCH   6  24
ENDBRANCH  20  21
ENDBRANCH  10  20
TORSDOF 8
ENDMDL
MODEL 6
REMARK VINA RESULT:      -5.6      4.042      7.421
REMARK  Name = 11883170
REMARK  10 active torsions:
REMARK  status: ('A' for Active; 'I' for Inactive)
REMARK    1  A    between atoms: O_2  and  C_12
REMARK    2  A    between atoms: O_3  and  C_17
REMARK    3  A    between atoms: N_6  and  C_24
REMARK    4  A    between atoms: C_7  and  C_15
REMARK    5  A    between atoms: C_9  and  C_17
REMARK    6  A    between atoms: C_9  and  C_18
REMARK    7  A    between atoms: C_10  and  C_20
REMARK    8  A    between atoms: C_20  and  C_21
REMARK    9  A    between atoms: C_22  and  C_23
REMARK   10  A    between atoms: C_24  and  C_29
REMARK                            x       y       z     vdW  Elec       q    Type
REMARK                         _______ _______ _______ _____ _____    ______ ____
ROOT
ATOM      1  S   UNL     1      -7.231 -10.395  14.023  0.00  0.00    -0.072 S 
ATOM      5  N   UNL     1      -4.748 -10.999  13.615  0.00  0.00    -0.243 NA
ATOM      7  C   UNL     1      -5.444 -10.757   9.831  0.00  0.00    -0.020 C 
ATOM      8  C   UNL     1      -6.566  -9.645  10.028  0.00  0.00    +0.011 C 
ATOM      9  C   UNL     1      -7.361  -9.193   8.742  0.00  0.00    +0.021 C 
ATOM     10  C   UNL     1      -4.498 -10.738  11.118  0.00  0.00    +0.053 C 
ATOM     11  C   UNL     1      -4.585 -10.409   8.588  0.00  0.00    +0.010 C 
ATOM     12  C   UNL     1      -6.356  -8.930   7.586  0.00  0.00    +0.123 C 
ATOM     13  C   UNL     1      -7.478  -9.967  11.247  0.00  0.00    +0.049 C 
ATOM     14  C   UNL     1      -5.400 -10.093   7.342  0.00  0.00    +0.032 C 
ATOM     15  C   UNL     1      -6.033 -12.178   9.644  0.00  0.00    +0.012 C 
ATOM     16  C   UNL     1      -5.311 -10.707  12.387  0.00  0.00    +0.056 A 
ATOM     18  C   UNL     1      -8.086  -7.850   9.040  0.00  0.00    +0.016 C 
ATOM     19  C   UNL     1      -6.642 -10.340  12.425  0.00  0.00    +0.014 A 
ATOM     22  C   UNL     1      -5.667 -10.875  14.548  0.00  0.00    +0.109 A 
ENDROOT
BRANCH  22  23
ATOM     23  C   UNL     1      -5.454 -11.108  15.956  0.00  0.00    +0.007 A 
ATOM     25  C   UNL     1      -5.643 -10.071  16.870  0.00  0.00    +0.010 A 
ATOM     26  C   UNL     1      -5.058 -12.369  16.402  0.00  0.00    +0.010 A 
ATOM     27  C   UNL     1      -5.436 -10.296  18.231  0.00  0.00    +0.001 A 
ATOM     28  C   UNL     1      -4.850 -12.592  17.763  0.00  0.00    +0.001 A 
ATOM     30  C   UNL     1      -5.040 -11.556  18.678  0.00  0.00    +0.000 A 
ENDBRANCH  22  23
BRANCH  12   2
ATOM      2  O   UNL     1      -7.050  -8.645   6.372  0.00  0.00    -0.391 OA
ATOM     32  H   UNL     1      -7.459  -7.768   6.458  0.00  0.00    +0.210 HD
ENDBRANCH  12   2
BRANCH   9  17
ATOM     17  C   UNL     1      -8.468 -10.174   8.297  0.00  0.00    +0.165 C 
BRANCH  17   3
ATOM      3  O   UNL     1      -9.516  -9.415   7.735  0.00  0.00    -0.394 OA
ATOM     33  H   UNL     1     -10.311  -9.973   7.708  0.00  0.00    +0.209 HD
ENDBRANCH  17   3
ENDBRANCH   9  17
BRANCH  10  20
ATOM     20  C   UNL     1      -3.446 -11.855  11.154  0.00  0.00    +0.106 C 
BRANCH  20  21
ATOM      4  O   UNL     1      -1.535 -10.553  11.864  0.00  0.00    -0.276 OA
ATOM      6  N   UNL     1      -2.183 -12.408  13.105  0.00  0.00    -0.304 N 
ATOM     21  C   UNL     1      -2.283 -11.508  12.054  0.00  0.00    +0.214 C 
ATOM     34  H   UNL     1      -2.878 -13.141  13.209  0.00  0.00    +0.150 HD
BRANCH   6  24
ATOM     24  C   UNL     1      -1.160 -12.324  14.122  0.00  0.00    +0.193 C 
BRANCH  24  29
ATOM     29  C   UNL     1      -1.525 -11.358  15.158  0.00  0.00    -0.087 C 
ATOM     31  C   UNL     1      -1.824 -10.562  16.005  0.00  0.00    +0.005 C 
ENDBRANCH  24  29
ENDBRANCH   6  24
ENDBRANCH  20  21
ENDBRANCH  10  20
TORSDOF 8
ENDMDL
MODEL 7
REMARK VINA RESULT:      -5.6     28.789     30.772
REMARK  Name = 11883170
REMARK  10 active torsions:
REMARK  status: ('A' for Active; 'I' for Inactive)
REMARK    1  A    between atoms: O_2  and  C_12
REMARK    2  A    between atoms: O_3  and  C_17
REMARK    3  A    between atoms: N_6  and  C_24
REMARK    4  A    between atoms: C_7  and  C_15
REMARK    5  A    between atoms: C_9  and  C_17
REMARK    6  A    between atoms: C_9  and  C_18
REMARK    7  A    between atoms: C_10  and  C_20
REMARK    8  A    between atoms: C_20  and  C_21
REMARK    9  A    between atoms: C_22  and  C_23
REMARK   10  A    between atoms: C_24  and  C_29
REMARK                            x       y       z     vdW  Elec       q    Type
REMARK                         _______ _______ _______ _____ _____    ______ ____
ROOT
ATOM      1  S   UNL     1      17.788  -4.277  -2.452  0.00  0.00    -0.072 S 
ATOM      5  N   UNL     1      18.141  -6.830  -2.222  0.00  0.00    -0.243 NA
ATOM      7  C   UNL     1      15.122  -7.328  -4.569  0.00  0.00    -0.020 C 
ATOM      8  C   UNL     1      15.410  -5.973  -5.354  0.00  0.00    +0.011 C 
ATOM      9  C   UNL     1      14.357  -5.543  -6.448  0.00  0.00    +0.021 C 
ATOM     10  C   UNL     1      16.481  -7.787  -3.863  0.00  0.00    +0.053 C 
ATOM     11  C   UNL     1      14.699  -8.429  -5.575  0.00  0.00    +0.010 C 
ATOM     12  C   UNL     1      14.011  -6.770  -7.337  0.00  0.00    +0.123 C 
ATOM     13  C   UNL     1      15.809  -4.825  -4.382  0.00  0.00    +0.049 C 
ATOM     14  C   UNL     1      13.598  -7.998  -6.534  0.00  0.00    +0.032 C 
ATOM     15  C   UNL     1      14.011  -7.179  -3.500  0.00  0.00    +0.012 C 
ATOM     16  C   UNL     1      17.140  -6.631  -3.154  0.00  0.00    +0.056 A 
ATOM     18  C   UNL     1      14.996  -4.467  -7.371  0.00  0.00    +0.016 C 
ATOM     19  C   UNL     1      16.836  -5.310  -3.416  0.00  0.00    +0.014 A 
ATOM     22  C   UNL     1      18.551  -5.662  -1.779  0.00  0.00    +0.109 A 
ENDROOT
BRANCH  22  23
ATOM     23  C   UNL     1      19.582  -5.468  -0.788  0.00  0.00    +0.007 A 
ATOM     25  C   UNL     1      19.239  -5.081   0.508  0.00  0.00    +0.010 A 
ATOM     26  C   UNL     1      20.921  -5.667  -1.126  0.00  0.00    +0.010 A 
ATOM     27  C   UNL     1      20.234  -4.893   1.466  0.00  0.00    +0.001 A 
ATOM     28  C   UNL     1      21.916  -5.479  -0.167  0.00  0.00    +0.001 A 
ATOM     30  C   UNL     1      21.574  -5.092   1.129  0.00  0.00    +0.000 A 
ENDBRANCH  22  23
BRANCH  12   2
ATOM      2  O   UNL     1      12.966  -6.448  -8.254  0.00  0.00    -0.391 OA
ATOM     32  H   UNL     1      12.124  -6.473  -7.771  0.00  0.00    +0.210 HD
ENDBRANCH  12   2
BRANCH   9  17
ATOM     17  C   UNL     1      13.074  -4.895  -5.881  0.00  0.00    +0.165 C 
BRANCH  17   3
ATOM      3  O   UNL     1      12.514  -4.089  -6.894  0.00  0.00    -0.394 OA
ATOM     33  H   UNL     1      13.224  -3.541  -7.269  0.00  0.00    +0.209 HD
ENDBRANCH  17   3
ENDBRANCH   9  17
BRANCH  10  20
ATOM     20  C   UNL     1      16.341  -9.005  -2.940  0.00  0.00    +0.106 C 
BRANCH  20  21
ATOM      4  O   UNL     1      18.344 -10.209  -3.565  0.00  0.00    -0.276 OA
ATOM      6  N   UNL     1      18.010  -9.615  -1.343  0.00  0.00    -0.304 N 
ATOM     21  C   UNL     1      17.669  -9.679  -2.687  0.00  0.00    +0.214 C 
ATOM     34  H   UNL     1      17.411  -9.112  -0.694  0.00  0.00    +0.150 HD
BRANCH   6  24
ATOM     24  C   UNL     1      19.228 -10.180  -0.809  0.00  0.00    +0.193 C 
BRANCH  24  29
ATOM     29  C   UNL     1      19.776  -9.341   0.256  0.00  0.00    -0.087 C 
ATOM     31  C   UNL     1      20.229  -8.653   1.129  0.00  0.00    +0.005 C 
ENDBRANCH  24  29
ENDBRANCH   6  24
ENDBRANCH  20  21
ENDBRANCH  10  20
TORSDOF 8
ENDMDL
MODEL 8
REMARK VINA RESULT:      -5.5      2.659      5.640
REMARK  Name = 11883170
REMARK  10 active torsions:
REMARK  status: ('A' for Active; 'I' for Inactive)
REMARK    1  A    between atoms: O_2  and  C_12
REMARK    2  A    between atoms: O_3  and  C_17
REMARK    3  A    between atoms: N_6  and  C_24
REMARK    4  A    between atoms: C_7  and  C_15
REMARK    5  A    between atoms: C_9  and  C_17
REMARK    6  A    between atoms: C_9  and  C_18
REMARK    7  A    between atoms: C_10  and  C_20
REMARK    8  A    between atoms: C_20  and  C_21
REMARK    9  A    between atoms: C_22  and  C_23
REMARK   10  A    between atoms: C_24  and  C_29
REMARK                            x       y       z     vdW  Elec       q    Type
REMARK                         _______ _______ _______ _____ _____    ______ ____
ROOT
ATOM      1  S   UNL     1      -5.933 -10.540  12.851  0.00  0.00    -0.072 S 
ATOM      5  N   UNL     1      -8.212  -9.404  13.307  0.00  0.00    -0.243 NA
ATOM      7  C   UNL     1      -8.069 -10.844  16.881  0.00  0.00    -0.020 C 
ATOM      8  C   UNL     1      -6.479 -10.785  16.925  0.00  0.00    +0.011 C 
ATOM      9  C   UNL     1      -5.775 -11.400  18.197  0.00  0.00    +0.021 C 
ATOM     10  C   UNL     1      -8.570  -9.809  15.772  0.00  0.00    +0.053 C 
ATOM     11  C   UNL     1      -8.641 -10.403  18.253  0.00  0.00    +0.010 C 
ATOM     12  C   UNL     1      -6.498 -10.894  19.477  0.00  0.00    +0.123 C 
ATOM     13  C   UNL     1      -5.854 -11.250  15.578  0.00  0.00    +0.049 C 
ATOM     14  C   UNL     1      -8.006 -11.112  19.442  0.00  0.00    +0.032 C 
ATOM     15  C   UNL     1      -8.610 -12.257  16.549  0.00  0.00    +0.012 C 
ATOM     16  C   UNL     1      -7.776  -9.953  14.498  0.00  0.00    +0.056 A 
ATOM     18  C   UNL     1      -4.308 -10.888  18.261  0.00  0.00    +0.016 C 
ATOM     19  C   UNL     1      -6.551 -10.588  14.438  0.00  0.00    +0.014 A 
ATOM     22  C   UNL     1      -7.326  -9.657  12.369  0.00  0.00    +0.109 A 
ENDROOT
BRANCH  22  23
ATOM     23  C   UNL     1      -7.441  -9.249  10.990  0.00  0.00    +0.007 A 
ATOM     25  C   UNL     1      -8.692  -9.218  10.374  0.00  0.00    +0.010 A 
ATOM     26  C   UNL     1      -6.301  -8.886  10.273  0.00  0.00    +0.010 A 
ATOM     27  C   UNL     1      -8.804  -8.823   9.042  0.00  0.00    +0.001 A 
ATOM     28  C   UNL     1      -6.413  -8.492   8.940  0.00  0.00    +0.001 A 
ATOM     30  C   UNL     1      -7.664  -8.460   8.323  0.00  0.00    +0.000 A 
ENDBRANCH  22  23
BRANCH  12   2
ATOM      2  O   UNL     1      -5.969 -11.532  20.638  0.00  0.00    -0.391 OA
ATOM     32  H   UNL     1      -5.056 -11.223  20.761  0.00  0.00    +0.210 HD
ENDBRANCH  12   2
BRANCH   9  17
ATOM     17  C   UNL     1      -5.678 -12.942  18.193  0.00  0.00    +0.165 C 
BRANCH  17   3
ATOM      3  O   UNL     1      -4.395 -13.294  18.659  0.00  0.00    -0.394 OA
ATOM     33  H   UNL     1      -4.412 -13.275  19.631  0.00  0.00    +0.209 HD
ENDBRANCH  17   3
ENDBRANCH   9  17
BRANCH  10  20
ATOM     20  C   UNL     1     -10.080  -9.847  15.498  0.00  0.00    +0.106 C 
BRANCH  20  21
ATOM      4  O   UNL     1     -11.686  -8.598  16.807  0.00  0.00    -0.276 OA
ATOM      6  N   UNL     1     -10.247  -7.467  15.375  0.00  0.00    -0.304 N 
ATOM     21  C   UNL     1     -10.775  -8.597  15.984  0.00  0.00    +0.214 C 
ATOM     34  H   UNL     1      -9.459  -7.558  14.741  0.00  0.00    +0.150 HD
BRANCH   6  24
ATOM     24  C   UNL     1     -10.720  -6.129  15.646  0.00  0.00    +0.193 C 
BRANCH  24  29
ATOM     29  C   UNL     1     -11.819  -5.767  14.751  0.00  0.00    -0.087 C 
ATOM     31  C   UNL     1     -12.723  -5.474  14.017  0.00  0.00    +0.005 C 
ENDBRANCH  24  29
ENDBRANCH   6  24
ENDBRANCH  20  21
ENDBRANCH  10  20
TORSDOF 8
ENDMDL
MODEL 9
REMARK VINA RESULT:      -5.5     24.735     29.013
REMARK  Name = 11883170
REMARK  10 active torsions:
REMARK  status: ('A' for Active; 'I' for Inactive)
REMARK    1  A    between atoms: O_2  and  C_12
REMARK    2  A    between atoms: O_3  and  C_17
REMARK    3  A    between atoms: N_6  and  C_24
REMARK    4  A    between atoms: C_7  and  C_15
REMARK    5  A    between atoms: C_9  and  C_17
REMARK    6  A    between atoms: C_9  and  C_18
REMARK    7  A    between atoms: C_10  and  C_20
REMARK    8  A    between atoms: C_20  and  C_21
REMARK    9  A    between atoms: C_22  and  C_23
REMARK   10  A    between atoms: C_24  and  C_29
REMARK                            x       y       z     vdW  Elec       q    Type
REMARK                         _______ _______ _______ _____ _____    ______ ____
ROOT
ATOM      1  S   UNL     1      12.626  11.212   7.836  0.00  0.00    -0.072 S 
ATOM      5  N   UNL     1      10.718   9.465   7.828  0.00  0.00    -0.243 NA
ATOM      7  C   UNL     1      12.193   8.059   4.556  0.00  0.00    -0.020 C 
ATOM      8  C   UNL     1      13.680   8.458   4.962  0.00  0.00    +0.011 C 
ATOM      9  C   UNL     1      14.806   8.218   3.883  0.00  0.00    +0.021 C 
ATOM     10  C   UNL     1      11.324   7.964   5.893  0.00  0.00    +0.053 C 
ATOM     11  C   UNL     1      12.200   6.663   3.879  0.00  0.00    +0.010 C 
ATOM     12  C   UNL     1      14.638   6.797   3.275  0.00  0.00    +0.123 C 
ATOM     13  C   UNL     1      13.731   9.868   5.619  0.00  0.00    +0.049 C 
ATOM     14  C   UNL     1      13.228   6.523   2.765  0.00  0.00    +0.032 C 
ATOM     15  C   UNL     1      11.540   9.076   3.588  0.00  0.00    +0.012 C 
ATOM     16  C   UNL     1      11.567   9.157   6.782  0.00  0.00    +0.056 A 
ATOM     18  C   UNL     1      16.194   8.263   4.581  0.00  0.00    +0.016 C 
ATOM     19  C   UNL     1      12.662   9.988   6.652  0.00  0.00    +0.014 A 
ATOM     22  C   UNL     1      11.171  10.533   8.448  0.00  0.00    +0.109 A 
ENDROOT
BRANCH  22  23
ATOM     23  C   UNL     1      10.544  11.157   9.587  0.00  0.00    +0.007 A 
ATOM     25  C   UNL     1      11.328  11.771  10.565  0.00  0.00    +0.010 A 
ATOM     26  C   UNL     1       9.155  11.147   9.712  0.00  0.00    +0.010 A 
ATOM     27  C   UNL     1      10.722  12.374  11.667  0.00  0.00    +0.001 A 
ATOM     28  C   UNL     1       8.549  11.750  10.814  0.00  0.00    +0.001 A 
ATOM     30  C   UNL     1       9.332  12.364  11.792  0.00  0.00    +0.000 A 
ENDBRANCH  22  23
BRANCH  12   2
ATOM      2  O   UNL     1      15.561   6.597   2.205  0.00  0.00    -0.391 OA
ATOM     32  H   UNL     1      15.571   5.649   1.991  0.00  0.00    +0.210 HD
ENDBRANCH  12   2
BRANCH   9  17
ATOM     17  C   UNL     1      14.865   9.289   2.771  0.00  0.00    +0.165 C 
BRANCH  17   3
ATOM      3  O   UNL     1      16.177   9.303   2.255  0.00  0.00    -0.394 OA
ATOM     33  H   UNL     1      16.120   9.265   1.285  0.00  0.00    +0.209 HD
ENDBRANCH  17   3
ENDBRANCH   9  17
BRANCH  10  20
ATOM     20  C   UNL     1       9.825   7.730   5.666  0.00  0.00    +0.106 C 
BRANCH  20  21
ATOM      4  O   UNL     1       8.545   5.691   5.428  0.00  0.00    -0.276 OA
ATOM      6  N   UNL     1      10.133   5.857   7.116  0.00  0.00    -0.304 N 
ATOM     21  C   UNL     1       9.410   6.323   6.028  0.00  0.00    +0.214 C 
ATOM     34  H   UNL     1      10.866   6.433   7.519  0.00  0.00    +0.150 HD
BRANCH   6  24
ATOM     24  C   UNL     1       9.946   4.541   7.684  0.00  0.00    +0.193 C 
BRANCH  24  29
ATOM     29  C   UNL     1       9.448   4.626   9.057  0.00  0.00    -0.087 C 
ATOM     31  C   UNL     1       9.043   4.695  10.185  0.00  0.00    +0.005 C 
ENDBRANCH  24  29
ENDBRANCH   6  24
ENDBRANCH  20  21
ENDBRANCH  10  20
TORSDOF 8
ENDMDL
MODEL 10
REMARK VINA RESULT:      -5.5     24.543     27.264
REMARK  Name = 11883170
REMARK  10 active torsions:
REMARK  status: ('A' for Active; 'I' for Inactive)
REMARK    1  A    between atoms: O_2  and  C_12
REMARK    2  A    between atoms: O_3  and  C_17
REMARK    3  A    between atoms: N_6  and  C_24
REMARK    4  A    between atoms: C_7  and  C_15
REMARK    5  A    between atoms: C_9  and  C_17
REMARK    6  A    between atoms: C_9  and  C_18
REMARK    7  A    between atoms: C_10  and  C_20
REMARK    8  A    between atoms: C_20  and  C_21
REMARK    9  A    between atoms: C_22  and  C_23
REMARK   10  A    between atoms: C_24  and  C_29
REMARK                            x       y       z     vdW  Elec       q    Type
REMARK                         _______ _______ _______ _____ _____    ______ ____
ROOT
ATOM      1  S   UNL     1     -14.257   5.053  34.503  0.00  0.00    -0.072 S 
ATOM      5  N   UNL     1     -13.719   6.348  32.329  0.00  0.00    -0.243 NA
ATOM      7  C   UNL     1     -12.534   9.287  34.526  0.00  0.00    -0.020 C 
ATOM      8  C   UNL     1     -12.053   8.321  35.697  0.00  0.00    +0.011 C 
ATOM      9  C   UNL     1     -11.539   9.004  37.023  0.00  0.00    +0.021 C 
ATOM     10  C   UNL     1     -12.583   8.437  33.174  0.00  0.00    +0.053 C 
ATOM     11  C   UNL     1     -11.504  10.432  34.345  0.00  0.00    +0.010 C 
ATOM     12  C   UNL     1     -10.556  10.153  36.659  0.00  0.00    +0.123 C 
ATOM     13  C   UNL     1     -13.072   7.170  35.939  0.00  0.00    +0.049 C 
ATOM     14  C   UNL     1     -11.128  11.134  35.642  0.00  0.00    +0.032 C 
ATOM     15  C   UNL     1     -13.926   9.911  34.794  0.00  0.00    +0.012 C 
ATOM     16  C   UNL     1     -13.275   7.115  33.390  0.00  0.00    +0.056 A 
ATOM     18  C   UNL     1     -10.742   7.960  37.854  0.00  0.00    +0.016 C 
ATOM     19  C   UNL     1     -13.467   6.557  34.638  0.00  0.00    +0.014 A 
ATOM     22  C   UNL     1     -14.260   5.245  32.796  0.00  0.00    +0.109 A 
ENDROOT
BRANCH  22  23
ATOM     23  C   UNL     1     -14.842   4.202  31.986  0.00  0.00    +0.007 A 
ATOM     25  C   UNL     1     -14.572   2.863  32.274  0.00  0.00    +0.010 A 
ATOM     26  C   UNL     1     -15.673   4.531  30.915  0.00  0.00    +0.010 A 
ATOM     27  C   UNL     1     -15.134   1.855  31.492  0.00  0.00    +0.001 A 
ATOM     28  C   UNL     1     -16.234   3.523  30.133  0.00  0.00    +0.001 A 
ATOM     30  C   UNL     1     -15.965   2.184  30.420  0.00  0.00    +0.000 A 
ENDBRANCH  22  23
BRANCH  12   2
ATOM      2  O   UNL     1     -10.172  10.875  37.829  0.00  0.00    -0.391 OA
ATOM     32  H   UNL     1      -9.853  10.235  38.486  0.00  0.00    +0.210 HD
ENDBRANCH  12   2
BRANCH   9  17
ATOM     17  C   UNL     1     -12.659   9.513  37.957  0.00  0.00    +0.165 C 
BRANCH  17   3
ATOM      3  O   UNL     1     -12.244   9.293  39.286  0.00  0.00    -0.394 OA
ATOM     33  H   UNL     1     -12.177   8.333  39.426  0.00  0.00    +0.209 HD
ENDBRANCH  17   3
ENDBRANCH   9  17
BRANCH  10  20
ATOM     20  C   UNL     1     -13.170   9.187  31.970  0.00  0.00    +0.106 C 
BRANCH  20  21
ATOM      4  O   UNL     1     -10.953   9.222  31.004  0.00  0.00    -0.276 OA
ATOM      6  N   UNL     1     -12.574  10.683  30.205  0.00  0.00    -0.304 N 
ATOM     21  C   UNL     1     -12.095   9.672  31.026  0.00  0.00    +0.214 C 
ATOM     34  H   UNL     1     -13.550  10.958  30.261  0.00  0.00    +0.150 HD
BRANCH   6  24
ATOM     24  C   UNL     1     -11.764  11.338  29.204  0.00  0.00    +0.193 C 
BRANCH  24  29
ATOM     29  C   UNL     1     -11.457  10.432  28.098  0.00  0.00    -0.087 C 
ATOM     31  C   UNL     1     -11.209   9.686  27.190  0.00  0.00    +0.005 C 
ENDBRANCH  24  29
ENDBRANCH   6  24
ENDBRANCH  20  21
ENDBRANCH  10  20
TORSDOF 8
ENDMDL
