MODEL 1
REMARK VINA RESULT:      -7.1      0.000      0.000
REMARK  Name = 11885119
REMARK  4 active torsions:
REMARK  status: ('A' for Active; 'I' for Inactive)
REMARK    1  A    between atoms: O_4  and  C_30
REMARK    2  A    between atoms: O_4  and  C_31
REMARK    3  A    between atoms: C_16  and  C_19
REMARK    4  A    between atoms: C_17  and  C_20
REMARK                            x       y       z     vdW  Elec       q    Type
REMARK                         _______ _______ _______ _____ _____    ______ ____
ROOT
ATOM      2  O   UNL     1     -13.035  10.037  20.510  0.00  0.00    -0.267 OA
ATOM      3  O   UNL     1     -14.385  11.968  15.981  0.00  0.00    -0.270 OA
ATOM      5  N   UNL     1     -12.054  11.759  15.952  0.00  0.00    -0.297 N 
ATOM      6  N   UNL     1     -11.542  10.396  18.755  0.00  0.00    -0.311 N 
ATOM      7  C   UNL     1     -10.920  12.742  17.935  0.00  0.00    +0.027 C 
ATOM      8  C   UNL     1      -9.958  10.762  16.832  0.00  0.00    +0.054 C 
ATOM      9  C   UNL     1      -9.610  12.091  17.502  0.00  0.00    +0.018 C 
ATOM     10  C   UNL     1     -11.826  12.988  16.714  0.00  0.00    +0.113 C 
ATOM     11  C   UNL     1     -11.592  11.848  18.984  0.00  0.00    +0.130 C 
ATOM     12  C   UNL     1     -10.833  11.022  15.589  0.00  0.00    +0.117 C 
ATOM     13  C   UNL     1     -10.696   9.846  17.789  0.00  0.00    +0.027 A 
ATOM     14  C   UNL     1     -10.574   8.514  17.679  0.00  0.00    +0.022 A 
ATOM     15  C   UNL     1     -12.304   9.591  19.623  0.00  0.00    +0.259 A 
ATOM     16  C   UNL     1     -13.362  11.353  15.678  0.00  0.00    +0.247 C 
ATOM     17  C   UNL     1     -12.181   8.102  19.445  0.00  0.00    +0.047 A 
ATOM     18  C   UNL     1     -11.334   7.631  18.519  0.00  0.00    +0.015 A 
ENDROOT
BRANCH  16  19
ATOM      1  F   UNL     1     -14.108   6.473  13.055  0.00  0.00    -0.205 F 
ATOM     19  C   UNL     1     -13.557  10.074  14.990  0.00  0.00    +0.037 A 
ATOM     21  C   UNL     1     -13.812   8.921  15.730  0.00  0.00    +0.016 A 
ATOM     22  C   UNL     1     -13.487  10.016  13.600  0.00  0.00    +0.016 A 
ATOM     25  C   UNL     1     -13.998   7.704  15.076  0.00  0.00    +0.039 A 
ATOM     26  C   UNL     1     -13.673   8.797  12.946  0.00  0.00    +0.039 A 
ATOM     29  C   UNL     1     -13.929   7.641  13.683  0.00  0.00    +0.123 A 
ENDBRANCH  16  19
BRANCH  17  20
ATOM     20  C   UNL     1     -12.985   7.169  20.254  0.00  0.00    -0.012 A 
ATOM     23  C   UNL     1     -14.367   7.102  20.074  0.00  0.00    +0.012 A 
ATOM     24  C   UNL     1     -12.364   6.351  21.199  0.00  0.00    +0.012 A 
ATOM     27  C   UNL     1     -15.128   6.219  20.840  0.00  0.00    +0.046 A 
ATOM     28  C   UNL     1     -13.125   5.468  21.964  0.00  0.00    +0.046 A 
ATOM     30  C   UNL     1     -14.507   5.402  21.785  0.00  0.00    +0.120 A 
BRANCH  30   4
ATOM      4  O   UNL     1     -15.250   4.540  22.532  0.00  0.00    -0.495 OA
ATOM     31  C   UNL     1     -14.955   4.470  23.926  0.00  0.00    +0.277 C 
ENDBRANCH  30   4
ENDBRANCH  17  20
TORSDOF 3
ENDMDL
MODEL 2
REMARK VINA RESULT:      -6.9     27.585     29.828
REMARK  Name = 11885119
REMARK  4 active torsions:
REMARK  status: ('A' for Active; 'I' for Inactive)
REMARK    1  A    between atoms: O_4  and  C_30
REMARK    2  A    between atoms: O_4  and  C_31
REMARK    3  A    between atoms: C_16  and  C_19
REMARK    4  A    between atoms: C_17  and  C_20
REMARK                            x       y       z     vdW  Elec       q    Type
REMARK                         _______ _______ _______ _____ _____    ______ ____
ROOT
ATOM      2  O   UNL     1      12.273   7.673   2.884  0.00  0.00    -0.267 OA
ATOM      3  O   UNL     1      13.758   6.808  -1.923  0.00  0.00    -0.270 OA
ATOM      5  N   UNL     1      13.965   4.776  -0.782  0.00  0.00    -0.297 N 
ATOM      6  N   UNL     1      12.823   5.565   2.055  0.00  0.00    -0.311 N 
ATOM      7  C   UNL     1      15.209   4.937   1.365  0.00  0.00    +0.027 C 
ATOM      8  C   UNL     1      13.391   3.294   1.125  0.00  0.00    +0.054 C 
ATOM      9  C   UNL     1      14.785   3.513   1.711  0.00  0.00    +0.018 C 
ATOM     10  C   UNL     1      15.243   5.129  -0.162  0.00  0.00    +0.113 C 
ATOM     11  C   UNL     1      14.251   5.918   2.051  0.00  0.00    +0.130 C 
ATOM     12  C   UNL     1      13.443   3.451  -0.408  0.00  0.00    +0.117 C 
ATOM     13  C   UNL     1      12.396   4.282   1.702  0.00  0.00    +0.027 A 
ATOM     14  C   UNL     1      11.103   3.944   1.830  0.00  0.00    +0.022 A 
ATOM     15  C   UNL     1      11.930   6.543   2.530  0.00  0.00    +0.259 A 
ATOM     16  C   UNL     1      13.323   5.700  -1.609  0.00  0.00    +0.247 C 
ATOM     17  C   UNL     1      10.481   6.149   2.619  0.00  0.00    +0.047 A 
ATOM     18  C   UNL     1      10.133   4.896   2.291  0.00  0.00    +0.015 A 
ENDROOT
BRANCH  16  19
ATOM      1  F   UNL     1       8.290   4.361  -3.643  0.00  0.00    -0.205 F 
ATOM     19  C   UNL     1      12.004   5.348  -2.142  0.00  0.00    +0.037 A 
ATOM     21  C   UNL     1      10.857   5.659  -1.414  0.00  0.00    +0.016 A 
ATOM     22  C   UNL     1      11.902   4.706  -3.374  0.00  0.00    +0.016 A 
ATOM     25  C   UNL     1       9.601   5.325  -1.922  0.00  0.00    +0.039 A 
ATOM     26  C   UNL     1      10.646   4.372  -3.881  0.00  0.00    +0.039 A 
ATOM     29  C   UNL     1       9.495   4.682  -3.156  0.00  0.00    +0.123 A 
ENDBRANCH  16  19
BRANCH  17  20
ATOM     20  C   UNL     1       9.451   7.115   3.038  0.00  0.00    -0.012 A 
ATOM     23  C   UNL     1       9.007   7.132   4.360  0.00  0.00    +0.012 A 
ATOM     24  C   UNL     1       8.920   8.014   2.112  0.00  0.00    +0.012 A 
ATOM     27  C   UNL     1       8.031   8.047   4.757  0.00  0.00    +0.046 A 
ATOM     28  C   UNL     1       7.945   8.929   2.510  0.00  0.00    +0.046 A 
ATOM     30  C   UNL     1       7.500   8.945   3.831  0.00  0.00    +0.120 A 
BRANCH  30   4
ATOM      4  O   UNL     1       6.548   9.838   4.219  0.00  0.00    -0.495 OA
ATOM     31  C   UNL     1       5.555  10.187   3.256  0.00  0.00    +0.277 C 
ENDBRANCH  30   4
ENDBRANCH  17  20
TORSDOF 3
ENDMDL
MODEL 3
REMARK VINA RESULT:      -6.9     26.064     28.142
REMARK  Name = 11885119
REMARK  4 active torsions:
REMARK  status: ('A' for Active; 'I' for Inactive)
REMARK    1  A    between atoms: O_4  and  C_30
REMARK    2  A    between atoms: O_4  and  C_31
REMARK    3  A    between atoms: C_16  and  C_19
REMARK    4  A    between atoms: C_17  and  C_20
REMARK                            x       y       z     vdW  Elec       q    Type
REMARK                         _______ _______ _______ _____ _____    ______ ____
ROOT
ATOM      2  O   UNL     1       8.249   7.071   4.102  0.00  0.00    -0.267 OA
ATOM      3  O   UNL     1       9.420   5.038  -0.432  0.00  0.00    -0.270 OA
ATOM      5  N   UNL     1      10.515   7.103  -0.322  0.00  0.00    -0.297 N 
ATOM      6  N   UNL     1       9.768   8.019   2.608  0.00  0.00    -0.311 N 
ATOM      7  C   UNL     1       9.051   8.997   0.351  0.00  0.00    +0.027 C 
ATOM      8  C   UNL     1      11.428   9.003   0.990  0.00  0.00    +0.054 C 
ATOM      9  C   UNL     1      10.280   9.887   0.504  0.00  0.00    +0.018 C 
ATOM     10  C   UNL     1       9.323   7.877  -0.670  0.00  0.00    +0.113 C 
ATOM     11  C   UNL     1       8.668   8.443   1.729  0.00  0.00    +0.130 C 
ATOM     12  C   UNL     1      11.719   7.909  -0.057  0.00  0.00    +0.117 C 
ATOM     13  C   UNL     1      11.093   8.355   2.319  0.00  0.00    +0.027 A 
ATOM     14  C   UNL     1      12.067   8.065   3.195  0.00  0.00    +0.022 A 
ATOM     15  C   UNL     1       9.409   7.354   3.796  0.00  0.00    +0.259 A 
ATOM     16  C   UNL     1      10.425   5.714  -0.212  0.00  0.00    +0.247 C 
ATOM     17  C   UNL     1      10.529   7.001   4.736  0.00  0.00    +0.047 A 
ATOM     18  C   UNL     1      11.778   7.373   4.420  0.00  0.00    +0.015 A 
ENDROOT
BRANCH  16  19
ATOM      1  F   UNL     1      14.963   2.906   1.455  0.00  0.00    -0.205 F 
ATOM     19  C   UNL     1      11.615   4.978   0.225  0.00  0.00    +0.037 A 
ATOM     21  C   UNL     1      11.814   4.724   1.580  0.00  0.00    +0.016 A 
ATOM     22  C   UNL     1      12.542   4.536  -0.717  0.00  0.00    +0.016 A 
ATOM     25  C   UNL     1      12.946   4.023   1.996  0.00  0.00    +0.039 A 
ATOM     26  C   UNL     1      13.674   3.835  -0.300  0.00  0.00    +0.039 A 
ATOM     29  C   UNL     1      13.877   3.578   1.056  0.00  0.00    +0.123 A 
ENDBRANCH  16  19
BRANCH  17  20
ATOM     20  C   UNL     1      10.276   6.246   5.975  0.00  0.00    -0.012 A 
ATOM     23  C   UNL     1      10.034   4.873   5.918  0.00  0.00    +0.012 A 
ATOM     24  C   UNL     1      10.276   6.903   7.206  0.00  0.00    +0.012 A 
ATOM     27  C   UNL     1       9.793   4.157   7.091  0.00  0.00    +0.046 A 
ATOM     28  C   UNL     1      10.036   6.187   8.378  0.00  0.00    +0.046 A 
ATOM     30  C   UNL     1       9.794   4.815   8.321  0.00  0.00    +0.120 A 
BRANCH  30   4
ATOM      4  O   UNL     1       9.559   4.116   9.465  0.00  0.00    -0.495 OA
ATOM     31  C   UNL     1       8.668   4.703  10.413  0.00  0.00    +0.277 C 
ENDBRANCH  30   4
ENDBRANCH  17  20
TORSDOF 3
ENDMDL
MODEL 4
REMARK VINA RESULT:      -6.7     20.902     22.971
REMARK  Name = 11885119
REMARK  4 active torsions:
REMARK  status: ('A' for Active; 'I' for Inactive)
REMARK    1  A    between atoms: O_4  and  C_30
REMARK    2  A    between atoms: O_4  and  C_31
REMARK    3  A    between atoms: C_16  and  C_19
REMARK    4  A    between atoms: C_17  and  C_20
REMARK                            x       y       z     vdW  Elec       q    Type
REMARK                         _______ _______ _______ _____ _____    ______ ____
ROOT
ATOM      2  O   UNL     1      -6.673  -9.998  14.075  0.00  0.00    -0.267 OA
ATOM      3  O   UNL     1      -4.664 -14.376  12.385  0.00  0.00    -0.270 OA
ATOM      5  N   UNL     1      -2.873 -13.047  13.091  0.00  0.00    -0.297 N 
ATOM      6  N   UNL     1      -4.409 -10.534  14.232  0.00  0.00    -0.311 N 
ATOM      7  C   UNL     1      -2.897 -10.736  12.173  0.00  0.00    +0.027 C 
ATOM      8  C   UNL     1      -1.975 -11.150  14.418  0.00  0.00    +0.054 C 
ATOM      9  C   UNL     1      -1.775 -10.349  13.132  0.00  0.00    +0.018 C 
ATOM     10  C   UNL     1      -2.844 -12.244  11.868  0.00  0.00    +0.113 C 
ATOM     11  C   UNL     1      -4.238 -10.316  12.787  0.00  0.00    +0.130 C 
ATOM     12  C   UNL     1      -1.881 -12.658  14.108  0.00  0.00    +0.117 C 
ATOM     13  C   UNL     1      -3.319 -10.845  15.049  0.00  0.00    +0.027 A 
ATOM     14  C   UNL     1      -3.474 -10.918  16.380  0.00  0.00    +0.022 A 
ATOM     15  C   UNL     1      -5.695 -10.309  14.758  0.00  0.00    +0.259 A 
ATOM     16  C   UNL     1      -3.834 -14.050  13.233  0.00  0.00    +0.247 C 
ATOM     17  C   UNL     1      -5.847 -10.444  16.249  0.00  0.00    +0.047 A 
ATOM     18  C   UNL     1      -4.761 -10.719  16.985  0.00  0.00    +0.015 A 
ENDROOT
BRANCH  16  19
ATOM      1  F   UNL     1      -4.055 -16.816  18.087  0.00  0.00    -0.205 F 
ATOM     19  C   UNL     1      -3.891 -14.775  14.506  0.00  0.00    +0.037 A 
ATOM     21  C   UNL     1      -4.725 -14.321  15.525  0.00  0.00    +0.016 A 
ATOM     22  C   UNL     1      -3.112 -15.915  14.691  0.00  0.00    +0.016 A 
ATOM     25  C   UNL     1      -4.780 -15.011  16.736  0.00  0.00    +0.039 A 
ATOM     26  C   UNL     1      -3.168 -16.605  15.902  0.00  0.00    +0.039 A 
ATOM     29  C   UNL     1      -4.002 -16.154  16.925  0.00  0.00    +0.123 A 
ENDBRANCH  16  19
BRANCH  17  20
ATOM     20  C   UNL     1      -7.161 -10.297  16.898  0.00  0.00    -0.012 A 
ATOM     23  C   UNL     1      -7.752 -11.391  17.531  0.00  0.00    +0.012 A 
ATOM     24  C   UNL     1      -7.816  -9.065  16.880  0.00  0.00    +0.012 A 
ATOM     27  C   UNL     1      -8.997 -11.253  18.146  0.00  0.00    +0.046 A 
ATOM     28  C   UNL     1      -9.060  -8.927  17.494  0.00  0.00    +0.046 A 
ATOM     30  C   UNL     1      -9.651 -10.021  18.127  0.00  0.00    +0.120 A 
BRANCH  30   4
ATOM      4  O   UNL     1     -10.866  -9.886  18.726  0.00  0.00    -0.495 OA
ATOM     31  C   UNL     1     -10.950 -10.238  20.106  0.00  0.00    +0.277 C 
ENDBRANCH  30   4
ENDBRANCH  17  20
TORSDOF 3
ENDMDL
MODEL 5
REMARK VINA RESULT:      -6.7     18.631     21.358
REMARK  Name = 11885119
REMARK  4 active torsions:
REMARK  status: ('A' for Active; 'I' for Inactive)
REMARK    1  A    between atoms: O_4  and  C_30
REMARK    2  A    between atoms: O_4  and  C_31
REMARK    3  A    between atoms: C_16  and  C_19
REMARK    4  A    between atoms: C_17  and  C_20
REMARK                            x       y       z     vdW  Elec       q    Type
REMARK                         _______ _______ _______ _____ _____    ______ ____
ROOT
ATOM      2  O   UNL     1      -6.164 -12.865  14.897  0.00  0.00    -0.267 OA
ATOM      3  O   UNL     1     -11.014 -11.980  16.223  0.00  0.00    -0.270 OA
ATOM      5  N   UNL     1      -9.717 -11.598  18.133  0.00  0.00    -0.297 N 
ATOM      6  N   UNL     1      -6.810 -12.035  16.978  0.00  0.00    -0.311 N 
ATOM      7  C   UNL     1      -8.130 -13.435  18.669  0.00  0.00    +0.027 C 
ATOM      8  C   UNL     1      -7.533 -11.108  19.205  0.00  0.00    +0.054 C 
ATOM      9  C   UNL     1      -7.463 -12.547  19.714  0.00  0.00    +0.018 C 
ATOM     10  C   UNL     1      -9.598 -13.017  18.469  0.00  0.00    +0.113 C 
ATOM     11  C   UNL     1      -7.323 -13.357  17.368  0.00  0.00    +0.130 C 
ATOM     12  C   UNL     1      -9.007 -10.686  19.045  0.00  0.00    +0.117 C 
ATOM     13  C   UNL     1      -6.818 -10.964  17.875  0.00  0.00    +0.027 A 
ATOM     14  C   UNL     1      -6.234  -9.802  17.543  0.00  0.00    +0.022 A 
ATOM     15  C   UNL     1      -6.222 -11.934  15.703  0.00  0.00    +0.259 A 
ATOM     16  C   UNL     1     -10.420 -11.219  16.986  0.00  0.00    +0.247 C 
ATOM     17  C   UNL     1      -5.617 -10.605  15.342  0.00  0.00    +0.047 A 
ATOM     18  C   UNL     1      -5.630  -9.622  16.253  0.00  0.00    +0.015 A 
ENDROOT
BRANCH  16  19
ATOM      1  F   UNL     1     -10.515  -5.797  15.629  0.00  0.00    -0.205 F 
ATOM     19  C   UNL     1     -10.445  -9.797  16.632  0.00  0.00    +0.037 A 
ATOM     21  C   UNL     1      -9.410  -9.255  15.872  0.00  0.00    +0.016 A 
ATOM     22  C   UNL     1     -11.502  -8.995  17.054  0.00  0.00    +0.016 A 
ATOM     25  C   UNL     1      -9.434  -7.902  15.533  0.00  0.00    +0.039 A 
ATOM     26  C   UNL     1     -11.526  -7.642  16.714  0.00  0.00    +0.039 A 
ATOM     29  C   UNL     1     -10.492  -7.095  15.954  0.00  0.00    +0.123 A 
ENDBRANCH  16  19
BRANCH  17  20
ATOM     20  C   UNL     1      -5.035 -10.369  14.009  0.00  0.00    -0.012 A 
ATOM     23  C   UNL     1      -5.825  -9.842  12.987  0.00  0.00    +0.012 A 
ATOM     24  C   UNL     1      -3.694 -10.672  13.769  0.00  0.00    +0.012 A 
ATOM     27  C   UNL     1      -5.274  -9.618  11.724  0.00  0.00    +0.046 A 
ATOM     28  C   UNL     1      -3.144 -10.448  12.507  0.00  0.00    +0.046 A 
ATOM     30  C   UNL     1      -3.934  -9.922  11.485  0.00  0.00    +0.120 A 
BRANCH  30   4
ATOM      4  O   UNL     1      -3.397  -9.703  10.253  0.00  0.00    -0.495 OA
ATOM     31  C   UNL     1      -4.089  -8.797   9.395  0.00  0.00    +0.277 C 
ENDBRANCH  30   4
ENDBRANCH  17  20
TORSDOF 3
ENDMDL
MODEL 6
REMARK VINA RESULT:      -6.6     29.748     31.517
REMARK  Name = 11885119
REMARK  4 active torsions:
REMARK  status: ('A' for Active; 'I' for Inactive)
REMARK    1  A    between atoms: O_4  and  C_30
REMARK    2  A    between atoms: O_4  and  C_31
REMARK    3  A    between atoms: C_16  and  C_19
REMARK    4  A    between atoms: C_17  and  C_20
REMARK                            x       y       z     vdW  Elec       q    Type
REMARK                         _______ _______ _______ _____ _____    ______ ____
ROOT
ATOM      2  O   UNL     1       9.500  -9.352  32.462  0.00  0.00    -0.267 OA
ATOM      3  O   UNL     1       9.070  -8.077  37.386  0.00  0.00    -0.270 OA
ATOM      5  N   UNL     1       8.534  -6.164  36.150  0.00  0.00    -0.297 N 
ATOM      6  N   UNL     1       8.704  -7.290  33.204  0.00  0.00    -0.311 N 
ATOM      7  C   UNL     1      10.199  -5.585  34.398  0.00  0.00    +0.027 C 
ATOM      8  C   UNL     1       7.817  -5.084  34.033  0.00  0.00    +0.054 C 
ATOM      9  C   UNL     1       9.234  -4.550  33.829  0.00  0.00    +0.018 C 
ATOM     10  C   UNL     1       9.929  -5.804  35.897  0.00  0.00    +0.113 C 
ATOM     11  C   UNL     1      10.064  -6.882  33.590  0.00  0.00    +0.130 C 
ATOM     12  C   UNL     1       7.543  -5.262  35.540  0.00  0.00    +0.117 C 
ATOM     13  C   UNL     1       7.626  -6.410  33.324  0.00  0.00    +0.027 A 
ATOM     14  C   UNL     1       6.418  -6.757  32.853  0.00  0.00    +0.022 A 
ATOM     15  C   UNL     1       8.567  -8.562  32.617  0.00  0.00    +0.259 A 
ATOM     16  C   UNL     1       8.243  -7.322  36.876  0.00  0.00    +0.247 C 
ATOM     17  C   UNL     1       7.191  -8.941  32.140  0.00  0.00    +0.047 A 
ATOM     18  C   UNL     1       6.200  -8.045  32.257  0.00  0.00    +0.015 A 
ENDROOT
BRANCH  16  19
ATOM      1  F   UNL     1       2.877  -8.769  37.484  0.00  0.00    -0.205 F 
ATOM     19  C   UNL     1       6.836  -7.700  37.035  0.00  0.00    +0.037 A 
ATOM     21  C   UNL     1       6.235  -8.542  36.102  0.00  0.00    +0.016 A 
ATOM     22  C   UNL     1       6.106  -7.218  38.120  0.00  0.00    +0.016 A 
ATOM     25  C   UNL     1       4.896  -8.903  36.254  0.00  0.00    +0.039 A 
ATOM     26  C   UNL     1       4.767  -7.580  38.271  0.00  0.00    +0.039 A 
ATOM     29  C   UNL     1       4.162  -8.422  37.339  0.00  0.00    +0.123 A 
ENDBRANCH  16  19
BRANCH  17  20
ATOM     20  C   UNL     1       6.920 -10.272  31.572  0.00  0.00    -0.012 A 
ATOM     23  C   UNL     1       7.165 -10.517  30.221  0.00  0.00    +0.012 A 
ATOM     24  C   UNL     1       6.418 -11.289  32.385  0.00  0.00    +0.012 A 
ATOM     27  C   UNL     1       6.908 -11.778  29.682  0.00  0.00    +0.046 A 
ATOM     28  C   UNL     1       6.162 -12.549  31.847  0.00  0.00    +0.046 A 
ATOM     30  C   UNL     1       6.406 -12.795  30.495  0.00  0.00    +0.120 A 
BRANCH  30   4
ATOM      4  O   UNL     1       6.156 -14.025  29.970  0.00  0.00    -0.495 OA
ATOM     31  C   UNL     1       4.840 -14.261  29.469  0.00  0.00    +0.277 C 
ENDBRANCH  30   4
ENDBRANCH  17  20
TORSDOF 3
ENDMDL
MODEL 7
REMARK VINA RESULT:      -6.5     25.845     28.739
REMARK  Name = 11885119
REMARK  4 active torsions:
REMARK  status: ('A' for Active; 'I' for Inactive)
REMARK    1  A    between atoms: O_4  and  C_30
REMARK    2  A    between atoms: O_4  and  C_31
REMARK    3  A    between atoms: C_16  and  C_19
REMARK    4  A    between atoms: C_17  and  C_20
REMARK                            x       y       z     vdW  Elec       q    Type
REMARK                         _______ _______ _______ _____ _____    ______ ____
ROOT
ATOM      2  O   UNL     1      12.442   7.348   3.371  0.00  0.00    -0.267 OA
ATOM      3  O   UNL     1       8.619   9.677   5.824  0.00  0.00    -0.270 OA
ATOM      5  N   UNL     1       9.041   7.687   6.980  0.00  0.00    -0.297 N 
ATOM      6  N   UNL     1      11.524   6.579   5.372  0.00  0.00    -0.311 N 
ATOM      7  C   UNL     1       9.134   5.669   5.530  0.00  0.00    +0.027 C 
ATOM      8  C   UNL     1      10.537   5.789   7.550  0.00  0.00    +0.054 C 
ATOM      9  C   UNL     1       9.671   4.856   6.704  0.00  0.00    +0.018 C 
ATOM     10  C   UNL     1       8.293   6.854   6.038  0.00  0.00    +0.113 C 
ATOM     11  C   UNL     1      10.316   6.126   4.666  0.00  0.00    +0.130 C 
ATOM     12  C   UNL     1       9.676   6.951   8.086  0.00  0.00    +0.117 C 
ATOM     13  C   UNL     1      11.691   6.346   6.739  0.00  0.00    +0.027 A 
ATOM     14  C   UNL     1      12.851   6.656   7.339  0.00  0.00    +0.022 A 
ATOM     15  C   UNL     1      12.538   7.158   4.585  0.00  0.00    +0.259 A 
ATOM     16  C   UNL     1       9.148   9.060   6.748  0.00  0.00    +0.247 C 
ATOM     17  C   UNL     1      13.809   7.538   5.295  0.00  0.00    +0.047 A 
ATOM     18  C   UNL     1      13.923   7.266   6.603  0.00  0.00    +0.015 A 
ENDROOT
BRANCH  16  19
ATOM      1  F   UNL     1      12.315  12.078  10.230  0.00  0.00    -0.205 F 
ATOM     19  C   UNL     1       9.979   9.850   7.662  0.00  0.00    +0.037 A 
ATOM     21  C   UNL     1      11.325  10.057   7.371  0.00  0.00    +0.016 A 
ATOM     22  C   UNL     1       9.418  10.392   8.816  0.00  0.00    +0.016 A 
ATOM     25  C   UNL     1      12.115  10.810   8.239  0.00  0.00    +0.039 A 
ATOM     26  C   UNL     1      10.208  11.146   9.684  0.00  0.00    +0.039 A 
ATOM     29  C   UNL     1      11.557  11.355   9.397  0.00  0.00    +0.123 A 
ENDBRANCH  16  19
BRANCH  17  20
ATOM     20  C   UNL     1      14.908   8.212   4.583  0.00  0.00    -0.012 A 
ATOM     23  C   UNL     1      14.944   9.605   4.515  0.00  0.00    +0.012 A 
ATOM     24  C   UNL     1      15.913   7.458   3.975  0.00  0.00    +0.012 A 
ATOM     27  C   UNL     1      15.985  10.244   3.840  0.00  0.00    +0.046 A 
ATOM     28  C   UNL     1      16.953   8.097   3.301  0.00  0.00    +0.046 A 
ATOM     30  C   UNL     1      16.989   9.490   3.232  0.00  0.00    +0.120 A 
BRANCH  30   4
ATOM      4  O   UNL     1      18.004  10.114   2.574  0.00  0.00    -0.495 OA
ATOM     31  C   UNL     1      18.918   9.285   1.857  0.00  0.00    +0.277 C 
ENDBRANCH  30   4
ENDBRANCH  17  20
TORSDOF 3
ENDMDL
MODEL 8
REMARK VINA RESULT:      -6.5     23.091     25.778
REMARK  Name = 11885119
REMARK  4 active torsions:
REMARK  status: ('A' for Active; 'I' for Inactive)
REMARK    1  A    between atoms: O_4  and  C_30
REMARK    2  A    between atoms: O_4  and  C_31
REMARK    3  A    between atoms: C_16  and  C_19
REMARK    4  A    between atoms: C_17  and  C_20
REMARK                            x       y       z     vdW  Elec       q    Type
REMARK                         _______ _______ _______ _____ _____    ______ ____
ROOT
ATOM      2  O   UNL     1       9.219  11.449   5.876  0.00  0.00    -0.267 OA
ATOM      3  O   UNL     1       7.918   6.611   4.896  0.00  0.00    -0.270 OA
ATOM      5  N   UNL     1      10.224   6.770   4.533  0.00  0.00    -0.297 N 
ATOM      6  N   UNL     1      10.756   9.766   5.381  0.00  0.00    -0.311 N 
ATOM      7  C   UNL     1      10.895   8.666   3.071  0.00  0.00    +0.027 C 
ATOM      8  C   UNL     1      12.396   7.923   4.876  0.00  0.00    +0.054 C 
ATOM      9  C   UNL     1      12.357   8.420   3.431  0.00  0.00    +0.018 C 
ATOM     10  C   UNL     1      10.084   7.364   3.203  0.00  0.00    +0.113 C 
ATOM     11  C   UNL     1      10.348   9.783   3.967  0.00  0.00    +0.130 C 
ATOM     12  C   UNL     1      11.613   6.599   4.989  0.00  0.00    +0.117 C 
ATOM     13  C   UNL     1      11.798   8.947   5.821  0.00  0.00    +0.027 A 
ATOM     14  C   UNL     1      12.237   9.037   7.086  0.00  0.00    +0.022 A 
ATOM     15  C   UNL     1      10.118  10.686   6.235  0.00  0.00    +0.259 A 
ATOM     16  C   UNL     1       9.080   6.468   5.275  0.00  0.00    +0.247 C 
ATOM     17  C   UNL     1      10.601  10.730   7.659  0.00  0.00    +0.047 A 
ATOM     18  C   UNL     1      11.622   9.939   8.019  0.00  0.00    +0.015 A 
ENDROOT
BRANCH  16  19
ATOM      1  F   UNL     1       9.753   4.519  10.472  0.00  0.00    -0.205 F 
ATOM     19  C   UNL     1       9.258   5.957   6.638  0.00  0.00    +0.037 A 
ATOM     21  C   UNL     1       9.056   6.803   7.727  0.00  0.00    +0.016 A 
ATOM     22  C   UNL     1       9.625   4.628   6.838  0.00  0.00    +0.016 A 
ATOM     25  C   UNL     1       9.224   6.316   9.023  0.00  0.00    +0.039 A 
ATOM     26  C   UNL     1       9.793   4.142   8.135  0.00  0.00    +0.039 A 
ATOM     29  C   UNL     1       9.592   4.985   9.228  0.00  0.00    +0.123 A 
ENDBRANCH  16  19
BRANCH  17  20
ATOM     20  C   UNL     1       9.959  11.606   8.655  0.00  0.00    -0.012 A 
ATOM     23  C   UNL     1      10.231  12.974   8.658  0.00  0.00    +0.012 A 
ATOM     24  C   UNL     1       9.081  11.068   9.596  0.00  0.00    +0.012 A 
ATOM     27  C   UNL     1       9.624  13.804   9.601  0.00  0.00    +0.046 A 
ATOM     28  C   UNL     1       8.474  11.897  10.538  0.00  0.00    +0.046 A 
ATOM     30  C   UNL     1       8.746  13.265  10.542  0.00  0.00    +0.120 A 
BRANCH  30   4
ATOM      4  O   UNL     1       8.154  14.075  11.461  0.00  0.00    -0.495 OA
ATOM     31  C   UNL     1       7.197  15.016  10.977  0.00  0.00    +0.277 C 
ENDBRANCH  30   4
ENDBRANCH  17  20
TORSDOF 3
ENDMDL
MODEL 9
REMARK VINA RESULT:      -6.4     27.891     30.118
REMARK  Name = 11885119
REMARK  4 active torsions:
REMARK  status: ('A' for Active; 'I' for Inactive)
REMARK    1  A    between atoms: O_4  and  C_30
REMARK    2  A    between atoms: O_4  and  C_31
REMARK    3  A    between atoms: C_16  and  C_19
REMARK    4  A    between atoms: C_17  and  C_20
REMARK                            x       y       z     vdW  Elec       q    Type
REMARK                         _______ _______ _______ _____ _____    ______ ____
ROOT
ATOM      2  O   UNL     1      10.946   3.719   3.257  0.00  0.00    -0.267 OA
ATOM      3  O   UNL     1      15.365   4.021   0.719  0.00  0.00    -0.270 OA
ATOM      5  N   UNL     1      13.832   5.349  -0.447  0.00  0.00    -0.297 N 
ATOM      6  N   UNL     1      11.298   5.118   1.425  0.00  0.00    -0.311 N 
ATOM      7  C   UNL     1      11.675   4.216  -0.944  0.00  0.00    +0.027 C 
ATOM      8  C   UNL     1      11.715   6.643  -0.535  0.00  0.00    +0.054 C 
ATOM      9  C   UNL     1      11.084   5.548  -1.395  0.00  0.00    +0.018 C 
ATOM     10  C   UNL     1      13.204   4.217  -1.129  0.00  0.00    +0.113 C 
ATOM     11  C   UNL     1      11.269   3.964   0.513  0.00  0.00    +0.130 C 
ATOM     12  C   UNL     1      13.241   6.662  -0.758  0.00  0.00    +0.117 C 
ATOM     13  C   UNL     1      11.420   6.421   0.935  0.00  0.00    +0.027 A 
ATOM     14  C   UNL     1      11.321   7.466   1.771  0.00  0.00    +0.022 A 
ATOM     15  C   UNL     1      11.093   4.851   2.792  0.00  0.00    +0.259 A 
ATOM     16  C   UNL     1      14.870   5.117   0.458  0.00  0.00    +0.247 C 
ATOM     17  C   UNL     1      11.033   6.042   3.710  0.00  0.00    +0.047 A 
ATOM     18  C   UNL     1      11.130   7.270   3.180  0.00  0.00    +0.015 A 
ENDROOT
BRANCH  16  19
ATOM      1  F   UNL     1      16.952   9.496   3.241  0.00  0.00    -0.205 F 
ATOM     19  C   UNL     1      15.417   6.265   1.188  0.00  0.00    +0.037 A 
ATOM     21  C   UNL     1      16.462   7.003   0.637  0.00  0.00    +0.016 A 
ATOM     22  C   UNL     1      14.887   6.613   2.429  0.00  0.00    +0.016 A 
ATOM     25  C   UNL     1      16.982   8.095   1.332  0.00  0.00    +0.039 A 
ATOM     26  C   UNL     1      15.407   7.706   3.123  0.00  0.00    +0.039 A 
ATOM     29  C   UNL     1      16.454   8.447   2.575  0.00  0.00    +0.123 A 
ENDBRANCH  16  19
BRANCH  17  20
ATOM     20  C   UNL     1      10.890   5.875   5.166  0.00  0.00    -0.012 A 
ATOM     23  C   UNL     1      11.769   6.526   6.033  0.00  0.00    +0.012 A 
ATOM     24  C   UNL     1       9.877   5.065   5.681  0.00  0.00    +0.012 A 
ATOM     27  C   UNL     1      11.634   6.368   7.412  0.00  0.00    +0.046 A 
ATOM     28  C   UNL     1       9.742   4.908   7.059  0.00  0.00    +0.046 A 
ATOM     30  C   UNL     1      10.621   5.558   7.926  0.00  0.00    +0.120 A 
BRANCH  30   4
ATOM      4  O   UNL     1      10.490   5.404   9.272  0.00  0.00    -0.495 OA
ATOM     31  C   UNL     1       9.344   4.692   9.734  0.00  0.00    +0.277 C 
ENDBRANCH  30   4
ENDBRANCH  17  20
TORSDOF 3
ENDMDL
MODEL 10
REMARK VINA RESULT:      -6.3     33.322     35.571
REMARK  Name = 11885119
REMARK  4 active torsions:
REMARK  status: ('A' for Active; 'I' for Inactive)
REMARK    1  A    between atoms: O_4  and  C_30
REMARK    2  A    between atoms: O_4  and  C_31
REMARK    3  A    between atoms: C_16  and  C_19
REMARK    4  A    between atoms: C_17  and  C_20
REMARK                            x       y       z     vdW  Elec       q    Type
REMARK                         _______ _______ _______ _____ _____    ______ ____
ROOT
ATOM      2  O   UNL     1      21.174   8.850  20.603  0.00  0.00    -0.267 OA
ATOM      3  O   UNL     1      25.644   6.649  19.494  0.00  0.00    -0.270 OA
ATOM      5  N   UNL     1      25.587   6.913  21.818  0.00  0.00    -0.297 N 
ATOM      6  N   UNL     1      22.687   8.103  22.211  0.00  0.00    -0.311 N 
ATOM      7  C   UNL     1      24.974   9.204  22.567  0.00  0.00    +0.027 C 
ATOM      8  C   UNL     1      24.325   7.258  23.928  0.00  0.00    +0.054 C 
ATOM      9  C   UNL     1      24.840   8.695  23.998  0.00  0.00    +0.018 C 
ATOM     10  C   UNL     1      25.962   8.327  21.776  0.00  0.00    +0.113 C 
ATOM     11  C   UNL     1      23.583   9.234  21.922  0.00  0.00    +0.130 C 
ATOM     12  C   UNL     1      25.340   6.380  23.168  0.00  0.00    +0.117 C 
ATOM     13  C   UNL     1      22.979   7.195  23.232  0.00  0.00    +0.027 A 
ATOM     14  C   UNL     1      22.091   6.244  23.562  0.00  0.00    +0.022 A 
ATOM     15  C   UNL     1      21.483   8.047  21.485  0.00  0.00    +0.259 A 
ATOM     16  C   UNL     1      25.439   6.205  20.623  0.00  0.00    +0.247 C 
ATOM     17  C   UNL     1      20.528   6.942  21.847  0.00  0.00    +0.047 A 
ATOM     18  C   UNL     1      20.849   6.115  22.852  0.00  0.00    +0.015 A 
ENDROOT
BRANCH  16  19
ATOM      1  F   UNL     1      23.674   0.907  20.906  0.00  0.00    -0.205 F 
ATOM     19  C   UNL     1      24.976   4.816  20.699  0.00  0.00    +0.037 A 
ATOM     21  C   UNL     1      23.611   4.542  20.754  0.00  0.00    +0.016 A 
ATOM     22  C   UNL     1      25.903   3.776  20.713  0.00  0.00    +0.016 A 
ATOM     25  C   UNL     1      23.171   3.220  20.824  0.00  0.00    +0.039 A 
ATOM     26  C   UNL     1      25.462   2.454  20.783  0.00  0.00    +0.039 A 
ATOM     29  C   UNL     1      24.096   2.176  20.839  0.00  0.00    +0.123 A 
ENDBRANCH  16  19
BRANCH  17  20
ATOM     20  C   UNL     1      19.269   6.749  21.106  0.00  0.00    -0.012 A 
ATOM     23  C   UNL     1      18.149   7.518  21.421  0.00  0.00    +0.012 A 
ATOM     24  C   UNL     1      19.197   5.796  20.089  0.00  0.00    +0.012 A 
ATOM     27  C   UNL     1      16.957   7.335  20.720  0.00  0.00    +0.046 A 
ATOM     28  C   UNL     1      18.006   5.613  19.388  0.00  0.00    +0.046 A 
ATOM     30  C   UNL     1      16.885   6.382  19.703  0.00  0.00    +0.120 A 
BRANCH  30   4
ATOM      4  O   UNL     1      15.722   6.204  19.020  0.00  0.00    -0.495 OA
ATOM     31  C   UNL     1      14.590   6.953  19.460  0.00  0.00    +0.277 C 
ENDBRANCH  30   4
ENDBRANCH  17  20
TORSDOF 3
ENDMDL
