MODEL 1
REMARK VINA RESULT:      -7.2      0.000      0.000
REMARK  Name = 26742536
REMARK  10 active torsions:
REMARK  status: ('A' for Active; 'I' for Inactive)
REMARK    1  A    between atoms: O_3  and  C_22
REMARK    2  A    between atoms: O_4  and  C_23
REMARK    3  A    between atoms: O_4  and  C_28
REMARK    4  A    between atoms: N_7  and  C_19
REMARK    5  A    between atoms: C_9  and  C_15
REMARK    6  A    between atoms: C_10  and  C_14
REMARK    7  A    between atoms: C_14  and  C_16
REMARK    8  A    between atoms: C_15  and  C_17
REMARK    9  A    between atoms: C_19  and  C_21
REMARK   10  A    between atoms: C_20  and  C_22
REMARK                            x       y       z     vdW  Elec       q    Type
REMARK                         _______ _______ _______ _____ _____    ______ ____
ROOT
ATOM      6  N   UNL     1      10.448  10.691  23.233  0.00  0.00    -0.316 NA
ATOM      9  C   UNL     1      13.043  10.654  21.828  0.00  0.00    +0.004 C 
ATOM     10  C   UNL     1      11.906   9.652  21.513  0.00  0.00    +0.012 C 
ATOM     11  C   UNL     1      12.433  11.928  22.437  0.00  0.00    +0.019 C 
ATOM     12  C   UNL     1      10.992   9.430  22.729  0.00  0.00    +0.085 C 
ATOM     13  C   UNL     1      11.506  11.626  23.613  0.00  0.00    +0.081 C 
ATOM     29  H   UNL     1       9.856  10.505  24.041  0.00  0.00    +0.122 HD
ENDROOT
BRANCH  10  14
ATOM     14  C   UNL     1      12.419   8.315  20.975  0.00  0.00    +0.064 C 
BRANCH  14  16
ATOM      2  O   UNL     1      11.844   7.253  17.583  0.00  0.00    -0.348 OA
ATOM      8  N   UNL     1      12.011   7.000  18.939  0.00  0.00    -0.082 NA
ATOM     16  C   UNL     1      12.199   8.201  19.494  0.00  0.00    +0.085 A 
ATOM     18  C   UNL     1      12.162   9.239  18.547  0.00  0.00    +0.083 A 
ATOM     20  C   UNL     1      11.936   8.590  17.362  0.00  0.00    +0.244 A 
BRANCH  20  22
ATOM      5  O   UNL     1      12.694   9.139  15.161  0.00  0.00    -0.242 OA
ATOM     22  C   UNL     1      11.792   9.064  16.029  0.00  0.00    +0.375 C 
BRANCH  22   3
ATOM      3  O   UNL     1      10.516   9.467  15.721  0.00  0.00    -0.475 OA
ATOM     31  H   UNL     1       9.844   8.860  16.100  0.00  0.00    +0.296 HD
ENDBRANCH  22   3
ENDBRANCH  20  22
ENDBRANCH  14  16
ENDBRANCH  10  14
BRANCH   9  15
ATOM     15  C   UNL     1      14.141  10.087  22.734  0.00  0.00    +0.099 C 
BRANCH  15  17
ATOM      1  O   UNL     1      15.872  11.702  22.237  0.00  0.00    -0.276 OA
ATOM      7  N   UNL     1      16.323   9.435  21.997  0.00  0.00    -0.311 N 
ATOM     17  C   UNL     1      15.524  10.526  22.302  0.00  0.00    +0.214 C 
ATOM     30  H   UNL     1      15.956   8.494  22.103  0.00  0.00    +0.149 HD
BRANCH   7  19
ATOM     19  C   UNL     1      17.693   9.559  21.554  0.00  0.00    +0.143 C 
BRANCH  19  21
ATOM     21  C   UNL     1      18.298   8.226  21.219  0.00  0.00    +0.011 A 
ATOM     23  C   UNL     1      17.634   7.334  20.377  0.00  0.00    +0.125 A 
ATOM     24  C   UNL     1      19.537   7.883  21.760  0.00  0.00    +0.009 A 
ATOM     25  C   UNL     1      18.209   6.100  20.075  0.00  0.00    +0.046 A 
ATOM     26  C   UNL     1      20.112   6.649  21.459  0.00  0.00    +0.001 A 
ATOM     27  C   UNL     1      19.449   5.757  20.617  0.00  0.00    +0.004 A 
BRANCH  23   4
ATOM      4  O   UNL     1      16.423   7.652  19.840  0.00  0.00    -0.495 OA
ATOM     28  C   UNL     1      15.550   6.569  19.524  0.00  0.00    +0.277 C 
ENDBRANCH  23   4
ENDBRANCH  19  21
ENDBRANCH   7  19
ENDBRANCH  15  17
ENDBRANCH   9  15
TORSDOF 9
ENDMDL
MODEL 2
REMARK VINA RESULT:      -6.8      2.860      7.748
REMARK  Name = 26742536
REMARK  10 active torsions:
REMARK  status: ('A' for Active; 'I' for Inactive)
REMARK    1  A    between atoms: O_3  and  C_22
REMARK    2  A    between atoms: O_4  and  C_23
REMARK    3  A    between atoms: O_4  and  C_28
REMARK    4  A    between atoms: N_7  and  C_19
REMARK    5  A    between atoms: C_9  and  C_15
REMARK    6  A    between atoms: C_10  and  C_14
REMARK    7  A    between atoms: C_14  and  C_16
REMARK    8  A    between atoms: C_15  and  C_17
REMARK    9  A    between atoms: C_19  and  C_21
REMARK   10  A    between atoms: C_20  and  C_22
REMARK                            x       y       z     vdW  Elec       q    Type
REMARK                         _______ _______ _______ _____ _____    ______ ____
ROOT
ATOM      6  N   UNL     1      13.908   8.367  16.009  0.00  0.00    -0.316 NA
ATOM      9  C   UNL     1      13.123   9.041  18.772  0.00  0.00    +0.004 C 
ATOM     10  C   UNL     1      14.282   8.069  18.445  0.00  0.00    +0.012 C 
ATOM     11  C   UNL     1      12.915   9.993  17.582  0.00  0.00    +0.019 C 
ATOM     12  C   UNL     1      14.084   7.388  17.082  0.00  0.00    +0.085 C 
ATOM     13  C   UNL     1      12.767   9.246  16.258  0.00  0.00    +0.081 C 
ATOM     29  H   UNL     1      13.771   7.878  15.125  0.00  0.00    +0.122 HD
ENDROOT
BRANCH  10  14
ATOM     14  C   UNL     1      14.516   7.026  19.538  0.00  0.00    +0.064 C 
BRANCH  14  16
ATOM      2  O   UNL     1      17.751   5.562  18.941  0.00  0.00    -0.348 OA
ATOM      8  N   UNL     1      16.419   5.777  18.610  0.00  0.00    -0.082 NA
ATOM     16  C   UNL     1      15.949   6.579  19.571  0.00  0.00    +0.085 A 
ATOM     18  C   UNL     1      16.929   6.899  20.525  0.00  0.00    +0.083 A 
ATOM     20  C   UNL     1      18.044   6.235  20.083  0.00  0.00    +0.244 A 
BRANCH  20  22
ATOM      5  O   UNL     1      19.860   6.847  21.513  0.00  0.00    -0.242 OA
ATOM     22  C   UNL     1      19.366   6.148  20.597  0.00  0.00    +0.375 C 
BRANCH  22   3
ATOM      3  O   UNL     1      20.132   5.183  19.989  0.00  0.00    -0.475 OA
ATOM     31  H   UNL     1      20.429   4.502  20.630  0.00  0.00    +0.296 HD
ENDBRANCH  22   3
ENDBRANCH  20  22
ENDBRANCH  14  16
ENDBRANCH  10  14
BRANCH   9  15
ATOM     15  C   UNL     1      11.812   8.343  19.148  0.00  0.00    +0.099 C 
BRANCH  15  17
ATOM      1  O   UNL     1      10.538   8.063  21.186  0.00  0.00    -0.276 OA
ATOM      7  N   UNL     1      11.898   9.931  20.938  0.00  0.00    -0.311 N 
ATOM     17  C   UNL     1      11.330   8.733  20.530  0.00  0.00    +0.214 C 
ATOM     30  H   UNL     1      12.563  10.406  20.335  0.00  0.00    +0.149 HD
BRANCH   7  19
ATOM     19  C   UNL     1      11.615  10.544  22.216  0.00  0.00    +0.143 C 
BRANCH  19  21
ATOM     21  C   UNL     1      11.371  12.020  22.089  0.00  0.00    +0.011 A 
ATOM     23  C   UNL     1      10.774  12.735  23.127  0.00  0.00    +0.125 A 
ATOM     24  C   UNL     1      11.750  12.676  20.919  0.00  0.00    +0.009 A 
ATOM     25  C   UNL     1      10.554  14.106  22.995  0.00  0.00    +0.046 A 
ATOM     26  C   UNL     1      11.531  14.047  20.785  0.00  0.00    +0.001 A 
ATOM     27  C   UNL     1      10.933  14.762  21.823  0.00  0.00    +0.004 A 
BRANCH  23   4
ATOM      4  O   UNL     1      10.397  12.110  24.278  0.00  0.00    -0.495 OA
ATOM     28  C   UNL     1      10.749  12.746  25.506  0.00  0.00    +0.277 C 
ENDBRANCH  23   4
ENDBRANCH  19  21
ENDBRANCH   7  19
ENDBRANCH  15  17
ENDBRANCH   9  15
TORSDOF 9
ENDMDL
MODEL 3
REMARK VINA RESULT:      -6.4     13.566     17.880
REMARK  Name = 26742536
REMARK  10 active torsions:
REMARK  status: ('A' for Active; 'I' for Inactive)
REMARK    1  A    between atoms: O_3  and  C_22
REMARK    2  A    between atoms: O_4  and  C_23
REMARK    3  A    between atoms: O_4  and  C_28
REMARK    4  A    between atoms: N_7  and  C_19
REMARK    5  A    between atoms: C_9  and  C_15
REMARK    6  A    between atoms: C_10  and  C_14
REMARK    7  A    between atoms: C_14  and  C_16
REMARK    8  A    between atoms: C_15  and  C_17
REMARK    9  A    between atoms: C_19  and  C_21
REMARK   10  A    between atoms: C_20  and  C_22
REMARK                            x       y       z     vdW  Elec       q    Type
REMARK                         _______ _______ _______ _____ _____    ______ ____
ROOT
ATOM      6  N   UNL     1       7.729  10.694   3.683  0.00  0.00    -0.316 NA
ATOM      9  C   UNL     1       9.019   8.065   4.047  0.00  0.00    +0.004 C 
ATOM     10  C   UNL     1       8.879   9.095   5.195  0.00  0.00    +0.012 C 
ATOM     11  C   UNL     1       7.923   8.327   3.001  0.00  0.00    +0.019 C 
ATOM     12  C   UNL     1       8.806  10.534   4.660  0.00  0.00    +0.085 C 
ATOM     13  C   UNL     1       7.886   9.786   2.548  0.00  0.00    +0.081 C 
ATOM     29  H   UNL     1       7.719  11.656   3.346  0.00  0.00    +0.122 HD
ENDROOT
BRANCH  10  14
ATOM     14  C   UNL     1       9.977   8.968   6.251  0.00  0.00    +0.064 C 
BRANCH  14  16
ATOM      2  O   UNL     1       8.707   6.727   8.768  0.00  0.00    -0.348 OA
ATOM      8  N   UNL     1       8.679   7.921   8.057  0.00  0.00    -0.082 NA
ATOM     16  C   UNL     1       9.698   7.836   7.197  0.00  0.00    +0.085 A 
ATOM     18  C   UNL     1      10.398   6.623   7.318  0.00  0.00    +0.083 A 
ATOM     20  C   UNL     1       9.735   5.963   8.319  0.00  0.00    +0.244 A 
BRANCH  20  22
ATOM      5  O   UNL     1       9.735   4.387  10.118  0.00  0.00    -0.242 OA
ATOM     22  C   UNL     1       9.941   4.690   8.919  0.00  0.00    +0.375 C 
BRANCH  22   3
ATOM      3  O   UNL     1      10.414   3.739   8.049  0.00  0.00    -0.475 OA
ATOM     31  H   UNL     1      10.510   2.865   8.487  0.00  0.00    +0.296 HD
ENDBRANCH  22   3
ENDBRANCH  20  22
ENDBRANCH  14  16
ENDBRANCH  10  14
BRANCH   9  15
ATOM     15  C   UNL     1      10.405   8.047   3.393  0.00  0.00    +0.099 C 
BRANCH  15  17
ATOM      1  O   UNL     1      12.124   6.522   4.152  0.00  0.00    -0.276 OA
ATOM      7  N   UNL     1      10.377   5.715   2.850  0.00  0.00    -0.311 N 
ATOM     17  C   UNL     1      11.083   6.699   3.525  0.00  0.00    +0.214 C 
ATOM     30  H   UNL     1       9.510   5.950   2.376  0.00  0.00    +0.149 HD
BRANCH   7  19
ATOM     19  C   UNL     1      10.796   4.332   2.806  0.00  0.00    +0.143 C 
BRANCH  19  21
ATOM     21  C   UNL     1      11.669   4.048   1.618  0.00  0.00    +0.011 A 
ATOM     23  C   UNL     1      11.172   4.183   0.321  0.00  0.00    +0.125 A 
ATOM     24  C   UNL     1      12.988   3.647   1.821  0.00  0.00    +0.009 A 
ATOM     25  C   UNL     1      11.995   3.914  -0.773  0.00  0.00    +0.046 A 
ATOM     26  C   UNL     1      13.812   3.379   0.727  0.00  0.00    +0.001 A 
ATOM     27  C   UNL     1      13.316   3.513  -0.569  0.00  0.00    +0.004 A 
BRANCH  23   4
ATOM      4  O   UNL     1       9.885   4.574   0.104  0.00  0.00    -0.495 OA
ATOM     28  C   UNL     1       9.664   5.526  -0.936  0.00  0.00    +0.277 C 
ENDBRANCH  23   4
ENDBRANCH  19  21
ENDBRANCH   7  19
ENDBRANCH  15  17
ENDBRANCH   9  15
TORSDOF 9
ENDMDL
MODEL 4
REMARK VINA RESULT:      -6.3     13.311     17.756
REMARK  Name = 26742536
REMARK  10 active torsions:
REMARK  status: ('A' for Active; 'I' for Inactive)
REMARK    1  A    between atoms: O_3  and  C_22
REMARK    2  A    between atoms: O_4  and  C_23
REMARK    3  A    between atoms: O_4  and  C_28
REMARK    4  A    between atoms: N_7  and  C_19
REMARK    5  A    between atoms: C_9  and  C_15
REMARK    6  A    between atoms: C_10  and  C_14
REMARK    7  A    between atoms: C_14  and  C_16
REMARK    8  A    between atoms: C_15  and  C_17
REMARK    9  A    between atoms: C_19  and  C_21
REMARK   10  A    between atoms: C_20  and  C_22
REMARK                            x       y       z     vdW  Elec       q    Type
REMARK                         _______ _______ _______ _____ _____    ______ ____
ROOT
ATOM      6  N   UNL     1       7.934  11.271   4.264  0.00  0.00    -0.316 NA
ATOM      9  C   UNL     1       8.441   8.372   4.488  0.00  0.00    +0.004 C 
ATOM     10  C   UNL     1       8.896   9.387   5.565  0.00  0.00    +0.012 C 
ATOM     11  C   UNL     1       7.249   8.962   3.716  0.00  0.00    +0.019 C 
ATOM     12  C   UNL     1       9.122  10.785   4.968  0.00  0.00    +0.085 C 
ATOM     13  C   UNL     1       7.533  10.367   3.188  0.00  0.00    +0.081 C 
ATOM     29  H   UNL     1       8.126  12.194   3.876  0.00  0.00    +0.122 HD
ENDROOT
BRANCH  10  14
ATOM     14  C   UNL     1      10.132   8.926   6.338  0.00  0.00    +0.064 C 
BRANCH  14  16
ATOM      2  O   UNL     1       8.656   6.643   8.699  0.00  0.00    -0.348 OA
ATOM      8  N   UNL     1       8.635   7.800   7.930  0.00  0.00    -0.082 NA
ATOM     16  C   UNL     1       9.802   7.803   7.278  0.00  0.00    +0.085 A 
ATOM     18  C   UNL     1      10.593   6.685   7.594  0.00  0.00    +0.083 A 
ATOM     20  C   UNL     1       9.827   5.988   8.491  0.00  0.00    +0.244 A 
BRANCH  20  22
ATOM      5  O   UNL     1       9.985   4.595  10.429  0.00  0.00    -0.242 OA
ATOM     22  C   UNL     1      10.050   4.770   9.189  0.00  0.00    +0.375 C 
BRANCH  22   3
ATOM      3  O   UNL     1      10.366   3.713   8.370  0.00  0.00    -0.475 OA
ATOM     31  H   UNL     1      10.330   2.859   8.853  0.00  0.00    +0.296 HD
ENDBRANCH  22   3
ENDBRANCH  20  22
ENDBRANCH  14  16
ENDBRANCH  10  14
BRANCH   9  15
ATOM     15  C   UNL     1       9.555   7.942   3.528  0.00  0.00    +0.099 C 
BRANCH  15  17
ATOM      1  O   UNL     1       9.318   5.713   4.441  0.00  0.00    -0.276 OA
ATOM      7  N   UNL     1      10.920   6.112   2.805  0.00  0.00    -0.311 N 
ATOM     17  C   UNL     1       9.892   6.472   3.664  0.00  0.00    +0.214 C 
ATOM     30  H   UNL     1      11.320   6.804   2.179  0.00  0.00    +0.149 HD
BRANCH   7  19
ATOM     19  C   UNL     1      11.448   4.769   2.724  0.00  0.00    +0.143 C 
BRANCH  19  21
ATOM     21  C   UNL     1      11.642   4.326   1.303  0.00  0.00    +0.011 A 
ATOM     23  C   UNL     1      12.771   3.596   0.933  0.00  0.00    +0.125 A 
ATOM     24  C   UNL     1      10.679   4.653   0.349  0.00  0.00    +0.009 A 
ATOM     25  C   UNL     1      12.937   3.192  -0.392  0.00  0.00    +0.046 A 
ATOM     26  C   UNL     1      10.844   4.248  -0.976  0.00  0.00    +0.001 A 
ATOM     27  C   UNL     1      11.973   3.518  -1.347  0.00  0.00    +0.004 A 
BRANCH  23   4
ATOM      4  O   UNL     1      13.722   3.268   1.852  0.00  0.00    -0.495 OA
ATOM     28  C   UNL     1      15.078   3.553   1.510  0.00  0.00    +0.277 C 
ENDBRANCH  23   4
ENDBRANCH  19  21
ENDBRANCH   7  19
ENDBRANCH  15  17
ENDBRANCH   9  15
TORSDOF 9
ENDMDL
MODEL 5
REMARK VINA RESULT:      -6.0     14.505     18.999
REMARK  Name = 26742536
REMARK  10 active torsions:
REMARK  status: ('A' for Active; 'I' for Inactive)
REMARK    1  A    between atoms: O_3  and  C_22
REMARK    2  A    between atoms: O_4  and  C_23
REMARK    3  A    between atoms: O_4  and  C_28
REMARK    4  A    between atoms: N_7  and  C_19
REMARK    5  A    between atoms: C_9  and  C_15
REMARK    6  A    between atoms: C_10  and  C_14
REMARK    7  A    between atoms: C_14  and  C_16
REMARK    8  A    between atoms: C_15  and  C_17
REMARK    9  A    between atoms: C_19  and  C_21
REMARK   10  A    between atoms: C_20  and  C_22
REMARK                            x       y       z     vdW  Elec       q    Type
REMARK                         _______ _______ _______ _____ _____    ______ ____
ROOT
ATOM      6  N   UNL     1      12.683   7.219   4.723  0.00  0.00    -0.316 NA
ATOM      9  C   UNL     1      10.719   5.844   3.002  0.00  0.00    +0.004 C 
ATOM     10  C   UNL     1      10.441   6.177   4.488  0.00  0.00    +0.012 C 
ATOM     11  C   UNL     1      11.778   6.819   2.459  0.00  0.00    +0.019 C 
ATOM     12  C   UNL     1      11.742   6.261   5.303  0.00  0.00    +0.085 C 
ATOM     13  C   UNL     1      13.023   6.879   3.343  0.00  0.00    +0.081 C 
ATOM     29  H   UNL     1      13.533   7.240   5.285  0.00  0.00    +0.122 HD
ENDROOT
BRANCH  10  14
ATOM     14  C   UNL     1       9.457   5.209   5.144  0.00  0.00    +0.064 C 
BRANCH  14  16
ATOM      2  O   UNL     1       9.004   6.525   8.465  0.00  0.00    -0.348 OA
ATOM      8  N   UNL     1       8.990   6.649   7.081  0.00  0.00    -0.082 NA
ATOM     16  C   UNL     1       9.358   5.448   6.623  0.00  0.00    +0.085 A 
ATOM     18  C   UNL     1       9.613   4.536   7.662  0.00  0.00    +0.083 A 
ATOM     20  C   UNL     1       9.376   5.262   8.799  0.00  0.00    +0.244 A 
BRANCH  20  22
ATOM      5  O   UNL     1      10.498   4.737  10.845  0.00  0.00    -0.242 OA
ATOM     22  C   UNL     1       9.452   4.925  10.177  0.00  0.00    +0.375 C 
BRANCH  22   3
ATOM      3  O   UNL     1       8.227   4.804  10.786  0.00  0.00    -0.475 OA
ATOM     31  H   UNL     1       7.884   3.886  10.727  0.00  0.00    +0.296 HD
ENDBRANCH  22   3
ENDBRANCH  20  22
ENDBRANCH  14  16
ENDBRANCH  10  14
BRANCH   9  15
ATOM     15  C   UNL     1      11.139   4.391   2.757  0.00  0.00    +0.099 C 
BRANCH  15  17
ATOM      1  O   UNL     1      10.144   4.081   0.573  0.00  0.00    -0.276 OA
ATOM      7  N   UNL     1      12.411   3.662   0.864  0.00  0.00    -0.311 N 
ATOM     17  C   UNL     1      11.144   4.036   1.284  0.00  0.00    +0.214 C 
ATOM     30  H   UNL     1      13.186   3.677   1.520  0.00  0.00    +0.149 HD
BRANCH   7  19
ATOM     19  C   UNL     1      12.708   3.269  -0.495  0.00  0.00    +0.143 C 
BRANCH  19  21
ATOM     21  C   UNL     1      13.854   4.052  -1.068  0.00  0.00    +0.011 A 
ATOM     23  C   UNL     1      13.672   4.864  -2.187  0.00  0.00    +0.125 A 
ATOM     24  C   UNL     1      15.110   3.962  -0.469  0.00  0.00    +0.009 A 
ATOM     25  C   UNL     1      14.747   5.585  -2.708  0.00  0.00    +0.046 A 
ATOM     26  C   UNL     1      16.185   4.683  -0.989  0.00  0.00    +0.001 A 
ATOM     27  C   UNL     1      16.004   5.495  -2.109  0.00  0.00    +0.004 A 
BRANCH  23   4
ATOM      4  O   UNL     1      12.452   4.964  -2.786  0.00  0.00    -0.495 OA
ATOM     28  C   UNL     1      12.187   6.158  -3.521  0.00  0.00    +0.277 C 
ENDBRANCH  23   4
ENDBRANCH  19  21
ENDBRANCH   7  19
ENDBRANCH  15  17
ENDBRANCH   9  15
TORSDOF 9
ENDMDL
MODEL 6
REMARK VINA RESULT:      -5.9     25.443     27.576
REMARK  Name = 26742536
REMARK  10 active torsions:
REMARK  status: ('A' for Active; 'I' for Inactive)
REMARK    1  A    between atoms: O_3  and  C_22
REMARK    2  A    between atoms: O_4  and  C_23
REMARK    3  A    between atoms: O_4  and  C_28
REMARK    4  A    between atoms: N_7  and  C_19
REMARK    5  A    between atoms: C_9  and  C_15
REMARK    6  A    between atoms: C_10  and  C_14
REMARK    7  A    between atoms: C_14  and  C_16
REMARK    8  A    between atoms: C_15  and  C_17
REMARK    9  A    between atoms: C_19  and  C_21
REMARK   10  A    between atoms: C_20  and  C_22
REMARK                            x       y       z     vdW  Elec       q    Type
REMARK                         _______ _______ _______ _____ _____    ______ ____
ROOT
ATOM      6  N   UNL     1     -14.215   4.790  21.771  0.00  0.00    -0.316 NA
ATOM      9  C   UNL     1     -14.136   7.484  20.569  0.00  0.00    +0.004 C 
ATOM     10  C   UNL     1     -12.876   6.596  20.717  0.00  0.00    +0.012 C 
ATOM     11  C   UNL     1     -15.383   6.583  20.538  0.00  0.00    +0.019 C 
ATOM     12  C   UNL     1     -13.011   5.612  21.890  0.00  0.00    +0.085 C 
ATOM     13  C   UNL     1     -15.426   5.606  21.711  0.00  0.00    +0.081 C 
ATOM     29  H   UNL     1     -14.273   4.159  22.570  0.00  0.00    +0.122 HD
ENDROOT
BRANCH  10  14
ATOM     14  C   UNL     1     -11.585   7.405  20.839  0.00  0.00    +0.064 C 
BRANCH  14  16
ATOM      2  O   UNL     1     -10.343   9.356  18.079  0.00  0.00    -0.348 OA
ATOM      8  N   UNL     1     -10.625   9.174  19.427  0.00  0.00    -0.082 NA
ATOM     16  C   UNL     1     -11.152   7.948  19.508  0.00  0.00    +0.085 A 
ATOM     18  C   UNL     1     -11.226   7.316  18.255  0.00  0.00    +0.083 A 
ATOM     20  C   UNL     1     -10.705   8.243  17.391  0.00  0.00    +0.244 A 
BRANCH  20  22
ATOM      5  O   UNL     1     -10.650   9.183  15.192  0.00  0.00    -0.242 OA
ATOM     22  C   UNL     1     -10.498   8.223  15.985  0.00  0.00    +0.375 C 
BRANCH  22   3
ATOM      3  O   UNL     1     -10.092   7.002  15.503  0.00  0.00    -0.475 OA
ATOM     31  H   UNL     1      -9.468   7.101  14.752  0.00  0.00    +0.296 HD
ENDBRANCH  22   3
ENDBRANCH  20  22
ENDBRANCH  14  16
ENDBRANCH  10  14
BRANCH   9  15
ATOM     15  C   UNL     1     -14.269   8.563  21.649  0.00  0.00    +0.099 C 
BRANCH  15  17
ATOM      1  O   UNL     1     -15.803  10.268  20.878  0.00  0.00    -0.276 OA
ATOM      7  N   UNL     1     -13.515  10.667  20.790  0.00  0.00    -0.311 N 
ATOM     17  C   UNL     1     -14.644   9.911  21.069  0.00  0.00    +0.214 C 
ATOM     30  H   UNL     1     -12.594  10.297  21.003  0.00  0.00    +0.149 HD
BRANCH   7  19
ATOM     19  C   UNL     1     -13.575  11.996  20.226  0.00  0.00    +0.143 C 
BRANCH  19  21
ATOM     21  C   UNL     1     -12.778  12.105  18.959  0.00  0.00    +0.011 A 
ATOM     23  C   UNL     1     -13.224  11.502  17.783  0.00  0.00    +0.125 A 
ATOM     24  C   UNL     1     -11.580  12.819  18.965  0.00  0.00    +0.009 A 
ATOM     25  C   UNL     1     -12.472  11.612  16.613  0.00  0.00    +0.046 A 
ATOM     26  C   UNL     1     -10.828  12.930  17.795  0.00  0.00    +0.001 A 
ATOM     27  C   UNL     1     -11.273  12.326  16.619  0.00  0.00    +0.004 A 
BRANCH  23   4
ATOM      4  O   UNL     1     -14.392  10.800  17.759  0.00  0.00    -0.495 OA
ATOM     28  C   UNL     1     -14.313   9.423  17.396  0.00  0.00    +0.277 C 
ENDBRANCH  23   4
ENDBRANCH  19  21
ENDBRANCH   7  19
ENDBRANCH  15  17
ENDBRANCH   9  15
TORSDOF 9
ENDMDL
MODEL 7
REMARK VINA RESULT:      -5.8     25.585     28.136
REMARK  Name = 26742536
REMARK  10 active torsions:
REMARK  status: ('A' for Active; 'I' for Inactive)
REMARK    1  A    between atoms: O_3  and  C_22
REMARK    2  A    between atoms: O_4  and  C_23
REMARK    3  A    between atoms: O_4  and  C_28
REMARK    4  A    between atoms: N_7  and  C_19
REMARK    5  A    between atoms: C_9  and  C_15
REMARK    6  A    between atoms: C_10  and  C_14
REMARK    7  A    between atoms: C_14  and  C_16
REMARK    8  A    between atoms: C_15  and  C_17
REMARK    9  A    between atoms: C_19  and  C_21
REMARK   10  A    between atoms: C_20  and  C_22
REMARK                            x       y       z     vdW  Elec       q    Type
REMARK                         _______ _______ _______ _____ _____    ______ ____
ROOT
ATOM      6  N   UNL     1     -14.236   4.349  22.048  0.00  0.00    -0.316 NA
ATOM      9  C   UNL     1     -14.234   6.991  20.734  0.00  0.00    +0.004 C 
ATOM     10  C   UNL     1     -12.939   6.180  20.983  0.00  0.00    +0.012 C 
ATOM     11  C   UNL     1     -15.429   6.025  20.680  0.00  0.00    +0.019 C 
ATOM     12  C   UNL     1     -13.084   5.239  22.190  0.00  0.00    +0.085 C 
ATOM     13  C   UNL     1     -15.483   5.096  21.891  0.00  0.00    +0.081 C 
ATOM     29  H   UNL     1     -14.303   3.749  22.869  0.00  0.00    +0.122 HD
ENDROOT
BRANCH  10  14
ATOM     14  C   UNL     1     -11.700   7.062  21.133  0.00  0.00    +0.064 C 
BRANCH  14  16
ATOM      2  O   UNL     1     -11.048   9.450  18.519  0.00  0.00    -0.348 OA
ATOM      8  N   UNL     1     -11.369   9.120  19.830  0.00  0.00    -0.082 NA
ATOM     16  C   UNL     1     -11.383   7.783  19.855  0.00  0.00    +0.085 A 
ATOM     18  C   UNL     1     -11.082   7.223  18.602  0.00  0.00    +0.083 A 
ATOM     20  C   UNL     1     -10.880   8.313  17.798  0.00  0.00    +0.244 A 
BRANCH  20  22
ATOM      5  O   UNL     1     -10.440   9.495  15.766  0.00  0.00    -0.242 OA
ATOM     22  C   UNL     1     -10.544   8.431  16.421  0.00  0.00    +0.375 C 
BRANCH  22   3
ATOM      3  O   UNL     1     -10.325   7.226  15.800  0.00  0.00    -0.475 OA
ATOM     31  H   UNL     1      -9.373   6.987  15.803  0.00  0.00    +0.296 HD
ENDBRANCH  22   3
ENDBRANCH  20  22
ENDBRANCH  14  16
ENDBRANCH  10  14
BRANCH   9  15
ATOM     15  C   UNL     1     -14.478   8.105  21.757  0.00  0.00    +0.099 C 
BRANCH  15  17
ATOM      1  O   UNL     1     -14.762  10.508  21.735  0.00  0.00    -0.276 OA
ATOM      7  N   UNL     1     -14.498   9.371  19.725  0.00  0.00    -0.311 N 
ATOM     17  C   UNL     1     -14.598   9.467  21.105  0.00  0.00    +0.214 C 
ATOM     30  H   UNL     1     -14.339   8.467  19.291  0.00  0.00    +0.149 HD
BRANCH   7  19
ATOM     19  C   UNL     1     -14.579  10.516  18.847  0.00  0.00    +0.143 C 
BRANCH  19  21
ATOM     21  C   UNL     1     -14.302  10.148  17.417  0.00  0.00    +0.011 A 
ATOM     23  C   UNL     1     -13.885  11.114  16.502  0.00  0.00    +0.125 A 
ATOM     24  C   UNL     1     -14.465   8.825  17.009  0.00  0.00    +0.009 A 
ATOM     25  C   UNL     1     -13.632  10.758  15.178  0.00  0.00    +0.046 A 
ATOM     26  C   UNL     1     -14.211   8.467  15.685  0.00  0.00    +0.001 A 
ATOM     27  C   UNL     1     -13.795   9.433  14.769  0.00  0.00    +0.004 A 
BRANCH  23   4
ATOM      4  O   UNL     1     -13.721  12.412  16.883  0.00  0.00    -0.495 OA
ATOM     28  C   UNL     1     -12.679  13.148  16.244  0.00  0.00    +0.277 C 
ENDBRANCH  23   4
ENDBRANCH  19  21
ENDBRANCH   7  19
ENDBRANCH  15  17
ENDBRANCH   9  15
TORSDOF 9
ENDMDL
MODEL 8
REMARK VINA RESULT:      -5.8     26.138     29.501
REMARK  Name = 26742536
REMARK  10 active torsions:
REMARK  status: ('A' for Active; 'I' for Inactive)
REMARK    1  A    between atoms: O_3  and  C_22
REMARK    2  A    between atoms: O_4  and  C_23
REMARK    3  A    between atoms: O_4  and  C_28
REMARK    4  A    between atoms: N_7  and  C_19
REMARK    5  A    between atoms: C_9  and  C_15
REMARK    6  A    between atoms: C_10  and  C_14
REMARK    7  A    between atoms: C_14  and  C_16
REMARK    8  A    between atoms: C_15  and  C_17
REMARK    9  A    between atoms: C_19  and  C_21
REMARK   10  A    between atoms: C_20  and  C_22
REMARK                            x       y       z     vdW  Elec       q    Type
REMARK                         _______ _______ _______ _____ _____    ______ ____
ROOT
ATOM      6  N   UNL     1     -18.249   6.613  21.400  0.00  0.00    -0.316 NA
ATOM      9  C   UNL     1     -15.444   5.832  20.919  0.00  0.00    +0.004 C 
ATOM     10  C   UNL     1     -16.284   5.260  22.088  0.00  0.00    +0.012 C 
ATOM     11  C   UNL     1     -16.392   6.297  19.801  0.00  0.00    +0.019 C 
ATOM     12  C   UNL     1     -17.390   6.235  22.522  0.00  0.00    +0.085 C 
ATOM     13  C   UNL     1     -17.487   7.230  20.316  0.00  0.00    +0.081 C 
ATOM     29  H   UNL     1     -18.962   7.265  21.725  0.00  0.00    +0.122 HD
ENDROOT
BRANCH  10  14
ATOM     14  C   UNL     1     -15.434   4.842  23.288  0.00  0.00    +0.064 C 
BRANCH  14  16
ATOM      2  O   UNL     1     -16.849   1.618  24.039  0.00  0.00    -0.348 OA
ATOM      8  N   UNL     1     -16.463   2.614  23.150  0.00  0.00    -0.082 NA
ATOM     16  C   UNL     1     -15.958   3.585  23.919  0.00  0.00    +0.085 A 
ATOM     18  C   UNL     1     -16.000   3.260  25.285  0.00  0.00    +0.083 A 
ATOM     20  C   UNL     1     -16.568   2.014  25.307  0.00  0.00    +0.244 A 
BRANCH  20  22
ATOM      5  O   UNL     1     -17.616   0.112  26.311  0.00  0.00    -0.242 OA
ATOM     22  C   UNL     1     -16.888   1.131  26.375  0.00  0.00    +0.375 C 
BRANCH  22   3
ATOM      3  O   UNL     1     -16.313   1.482  27.572  0.00  0.00    -0.475 OA
ATOM     31  H   UNL     1     -16.751   2.268  27.965  0.00  0.00    +0.296 HD
ENDBRANCH  22   3
ENDBRANCH  20  22
ENDBRANCH  14  16
ENDBRANCH  10  14
BRANCH   9  15
ATOM     15  C   UNL     1     -14.491   6.959  21.331  0.00  0.00    +0.099 C 
BRANCH  15  17
ATOM      1  O   UNL     1     -12.330   5.902  21.590  0.00  0.00    -0.276 OA
ATOM      7  N   UNL     1     -12.684   7.353  19.809  0.00  0.00    -0.311 N 
ATOM     17  C   UNL     1     -13.055   6.661  20.952  0.00  0.00    +0.214 C 
ATOM     30  H   UNL     1     -13.361   7.943  19.334  0.00  0.00    +0.149 HD
BRANCH   7  19
ATOM     19  C   UNL     1     -11.367   7.260  19.222  0.00  0.00    +0.143 C 
BRANCH  19  21
ATOM     21  C   UNL     1     -10.963   8.537  18.544  0.00  0.00    +0.011 A 
ATOM     23  C   UNL     1     -10.990   9.749  19.235  0.00  0.00    +0.125 A 
ATOM     24  C   UNL     1     -10.556   8.503  17.211  0.00  0.00    +0.009 A 
ATOM     25  C   UNL     1     -10.612  10.927  18.591  0.00  0.00    +0.046 A 
ATOM     26  C   UNL     1     -10.177   9.681  16.567  0.00  0.00    +0.001 A 
ATOM     27  C   UNL     1     -10.205  10.893  17.257  0.00  0.00    +0.004 A 
BRANCH  23   4
ATOM      4  O   UNL     1     -11.385   9.801  20.538  0.00  0.00    -0.495 OA
ATOM     28  C   UNL     1     -12.288  10.844  20.900  0.00  0.00    +0.277 C 
ENDBRANCH  23   4
ENDBRANCH  19  21
ENDBRANCH   7  19
ENDBRANCH  15  17
ENDBRANCH   9  15
TORSDOF 9
ENDMDL
MODEL 9
REMARK VINA RESULT:      -5.8     25.262     28.068
REMARK  Name = 26742536
REMARK  10 active torsions:
REMARK  status: ('A' for Active; 'I' for Inactive)
REMARK    1  A    between atoms: O_3  and  C_22
REMARK    2  A    between atoms: O_4  and  C_23
REMARK    3  A    between atoms: O_4  and  C_28
REMARK    4  A    between atoms: N_7  and  C_19
REMARK    5  A    between atoms: C_9  and  C_15
REMARK    6  A    between atoms: C_10  and  C_14
REMARK    7  A    between atoms: C_14  and  C_16
REMARK    8  A    between atoms: C_15  and  C_17
REMARK    9  A    between atoms: C_19  and  C_21
REMARK   10  A    between atoms: C_20  and  C_22
REMARK                            x       y       z     vdW  Elec       q    Type
REMARK                         _______ _______ _______ _____ _____    ______ ____
ROOT
ATOM      6  N   UNL     1     -16.088   5.106  20.918  0.00  0.00    -0.316 NA
ATOM      9  C   UNL     1     -15.088   7.823  21.487  0.00  0.00    +0.004 C 
ATOM     10  C   UNL     1     -14.194   6.711  20.884  0.00  0.00    +0.012 C 
ATOM     11  C   UNL     1     -16.558   7.519  21.155  0.00  0.00    +0.019 C 
ATOM     12  C   UNL     1     -14.686   5.310  21.283  0.00  0.00    +0.085 C 
ATOM     13  C   UNL     1     -16.962   6.098  21.541  0.00  0.00    +0.081 C 
ATOM     29  H   UNL     1     -16.379   4.172  21.205  0.00  0.00    +0.122 HD
ENDROOT
BRANCH  10  14
ATOM     14  C   UNL     1     -12.714   6.879  21.229  0.00  0.00    +0.064 C 
BRANCH  14  16
ATOM      2  O   UNL     1     -11.033   9.366  19.241  0.00  0.00    -0.348 OA
ATOM      8  N   UNL     1     -11.678   8.948  20.398  0.00  0.00    -0.082 NA
ATOM     16  C   UNL     1     -11.993   7.668  20.175  0.00  0.00    +0.085 A 
ATOM     18  C   UNL     1     -11.576   7.230  18.906  0.00  0.00    +0.083 A 
ATOM     20  C   UNL     1     -10.978   8.335  18.360  0.00  0.00    +0.244 A 
BRANCH  20  22
ATOM      5  O   UNL     1      -9.988   9.658  16.631  0.00  0.00    -0.242 OA
ATOM     22  C   UNL     1     -10.353   8.555  17.103  0.00  0.00    +0.375 C 
BRANCH  22   3
ATOM      3  O   UNL     1     -10.155   7.406  16.375  0.00  0.00    -0.475 OA
ATOM     31  H   UNL     1      -9.255   7.041  16.515  0.00  0.00    +0.296 HD
ENDBRANCH  22   3
ENDBRANCH  20  22
ENDBRANCH  14  16
ENDBRANCH  10  14
BRANCH   9  15
ATOM     15  C   UNL     1     -14.899   8.025  22.994  0.00  0.00    +0.099 C 
BRANCH  15  17
ATOM      1  O   UNL     1     -14.113  10.255  22.481  0.00  0.00    -0.276 OA
ATOM      7  N   UNL     1     -14.392   9.627  24.700  0.00  0.00    -0.311 N 
ATOM     17  C   UNL     1     -14.425   9.424  23.329  0.00  0.00    +0.214 C 
ATOM     30  H   UNL     1     -14.691   8.886  25.328  0.00  0.00    +0.149 HD
BRANCH   7  19
ATOM     19  C   UNL     1     -13.977  10.872  25.305  0.00  0.00    +0.143 C 
BRANCH  19  21
ATOM     21  C   UNL     1     -12.809  10.684  26.230  0.00  0.00    +0.011 A 
ATOM     23  C   UNL     1     -13.009  10.457  27.592  0.00  0.00    +0.125 A 
ATOM     24  C   UNL     1     -11.514  10.739  25.716  0.00  0.00    +0.009 A 
ATOM     25  C   UNL     1     -11.914  10.285  28.439  0.00  0.00    +0.046 A 
ATOM     26  C   UNL     1     -10.419  10.567  26.562  0.00  0.00    +0.001 A 
ATOM     27  C   UNL     1     -10.618  10.340  27.924  0.00  0.00    +0.004 A 
BRANCH  23   4
ATOM      4  O   UNL     1     -14.267  10.401  28.112  0.00  0.00    -0.495 OA
ATOM     28  C   UNL     1     -14.538  11.227  29.244  0.00  0.00    +0.277 C 
ENDBRANCH  23   4
ENDBRANCH  19  21
ENDBRANCH   7  19
ENDBRANCH  15  17
ENDBRANCH   9  15
TORSDOF 9
ENDMDL
MODEL 10
REMARK VINA RESULT:      -5.7      3.225      4.291
REMARK  Name = 26742536
REMARK  10 active torsions:
REMARK  status: ('A' for Active; 'I' for Inactive)
REMARK    1  A    between atoms: O_3  and  C_22
REMARK    2  A    between atoms: O_4  and  C_23
REMARK    3  A    between atoms: O_4  and  C_28
REMARK    4  A    between atoms: N_7  and  C_19
REMARK    5  A    between atoms: C_9  and  C_15
REMARK    6  A    between atoms: C_10  and  C_14
REMARK    7  A    between atoms: C_14  and  C_16
REMARK    8  A    between atoms: C_15  and  C_17
REMARK    9  A    between atoms: C_19  and  C_21
REMARK   10  A    between atoms: C_20  and  C_22
REMARK                            x       y       z     vdW  Elec       q    Type
REMARK                         _______ _______ _______ _____ _____    ______ ____
ROOT
ATOM      6  N   UNL     1      10.166  12.391  24.183  0.00  0.00    -0.316 NA
ATOM      9  C   UNL     1      12.346  11.732  22.307  0.00  0.00    +0.004 C 
ATOM     10  C   UNL     1      11.243  10.718  22.697  0.00  0.00    +0.012 C 
ATOM     11  C   UNL     1      11.809  13.159  22.506  0.00  0.00    +0.019 C 
ATOM     12  C   UNL     1      10.663  11.018  24.088  0.00  0.00    +0.085 C 
ATOM     13  C   UNL     1      11.214  13.369  23.897  0.00  0.00    +0.081 C 
ATOM     29  H   UNL     1       9.799  12.553  25.120  0.00  0.00    +0.122 HD
ENDROOT
BRANCH  10  14
ATOM     14  C   UNL     1      11.707   9.264  22.609  0.00  0.00    +0.064 C 
BRANCH  14  16
ATOM      2  O   UNL     1      10.915   8.281  19.238  0.00  0.00    -0.348 OA
ATOM      8  N   UNL     1      10.570   8.796  20.481  0.00  0.00    -0.082 NA
ATOM     16  C   UNL     1      11.702   8.772  21.191  0.00  0.00    +0.085 A 
ATOM     18  C   UNL     1      12.783   8.257  20.455  0.00  0.00    +0.083 A 
ATOM     20  C   UNL     1      12.235   7.963  19.234  0.00  0.00    +0.244 A 
BRANCH  20  22
ATOM      5  O   UNL     1      14.012   7.329  17.764  0.00  0.00    -0.242 OA
ATOM     22  C   UNL     1      12.793   7.416  18.047  0.00  0.00    +0.375 C 
BRANCH  22   3
ATOM      3  O   UNL     1      11.855   6.953  17.157  0.00  0.00    -0.475 OA
ATOM     31  H   UNL     1      12.105   6.077  16.791  0.00  0.00    +0.296 HD
ENDBRANCH  22   3
ENDBRANCH  20  22
ENDBRANCH  14  16
ENDBRANCH  10  14
BRANCH   9  15
ATOM     15  C   UNL     1      13.667  11.535  23.059  0.00  0.00    +0.099 C 
BRANCH  15  17
ATOM      1  O   UNL     1      15.374   9.988  22.320  0.00  0.00    -0.276 OA
ATOM      7  N   UNL     1      15.017  11.949  21.125  0.00  0.00    -0.311 N 
ATOM     17  C   UNL     1      14.776  11.047  22.151  0.00  0.00    +0.214 C 
ATOM     30  H   UNL     1      14.456  12.792  21.052  0.00  0.00    +0.149 HD
BRANCH   7  19
ATOM     19  C   UNL     1      16.025  11.741  20.111  0.00  0.00    +0.143 C 
BRANCH  19  21
ATOM     21  C   UNL     1      15.428  11.643  18.737  0.00  0.00    +0.011 A 
ATOM     23  C   UNL     1      16.079  12.201  17.637  0.00  0.00    +0.125 A 
ATOM     24  C   UNL     1      14.210  10.987  18.567  0.00  0.00    +0.009 A 
ATOM     25  C   UNL     1      15.511  12.103  16.366  0.00  0.00    +0.046 A 
ATOM     26  C   UNL     1      13.642  10.887  17.297  0.00  0.00    +0.001 A 
ATOM     27  C   UNL     1      14.292  11.445  16.196  0.00  0.00    +0.004 A 
BRANCH  23   4
ATOM      4  O   UNL     1      17.269  12.847  17.784  0.00  0.00    -0.495 OA
ATOM     28  C   UNL     1      17.808  13.485  16.627  0.00  0.00    +0.277 C 
ENDBRANCH  23   4
ENDBRANCH  19  21
ENDBRANCH   7  19
ENDBRANCH  15  17
ENDBRANCH   9  15
TORSDOF 9
ENDMDL
