MODEL 1
REMARK VINA RESULT:      -7.9      0.000      0.000
REMARK  Name = 51137442
REMARK  5 active torsions:
REMARK  status: ('A' for Active; 'I' for Inactive)
REMARK    1  A    between atoms: N_3  and  C_10
REMARK    2  A    between atoms: C_6  and  C_11
REMARK    3  A    between atoms: C_10  and  C_12
REMARK    4  A    between atoms: C_14  and  C_17
REMARK    5  A    between atoms: C_26  and  C_27
REMARK                            x       y       z     vdW  Elec       q    Type
REMARK                         _______ _______ _______ _____ _____    ______ ____
ROOT
ATOM      3  N   UNL     1     -16.813   3.196  25.899  0.00  0.00    -0.294 NA
ATOM      6  C   UNL     1     -16.346   4.910  24.369  0.00  0.00    +0.092 C 
ATOM      7  C   UNL     1     -17.867   4.692  24.448  0.00  0.00    +0.029 C 
ATOM      8  C   UNL     1     -15.739   3.659  25.018  0.00  0.00    +0.097 C 
ATOM      9  C   UNL     1     -18.036   3.329  25.105  0.00  0.00    +0.085 C 
ENDROOT
BRANCH   6  11
ATOM      1  O   UNL     1     -14.819   6.093  22.863  0.00  0.00    -0.420 OA
ATOM      4  N   UNL     1     -16.165   4.631  21.834  0.00  0.00    -0.112 NA
ATOM      5  N   UNL     1     -15.363   5.222  20.875  0.00  0.00    -0.107 NA
ATOM     11  C   UNL     1     -15.813   5.170  22.978  0.00  0.00    +0.222 A 
ATOM     14  C   UNL     1     -14.595   6.067  21.520  0.00  0.00    +0.248 A 
BRANCH  14  17
ATOM     17  C   UNL     1     -13.572   6.951  21.039  0.00  0.00    +0.038 A 
ATOM     22  C   UNL     1     -13.895   8.260  20.681  0.00  0.00    +0.013 A 
ATOM     23  C   UNL     1     -12.256   6.502  20.931  0.00  0.00    +0.013 A 
ATOM     24  C   UNL     1     -12.901   9.120  20.215  0.00  0.00    +0.004 A 
ATOM     25  C   UNL     1     -11.262   7.362  20.464  0.00  0.00    +0.004 A 
ATOM     26  C   UNL     1     -11.585   8.672  20.106  0.00  0.00    -0.050 A 
ATOM     27  C   UNL     1     -10.522   9.591  19.606  0.00  0.00    +0.044 C 
ENDBRANCH  14  17
ENDBRANCH   6  11
BRANCH   3  10
ATOM     10  C   UNL     1     -16.600   1.834  26.366  0.00  0.00    +0.158 C 
BRANCH  10  12
ATOM      2  O   UNL     1     -16.057   0.572  28.374  0.00  0.00    -0.458 OA
ATOM     12  C   UNL     1     -16.122   1.799  27.793  0.00  0.00    +0.120 A 
ATOM     13  C   UNL     1     -15.721   2.777  28.674  0.00  0.00    +0.054 A 
ATOM     15  C   UNL     1     -15.384   2.113  29.883  0.00  0.00    +0.020 A 
ATOM     16  C   UNL     1     -15.608   0.760  29.647  0.00  0.00    +0.135 A 
ATOM     18  C   UNL     1     -14.915   2.505  31.149  0.00  0.00    +0.011 A 
ATOM     19  C   UNL     1     -15.397  -0.243  30.591  0.00  0.00    +0.047 A 
ATOM     20  C   UNL     1     -14.694   1.518  32.120  0.00  0.00    +0.001 A 
ATOM     21  C   UNL     1     -14.930   0.170  31.842  0.00  0.00    +0.004 A 
ENDBRANCH  10  12
ENDBRANCH   3  10
TORSDOF 4
ENDMDL
MODEL 2
REMARK VINA RESULT:      -7.8      1.348      9.809
REMARK  Name = 51137442
REMARK  5 active torsions:
REMARK  status: ('A' for Active; 'I' for Inactive)
REMARK    1  A    between atoms: N_3  and  C_10
REMARK    2  A    between atoms: C_6  and  C_11
REMARK    3  A    between atoms: C_10  and  C_12
REMARK    4  A    between atoms: C_14  and  C_17
REMARK    5  A    between atoms: C_26  and  C_27
REMARK                            x       y       z     vdW  Elec       q    Type
REMARK                         _______ _______ _______ _____ _____    ______ ____
ROOT
ATOM      3  N   UNL     1     -16.263   4.153  23.775  0.00  0.00    -0.294 NA
ATOM      6  C   UNL     1     -16.481   2.118  24.919  0.00  0.00    +0.092 C 
ATOM      7  C   UNL     1     -17.663   2.290  23.950  0.00  0.00    +0.029 C 
ATOM      8  C   UNL     1     -15.861   3.517  25.031  0.00  0.00    +0.097 C 
ATOM      9  C   UNL     1     -17.664   3.771  23.591  0.00  0.00    +0.085 C 
ENDROOT
BRANCH   6  11
ATOM      1  O   UNL     1     -16.080   1.900  27.325  0.00  0.00    -0.420 OA
ATOM      4  N   UNL     1     -17.801   0.684  26.574  0.00  0.00    -0.112 NA
ATOM      5  N   UNL     1     -17.688   0.470  27.936  0.00  0.00    -0.107 NA
ATOM     11  C   UNL     1     -16.842   1.525  26.262  0.00  0.00    +0.222 A 
ATOM     14  C   UNL     1     -16.671   1.199  28.331  0.00  0.00    +0.248 A 
BRANCH  14  17
ATOM     17  C   UNL     1     -16.098   1.369  29.635  0.00  0.00    +0.038 A 
ATOM     22  C   UNL     1     -15.512   0.283  30.286  0.00  0.00    +0.013 A 
ATOM     23  C   UNL     1     -16.125   2.620  30.252  0.00  0.00    +0.013 A 
ATOM     24  C   UNL     1     -14.954   0.448  31.553  0.00  0.00    +0.004 A 
ATOM     25  C   UNL     1     -15.567   2.785  31.519  0.00  0.00    +0.004 A 
ATOM     26  C   UNL     1     -14.981   1.699  32.170  0.00  0.00    -0.050 A 
ATOM     27  C   UNL     1     -14.385   1.876  33.525  0.00  0.00    +0.044 C 
ENDBRANCH  14  17
ENDBRANCH   6  11
BRANCH   3  10
ATOM     10  C   UNL     1     -16.080   5.596  23.799  0.00  0.00    +0.158 C 
BRANCH  10  12
ATOM      2  O   UNL     1     -14.874   7.350  22.621  0.00  0.00    -0.458 OA
ATOM     12  C   UNL     1     -14.924   6.030  22.938  0.00  0.00    +0.120 A 
ATOM     13  C   UNL     1     -13.864   5.354  22.378  0.00  0.00    +0.054 A 
ATOM     15  C   UNL     1     -13.104   6.319  21.666  0.00  0.00    +0.020 A 
ATOM     16  C   UNL     1     -13.766   7.530  21.846  0.00  0.00    +0.135 A 
ATOM     18  C   UNL     1     -11.932   6.304  20.890  0.00  0.00    +0.011 A 
ATOM     19  C   UNL     1     -13.342   8.740  21.304  0.00  0.00    +0.047 A 
ATOM     20  C   UNL     1     -11.480   7.507  20.331  0.00  0.00    +0.001 A 
ATOM     21  C   UNL     1     -12.174   8.702  20.536  0.00  0.00    +0.004 A 
ENDBRANCH  10  12
ENDBRANCH   3  10
TORSDOF 4
ENDMDL
MODEL 3
REMARK VINA RESULT:      -7.7     30.525     34.525
REMARK  Name = 51137442
REMARK  5 active torsions:
REMARK  status: ('A' for Active; 'I' for Inactive)
REMARK    1  A    between atoms: N_3  and  C_10
REMARK    2  A    between atoms: C_6  and  C_11
REMARK    3  A    between atoms: C_10  and  C_12
REMARK    4  A    between atoms: C_14  and  C_17
REMARK    5  A    between atoms: C_26  and  C_27
REMARK                            x       y       z     vdW  Elec       q    Type
REMARK                         _______ _______ _______ _____ _____    ______ ____
ROOT
ATOM      3  N   UNL     1      17.630   8.311  20.896  0.00  0.00    -0.294 NA
ATOM      6  C   UNL     1      19.494   6.892  20.998  0.00  0.00    +0.092 C 
ATOM      7  C   UNL     1      18.282   6.110  20.464  0.00  0.00    +0.029 C 
ATOM      8  C   UNL     1      18.896   8.163  21.616  0.00  0.00    +0.097 C 
ATOM      9  C   UNL     1      17.072   6.959  20.832  0.00  0.00    +0.085 C 
ENDROOT
BRANCH   6  11
ATOM      1  O   UNL     1      21.091   5.089  21.447  0.00  0.00    -0.420 OA
ATOM      4  N   UNL     1      20.555   6.304  23.248  0.00  0.00    -0.112 NA
ATOM      5  N   UNL     1      21.456   5.332  23.641  0.00  0.00    -0.107 NA
ATOM     11  C   UNL     1      20.371   6.125  21.961  0.00  0.00    +0.222 A 
ATOM     14  C   UNL     1      21.740   4.647  22.559  0.00  0.00    +0.248 A 
BRANCH  14  17
ATOM     17  C   UNL     1      22.615   3.525  22.368  0.00  0.00    +0.038 A 
ATOM     22  C   UNL     1      22.947   2.710  23.450  0.00  0.00    +0.013 A 
ATOM     23  C   UNL     1      23.130   3.250  21.101  0.00  0.00    +0.013 A 
ATOM     24  C   UNL     1      23.796   1.619  23.265  0.00  0.00    +0.004 A 
ATOM     25  C   UNL     1      23.979   2.159  20.917  0.00  0.00    +0.004 A 
ATOM     26  C   UNL     1      24.312   1.343  21.999  0.00  0.00    -0.050 A 
ATOM     27  C   UNL     1      25.221   0.177  21.801  0.00  0.00    +0.044 C 
ENDBRANCH  14  17
ENDBRANCH   6  11
BRANCH   3  10
ATOM     10  C   UNL     1      16.730   9.253  21.543  0.00  0.00    +0.158 C 
BRANCH  10  12
ATOM      2  O   UNL     1      14.412   8.667  21.998  0.00  0.00    -0.458 OA
ATOM     12  C   UNL     1      15.310   9.089  21.069  0.00  0.00    +0.120 A 
ATOM     13  C   UNL     1      14.699   9.278  19.851  0.00  0.00    +0.054 A 
ATOM     15  C   UNL     1      13.329   8.954  20.036  0.00  0.00    +0.020 A 
ATOM     16  C   UNL     1      13.204   8.585  21.372  0.00  0.00    +0.135 A 
ATOM     18  C   UNL     1      12.182   8.931  19.224  0.00  0.00    +0.011 A 
ATOM     19  C   UNL     1      12.008   8.190  21.965  0.00  0.00    +0.047 A 
ATOM     20  C   UNL     1      10.963   8.538  19.793  0.00  0.00    +0.001 A 
ATOM     21  C   UNL     1      10.880   8.175  21.139  0.00  0.00    +0.004 A 
ENDBRANCH  10  12
ENDBRANCH   3  10
TORSDOF 4
ENDMDL
MODEL 4
REMARK VINA RESULT:      -7.3     31.062     35.212
REMARK  Name = 51137442
REMARK  5 active torsions:
REMARK  status: ('A' for Active; 'I' for Inactive)
REMARK    1  A    between atoms: N_3  and  C_10
REMARK    2  A    between atoms: C_6  and  C_11
REMARK    3  A    between atoms: C_10  and  C_12
REMARK    4  A    between atoms: C_14  and  C_17
REMARK    5  A    between atoms: C_26  and  C_27
REMARK                            x       y       z     vdW  Elec       q    Type
REMARK                         _______ _______ _______ _____ _____    ______ ____
ROOT
ATOM      3  N   UNL     1      17.628   6.705  20.564  0.00  0.00    -0.294 NA
ATOM      6  C   UNL     1      19.882   6.355  21.107  0.00  0.00    +0.092 C 
ATOM      7  C   UNL     1      19.532   5.563  19.837  0.00  0.00    +0.029 C 
ATOM      8  C   UNL     1      18.526   6.729  21.720  0.00  0.00    +0.097 C 
ATOM      9  C   UNL     1      18.010   5.506  19.815  0.00  0.00    +0.085 C 
ENDROOT
BRANCH   6  11
ATOM      1  O   UNL     1      21.483   4.567  21.593  0.00  0.00    -0.420 OA
ATOM      4  N   UNL     1      21.016   5.875  23.347  0.00  0.00    -0.112 NA
ATOM      5  N   UNL     1      21.925   4.917  23.758  0.00  0.00    -0.107 NA
ATOM     11  C   UNL     1      20.788   5.632  22.078  0.00  0.00    +0.222 A 
ATOM     14  C   UNL     1      22.168   4.176  22.703  0.00  0.00    +0.248 A 
BRANCH  14  17
ATOM     17  C   UNL     1      23.029   3.040  22.540  0.00  0.00    +0.038 A 
ATOM     22  C   UNL     1      23.531   2.722  21.278  0.00  0.00    +0.013 A 
ATOM     23  C   UNL     1      23.366   2.255  23.643  0.00  0.00    +0.013 A 
ATOM     24  C   UNL     1      24.369   1.619  21.120  0.00  0.00    +0.004 A 
ATOM     25  C   UNL     1      24.204   1.152  23.485  0.00  0.00    +0.004 A 
ATOM     26  C   UNL     1      24.706   0.834  22.222  0.00  0.00    -0.050 A 
ATOM     27  C   UNL     1      25.602  -0.347  22.053  0.00  0.00    +0.044 C 
ENDBRANCH  14  17
ENDBRANCH   6  11
BRANCH   3  10
ATOM     10  C   UNL     1      16.225   6.695  20.949  0.00  0.00    +0.158 C 
BRANCH  10  12
ATOM      2  O   UNL     1      14.283   6.848  19.491  0.00  0.00    -0.458 OA
ATOM     12  C   UNL     1      15.374   7.485  19.991  0.00  0.00    +0.120 A 
ATOM     13  C   UNL     1      15.464   8.763  19.490  0.00  0.00    +0.054 A 
ATOM     15  C   UNL     1      14.353   8.931  18.621  0.00  0.00    +0.020 A 
ATOM     16  C   UNL     1      13.659   7.726  18.656  0.00  0.00    +0.135 A 
ATOM     18  C   UNL     1      13.859   9.967  17.809  0.00  0.00    +0.011 A 
ATOM     19  C   UNL     1      12.495   7.473  17.934  0.00  0.00    +0.047 A 
ATOM     20  C   UNL     1      12.690   9.742  17.070  0.00  0.00    +0.001 A 
ATOM     21  C   UNL     1      12.022   8.517  17.134  0.00  0.00    +0.004 A 
ENDBRANCH  10  12
ENDBRANCH   3  10
TORSDOF 4
ENDMDL
MODEL 5
REMARK VINA RESULT:      -7.3     20.068     22.665
REMARK  Name = 51137442
REMARK  5 active torsions:
REMARK  status: ('A' for Active; 'I' for Inactive)
REMARK    1  A    between atoms: N_3  and  C_10
REMARK    2  A    between atoms: C_6  and  C_11
REMARK    3  A    between atoms: C_10  and  C_12
REMARK    4  A    between atoms: C_14  and  C_17
REMARK    5  A    between atoms: C_26  and  C_27
REMARK                            x       y       z     vdW  Elec       q    Type
REMARK                         _______ _______ _______ _____ _____    ______ ____
ROOT
ATOM      3  N   UNL     1      -2.147 -10.957  14.046  0.00  0.00    -0.294 NA
ATOM      6  C   UNL     1      -3.272 -10.288  15.992  0.00  0.00    +0.092 C 
ATOM      7  C   UNL     1      -1.814 -10.636  16.336  0.00  0.00    +0.029 C 
ATOM      8  C   UNL     1      -3.501 -10.898  14.602  0.00  0.00    +0.097 C 
ATOM      9  C   UNL     1      -1.310 -11.441  15.145  0.00  0.00    +0.085 C 
ENDROOT
BRANCH   6  11
ATOM      1  O   UNL     1      -5.547 -10.231  16.897  0.00  0.00    -0.420 OA
ATOM      4  N   UNL     1      -4.156 -11.584  18.011  0.00  0.00    -0.112 NA
ATOM      5  N   UNL     1      -5.394 -11.647  18.622  0.00  0.00    -0.107 NA
ATOM     11  C   UNL     1      -4.292 -10.746  17.010  0.00  0.00    +0.222 A 
ATOM     14  C   UNL     1      -6.173 -10.842  17.940  0.00  0.00    +0.248 A 
BRANCH  14  17
ATOM     17  C   UNL     1      -7.559 -10.514  18.118  0.00  0.00    +0.038 A 
ATOM     22  C   UNL     1      -8.157  -9.551  17.305  0.00  0.00    +0.013 A 
ATOM     23  C   UNL     1      -8.308 -11.158  19.103  0.00  0.00    +0.013 A 
ATOM     24  C   UNL     1      -9.503  -9.232  17.478  0.00  0.00    +0.004 A 
ATOM     25  C   UNL     1      -9.654 -10.840  19.275  0.00  0.00    +0.004 A 
ATOM     26  C   UNL     1     -10.253  -9.876  18.462  0.00  0.00    -0.050 A 
ATOM     27  C   UNL     1     -11.693  -9.535  18.647  0.00  0.00    +0.044 C 
ENDBRANCH  14  17
ENDBRANCH   6  11
BRANCH   3  10
ATOM     10  C   UNL     1      -2.066 -11.811  12.870  0.00  0.00    +0.158 C 
BRANCH  10  12
ATOM      2  O   UNL     1      -3.694 -12.006  11.072  0.00  0.00    -0.458 OA
ATOM     12  C   UNL     1      -2.783 -11.210  11.691  0.00  0.00    +0.120 A 
ATOM     13  C   UNL     1      -2.714  -9.981  11.076  0.00  0.00    +0.054 A 
ATOM     15  C   UNL     1      -3.645 -10.016  10.004  0.00  0.00    +0.020 A 
ATOM     16  C   UNL     1      -4.222 -11.282  10.045  0.00  0.00    +0.135 A 
ATOM     18  C   UNL     1      -4.064  -9.120   9.006  0.00  0.00    +0.011 A 
ATOM     19  C   UNL     1      -5.195 -11.726   9.154  0.00  0.00    +0.047 A 
ATOM     20  C   UNL     1      -5.043  -9.538   8.094  0.00  0.00    +0.001 A 
ATOM     21  C   UNL     1      -5.597 -10.818   8.170  0.00  0.00    +0.004 A 
ENDBRANCH  10  12
ENDBRANCH   3  10
TORSDOF 4
ENDMDL
MODEL 6
REMARK VINA RESULT:      -7.2      1.477      9.926
REMARK  Name = 51137442
REMARK  5 active torsions:
REMARK  status: ('A' for Active; 'I' for Inactive)
REMARK    1  A    between atoms: N_3  and  C_10
REMARK    2  A    between atoms: C_6  and  C_11
REMARK    3  A    between atoms: C_10  and  C_12
REMARK    4  A    between atoms: C_14  and  C_17
REMARK    5  A    between atoms: C_26  and  C_27
REMARK                            x       y       z     vdW  Elec       q    Type
REMARK                         _______ _______ _______ _____ _____    ______ ____
ROOT
ATOM      3  N   UNL     1     -15.353   5.782  22.648  0.00  0.00    -0.294 NA
ATOM      6  C   UNL     1     -16.007   3.687  23.475  0.00  0.00    +0.092 C 
ATOM      7  C   UNL     1     -17.051   4.188  22.462  0.00  0.00    +0.029 C 
ATOM      8  C   UNL     1     -15.177   4.930  23.826  0.00  0.00    +0.097 C 
ATOM      9  C   UNL     1     -16.775   5.680  22.318  0.00  0.00    +0.085 C 
ENDROOT
BRANCH   6  11
ATOM      1  O   UNL     1     -15.833   3.031  25.828  0.00  0.00    -0.420 OA
ATOM      4  N   UNL     1     -17.721   2.363  24.832  0.00  0.00    -0.112 NA
ATOM      5  N   UNL     1     -17.754   1.930  26.145  0.00  0.00    -0.107 NA
ATOM     11  C   UNL     1     -16.583   3.000  24.692  0.00  0.00    +0.222 A 
ATOM     14  C   UNL     1     -16.632   2.342  26.687  0.00  0.00    +0.248 A 
BRANCH  14  17
ATOM     17  C   UNL     1     -16.129   2.182  28.021  0.00  0.00    +0.038 A 
ATOM     22  C   UNL     1     -16.254   0.954  28.671  0.00  0.00    +0.013 A 
ATOM     23  C   UNL     1     -15.512   3.254  28.667  0.00  0.00    +0.013 A 
ATOM     24  C   UNL     1     -15.763   0.799  29.967  0.00  0.00    +0.004 A 
ATOM     25  C   UNL     1     -15.022   3.099  29.963  0.00  0.00    +0.004 A 
ATOM     26  C   UNL     1     -15.147   1.870  30.613  0.00  0.00    -0.050 A 
ATOM     27  C   UNL     1     -14.623   1.705  32.000  0.00  0.00    +0.044 C 
ENDBRANCH  14  17
ENDBRANCH   6  11
BRANCH   3  10
ATOM     10  C   UNL     1     -14.937   7.155  22.890  0.00  0.00    +0.158 C 
BRANCH  10  12
ATOM      2  O   UNL     1     -13.568   8.911  21.908  0.00  0.00    -0.458 OA
ATOM     12  C   UNL     1     -13.832   7.579  21.958  0.00  0.00    +0.120 A 
ATOM     13  C   UNL     1     -13.000   6.885  21.111  0.00  0.00    +0.054 A 
ATOM     15  C   UNL     1     -12.161   7.850  20.494  0.00  0.00    +0.020 A 
ATOM     16  C   UNL     1     -12.549   9.080  21.018  0.00  0.00    +0.135 A 
ATOM     18  C   UNL     1     -11.118   7.821  19.553  0.00  0.00    +0.011 A 
ATOM     19  C   UNL     1     -11.969  10.296  20.668  0.00  0.00    +0.047 A 
ATOM     20  C   UNL     1     -10.514   9.030  19.181  0.00  0.00    +0.001 A 
ATOM     21  C   UNL     1     -10.933  10.243  19.730  0.00  0.00    +0.004 A 
ENDBRANCH  10  12
ENDBRANCH   3  10
TORSDOF 4
ENDMDL
MODEL 7
REMARK VINA RESULT:      -7.1     18.602     20.664
REMARK  Name = 51137442
REMARK  5 active torsions:
REMARK  status: ('A' for Active; 'I' for Inactive)
REMARK    1  A    between atoms: N_3  and  C_10
REMARK    2  A    between atoms: C_6  and  C_11
REMARK    3  A    between atoms: C_10  and  C_12
REMARK    4  A    between atoms: C_14  and  C_17
REMARK    5  A    between atoms: C_26  and  C_27
REMARK                            x       y       z     vdW  Elec       q    Type
REMARK                         _______ _______ _______ _____ _____    ______ ____
ROOT
ATOM      3  N   UNL     1      -4.279 -11.457  16.620  0.00  0.00    -0.294 NA
ATOM      6  C   UNL     1      -5.910 -10.228  17.772  0.00  0.00    +0.092 C 
ATOM      7  C   UNL     1      -5.180 -11.158  18.755  0.00  0.00    +0.029 C 
ATOM      8  C   UNL     1      -5.549 -10.769  16.382  0.00  0.00    +0.097 C 
ATOM      9  C   UNL     1      -4.474 -12.183  17.876  0.00  0.00    +0.085 C 
ENDROOT
BRANCH   6  11
ATOM      1  O   UNL     1      -8.072  -9.217  17.220  0.00  0.00    -0.420 OA
ATOM      4  N   UNL     1      -8.175 -10.771  18.827  0.00  0.00    -0.112 NA
ATOM      5  N   UNL     1      -9.453 -10.287  18.617  0.00  0.00    -0.107 NA
ATOM     11  C   UNL     1      -7.402 -10.118  17.991  0.00  0.00    +0.222 A 
ATOM     14  C   UNL     1      -9.345  -9.383  17.673  0.00  0.00    +0.248 A 
BRANCH  14  17
ATOM     17  C   UNL     1     -10.343  -8.560  17.052  0.00  0.00    +0.038 A 
ATOM     22  C   UNL     1      -9.967  -7.397  16.379  0.00  0.00    +0.013 A 
ATOM     23  C   UNL     1     -11.688  -8.922  17.121  0.00  0.00    +0.013 A 
ATOM     24  C   UNL     1     -10.936  -6.597  15.776  0.00  0.00    +0.004 A 
ATOM     25  C   UNL     1     -12.658  -8.122  16.517  0.00  0.00    +0.004 A 
ATOM     26  C   UNL     1     -12.281  -6.959  15.844  0.00  0.00    -0.050 A 
ATOM     27  C   UNL     1     -13.319  -6.103  15.199  0.00  0.00    +0.044 C 
ENDBRANCH  14  17
ENDBRANCH   6  11
BRANCH   3  10
ATOM     10  C   UNL     1      -3.909 -12.338  15.522  0.00  0.00    +0.158 C 
BRANCH  10  12
ATOM      2  O   UNL     1      -4.345 -11.281  13.374  0.00  0.00    -0.458 OA
ATOM     12  C   UNL     1      -3.418 -11.567  14.326  0.00  0.00    +0.120 A 
ATOM     13  C   UNL     1      -2.186 -11.069  13.970  0.00  0.00    +0.054 A 
ATOM     15  C   UNL     1      -2.359 -10.430  12.714  0.00  0.00    +0.020 A 
ATOM     16  C   UNL     1      -3.704 -10.589  12.390  0.00  0.00    +0.135 A 
ATOM     18  C   UNL     1      -1.530  -9.737  11.815  0.00  0.00    +0.011 A 
ATOM     19  C   UNL     1      -4.289 -10.102  11.224  0.00  0.00    +0.047 A 
ATOM     20  C   UNL     1      -2.091  -9.236  10.632  0.00  0.00    +0.001 A 
ATOM     21  C   UNL     1      -3.446  -9.416  10.345  0.00  0.00    +0.004 A 
ENDBRANCH  10  12
ENDBRANCH   3  10
TORSDOF 4
ENDMDL
MODEL 8
REMARK VINA RESULT:      -7.1     31.497     35.535
REMARK  Name = 51137442
REMARK  5 active torsions:
REMARK  status: ('A' for Active; 'I' for Inactive)
REMARK    1  A    between atoms: N_3  and  C_10
REMARK    2  A    between atoms: C_6  and  C_11
REMARK    3  A    between atoms: C_10  and  C_12
REMARK    4  A    between atoms: C_14  and  C_17
REMARK    5  A    between atoms: C_26  and  C_27
REMARK                            x       y       z     vdW  Elec       q    Type
REMARK                         _______ _______ _______ _____ _____    ______ ____
ROOT
ATOM      3  N   UNL     1      21.161   5.758  21.882  0.00  0.00    -0.294 NA
ATOM      6  C   UNL     1      19.435   6.740  20.635  0.00  0.00    +0.092 C 
ATOM      7  C   UNL     1      19.409   7.293  22.070  0.00  0.00    +0.029 C 
ATOM      8  C   UNL     1      20.319   5.488  20.715  0.00  0.00    +0.097 C 
ATOM      9  C   UNL     1      20.250   6.316  22.883  0.00  0.00    +0.085 C 
ENDROOT
BRANCH   6  11
ATOM      1  O   UNL     1      17.004   7.045  20.646  0.00  0.00    -0.420 OA
ATOM      4  N   UNL     1      17.752   5.732  18.996  0.00  0.00    -0.112 NA
ATOM      5  N   UNL     1      16.376   5.818  18.884  0.00  0.00    -0.107 NA
ATOM     11  C   UNL     1      18.074   6.463  20.037  0.00  0.00    +0.222 A 
ATOM     14  C   UNL     1      15.984   6.593  19.867  0.00  0.00    +0.248 A 
BRANCH  14  17
ATOM     17  C   UNL     1      14.669   7.031  20.240  0.00  0.00    +0.038 A 
ATOM     22  C   UNL     1      13.609   6.894  19.344  0.00  0.00    +0.013 A 
ATOM     23  C   UNL     1      14.452   7.593  21.498  0.00  0.00    +0.013 A 
ATOM     24  C   UNL     1      12.331   7.319  19.706  0.00  0.00    +0.004 A 
ATOM     25  C   UNL     1      13.174   8.018  21.860  0.00  0.00    +0.004 A 
ATOM     26  C   UNL     1      12.113   7.880  20.964  0.00  0.00    -0.050 A 
ATOM     27  C   UNL     1      10.747   8.336  21.351  0.00  0.00    +0.044 C 
ENDBRANCH  14  17
ENDBRANCH   6  11
BRANCH   3  10
ATOM     10  C   UNL     1      21.847   4.567  22.359  0.00  0.00    +0.158 C 
BRANCH  10  12
ATOM      2  O   UNL     1      23.702   5.396  21.020  0.00  0.00    -0.458 OA
ATOM     12  C   UNL     1      23.122   4.312  21.600  0.00  0.00    +0.120 A 
ATOM     13  C   UNL     1      23.858   3.176  21.355  0.00  0.00    +0.054 A 
ATOM     15  C   UNL     1      24.971   3.581  20.571  0.00  0.00    +0.020 A 
ATOM     16  C   UNL     1      24.829   4.954  20.393  0.00  0.00    +0.135 A 
ATOM     18  C   UNL     1      26.080   2.940  19.992  0.00  0.00    +0.011 A 
ATOM     19  C   UNL     1      25.721   5.744  19.672  0.00  0.00    +0.047 A 
ATOM     20  C   UNL     1      26.995   3.710  19.261  0.00  0.00    +0.001 A 
ATOM     21  C   UNL     1      26.817   5.086  19.106  0.00  0.00    +0.004 A 
ENDBRANCH  10  12
ENDBRANCH   3  10
TORSDOF 4
ENDMDL
MODEL 9
REMARK VINA RESULT:      -7.1      6.778      8.244
REMARK  Name = 51137442
REMARK  5 active torsions:
REMARK  status: ('A' for Active; 'I' for Inactive)
REMARK    1  A    between atoms: N_3  and  C_10
REMARK    2  A    between atoms: C_6  and  C_11
REMARK    3  A    between atoms: C_10  and  C_12
REMARK    4  A    between atoms: C_14  and  C_17
REMARK    5  A    between atoms: C_26  and  C_27
REMARK                            x       y       z     vdW  Elec       q    Type
REMARK                         _______ _______ _______ _____ _____    ______ ____
ROOT
ATOM      3  N   UNL     1     -13.450   7.418  33.635  0.00  0.00    -0.294 NA
ATOM      6  C   UNL     1     -11.749   8.767  32.749  0.00  0.00    +0.092 C 
ATOM      7  C   UNL     1     -11.996   9.151  34.218  0.00  0.00    +0.029 C 
ATOM      8  C   UNL     1     -12.979   7.939  32.351  0.00  0.00    +0.097 C 
ATOM      9  C   UNL     1     -13.353   8.549  34.559  0.00  0.00    +0.085 C 
ENDROOT
BRANCH   6  11
ATOM      1  O   UNL     1     -11.699   9.716  30.492  0.00  0.00    -0.420 OA
ATOM      4  N   UNL     1     -11.111  11.156  32.101  0.00  0.00    -0.112 NA
ATOM      5  N   UNL     1     -11.040  11.817  30.888  0.00  0.00    -0.107 NA
ATOM     11  C   UNL     1     -11.499   9.934  31.821  0.00  0.00    +0.222 A 
ATOM     14  C   UNL     1     -11.390  10.939  29.979  0.00  0.00    +0.248 A 
BRANCH  14  17
ATOM     17  C   UNL     1     -11.499  11.066  28.554  0.00  0.00    +0.038 A 
ATOM     22  C   UNL     1     -10.999  10.062  27.725  0.00  0.00    +0.013 A 
ATOM     23  C   UNL     1     -12.107  12.192  27.998  0.00  0.00    +0.013 A 
ATOM     24  C   UNL     1     -11.106  10.184  26.340  0.00  0.00    +0.004 A 
ATOM     25  C   UNL     1     -12.213  12.314  26.613  0.00  0.00    +0.004 A 
ATOM     26  C   UNL     1     -11.713  11.310  25.783  0.00  0.00    -0.050 A 
ATOM     27  C   UNL     1     -11.826  11.442  24.302  0.00  0.00    +0.044 C 
ENDBRANCH  14  17
ENDBRANCH   6  11
BRANCH   3  10
ATOM     10  C   UNL     1     -14.800   6.881  33.555  0.00  0.00    +0.158 C 
BRANCH  10  12
ATOM      2  O   UNL     1     -14.870   5.059  31.944  0.00  0.00    -0.458 OA
ATOM     12  C   UNL     1     -14.801   5.406  33.256  0.00  0.00    +0.120 A 
ATOM     13  C   UNL     1     -14.747   4.286  34.054  0.00  0.00    +0.054 A 
ATOM     15  C   UNL     1     -14.783   3.168  33.178  0.00  0.00    +0.020 A 
ATOM     16  C   UNL     1     -14.859   3.697  31.893  0.00  0.00    +0.135 A 
ATOM     18  C   UNL     1     -14.760   1.771  33.329  0.00  0.00    +0.011 A 
ATOM     19  C   UNL     1     -14.914   2.927  30.734  0.00  0.00    +0.047 A 
ATOM     20  C   UNL     1     -14.816   0.970  32.181  0.00  0.00    +0.001 A 
ATOM     21  C   UNL     1     -14.890   1.540  30.908  0.00  0.00    +0.004 A 
ENDBRANCH  10  12
ENDBRANCH   3  10
TORSDOF 4
ENDMDL
MODEL 10
REMARK VINA RESULT:      -7.1     21.470     22.679
REMARK  Name = 51137442
REMARK  5 active torsions:
REMARK  status: ('A' for Active; 'I' for Inactive)
REMARK    1  A    between atoms: N_3  and  C_10
REMARK    2  A    between atoms: C_6  and  C_11
REMARK    3  A    between atoms: C_10  and  C_12
REMARK    4  A    between atoms: C_14  and  C_17
REMARK    5  A    between atoms: C_26  and  C_27
REMARK                            x       y       z     vdW  Elec       q    Type
REMARK                         _______ _______ _______ _____ _____    ______ ____
ROOT
ATOM      3  N   UNL     1      -3.283 -11.426  13.773  0.00  0.00    -0.294 NA
ATOM      6  C   UNL     1      -4.122 -11.387  11.583  0.00  0.00    +0.092 C 
ATOM      7  C   UNL     1      -2.885 -12.300  11.643  0.00  0.00    +0.029 C 
ATOM      8  C   UNL     1      -4.065 -10.568  12.880  0.00  0.00    +0.097 C 
ATOM      9  C   UNL     1      -2.186 -11.931  12.945  0.00  0.00    +0.085 C 
ENDROOT
BRANCH   6  11
ATOM      1  O   UNL     1      -4.911 -11.033   9.292  0.00  0.00    -0.420 OA
ATOM      4  N   UNL     1      -3.720  -9.330  10.120  0.00  0.00    -0.112 NA
ATOM      5  N   UNL     1      -4.099  -9.000   8.832  0.00  0.00    -0.107 NA
ATOM     11  C   UNL     1      -4.215 -10.524  10.346  0.00  0.00    +0.222 A 
ATOM     14  C   UNL     1      -4.791 -10.022   8.388  0.00  0.00    +0.248 A 
BRANCH  14  17
ATOM     17  C   UNL     1      -5.431 -10.235   7.122  0.00  0.00    +0.038 A 
ATOM     22  C   UNL     1      -4.949 -11.215   6.254  0.00  0.00    +0.013 A 
ATOM     23  C   UNL     1      -6.536  -9.463   6.760  0.00  0.00    +0.013 A 
ATOM     24  C   UNL     1      -5.571 -11.422   5.023  0.00  0.00    +0.004 A 
ATOM     25  C   UNL     1      -7.158  -9.671   5.529  0.00  0.00    +0.004 A 
ATOM     26  C   UNL     1      -6.676 -10.651   4.661  0.00  0.00    -0.050 A 
ATOM     27  C   UNL     1      -7.341 -10.872   3.344  0.00  0.00    +0.044 C 
ENDBRANCH  14  17
ENDBRANCH   6  11
BRANCH   3  10
ATOM     10  C   UNL     1      -2.808 -10.716  14.951  0.00  0.00    +0.158 C 
BRANCH  10  12
ATOM      2  O   UNL     1      -3.534 -11.351  17.184  0.00  0.00    -0.458 OA
ATOM     12  C   UNL     1      -3.844 -10.684  16.043  0.00  0.00    +0.120 A 
ATOM     13  C   UNL     1      -5.088 -10.104  16.140  0.00  0.00    +0.054 A 
ATOM     15  C   UNL     1      -5.583 -10.432  17.430  0.00  0.00    +0.020 A 
ATOM     16  C   UNL     1      -4.591 -11.200  18.032  0.00  0.00    +0.135 A 
ATOM     18  C   UNL     1      -6.758 -10.167  18.155  0.00  0.00    +0.011 A 
ATOM     19  C   UNL     1      -4.684 -11.729  19.317  0.00  0.00    +0.047 A 
ATOM     20  C   UNL     1      -6.881 -10.686  19.451  0.00  0.00    +0.001 A 
ATOM     21  C   UNL     1      -5.860 -11.452  20.019  0.00  0.00    +0.004 A 
ENDBRANCH  10  12
ENDBRANCH   3  10
TORSDOF 4
ENDMDL
