MODEL 1
REMARK VINA RESULT:      -6.8      0.000      0.000
REMARK  Name = 45783973
REMARK  16 active torsions:
REMARK  status: ('A' for Active; 'I' for Inactive)
REMARK    1  A    between atoms: O_2  and  C_21
REMARK    2  A    between atoms: O_2  and  C_24
REMARK    3  A    between atoms: N_3  and  C_14
REMARK    4  A    between atoms: N_3  and  C_20
REMARK    5  A    between atoms: N_6  and  C_29
REMARK    6  A    between atoms: N_6  and  C_30
REMARK    7  A    between atoms: N_6  and  C_31
REMARK    8  A    between atoms: C_7  and  C_11
REMARK    9  A    between atoms: C_8  and  C_14
REMARK   10  A    between atoms: C_10  and  C_15
REMARK   11  A    between atoms: C_11  and  C_16
REMARK   12  A    between atoms: C_11  and  C_17
REMARK   13  A    between atoms: C_12  and  C_18
REMARK   14  A    between atoms: C_15  and  C_19
REMARK   15  A    between atoms: C_20  and  C_21
REMARK   16  A    between atoms: C_22  and  C_23
REMARK                            x       y       z     vdW  Elec       q    Type
REMARK                         _______ _______ _______ _____ _____    ______ ____
ROOT
ATOM      7  C   UNL     1      13.036   9.838  20.080  0.00  0.00    +0.000 C 
ATOM      8  C   UNL     1      11.583   9.805  20.618  0.00  0.00    +0.029 C 
ATOM      9  C   UNL     1      13.346   8.557  19.291  0.00  0.00    +0.012 C 
ATOM     10  C   UNL     1      13.171   7.288  20.148  0.00  0.00    +0.024 C 
ATOM     12  C   UNL     1      11.869   7.308  20.924  0.00  0.00    -0.073 C 
ATOM     13  C   UNL     1      11.167   8.440  21.112  0.00  0.00    -0.023 C 
ATOM     18  C   UNL     1      11.369   5.987  21.440  0.00  0.00    +0.039 C 
ENDROOT
BRANCH   7  11
ATOM     11  C   UNL     1      13.288  11.064  19.198  0.00  0.00    -0.013 C 
ATOM     16  C   UNL     1      13.610  10.636  17.770  0.00  0.00    +0.007 C 
ATOM     17  C   UNL     1      14.416  11.913  19.775  0.00  0.00    +0.007 C 
ENDBRANCH   7  11
BRANCH   8  14
ATOM     14  C   UNL     1      11.384  10.835  21.735  0.00  0.00    +0.088 C 
BRANCH  14   3
ATOM      3  N   UNL     1      10.551  10.290  22.793  0.00  0.00    -0.313 NA
ATOM     32  H   UNL     1       9.590  10.618  22.700  0.00  0.00    +0.122 HD
BRANCH   3  20
ATOM     20  C   UNL     1      11.060  10.664  24.107  0.00  0.00    +0.109 C 
BRANCH  20  21
ATOM     21  C   UNL     1      11.256  12.170  24.198  0.00  0.00    +0.174 C 
BRANCH  21   2
ATOM      2  O   UNL     1      10.801  12.613  25.469  0.00  0.00    -0.382 OA
ATOM     24  C   UNL     1      10.517  14.005  25.464  0.00  0.00    +0.194 C 
ENDBRANCH  21   2
ENDBRANCH  20  21
ENDBRANCH   3  20
ENDBRANCH  14   3
ENDBRANCH   8  14
BRANCH  10  15
ATOM     15  C   UNL     1      14.366   7.086  21.086  0.00  0.00    +0.105 C 
BRANCH  15  19
ATOM      1  O   UNL     1      16.773   6.689  20.989  0.00  0.00    -0.420 OA
ATOM      4  N   UNL     1      15.677   6.147  19.115  0.00  0.00    -0.112 NA
ATOM      5  N   UNL     1      17.018   5.872  18.921  0.00  0.00    -0.107 NA
ATOM     19  C   UNL     1      15.581   6.621  20.334  0.00  0.00    +0.218 A 
ATOM     22  C   UNL     1      17.619   6.204  20.039  0.00  0.00    +0.248 A 
BRANCH  22  23
ATOM     23  C   UNL     1      19.003   6.136  20.409  0.00  0.00    +0.039 A 
ATOM     25  C   UNL     1      19.730   4.968  20.178  0.00  0.00    +0.015 A 
ATOM     26  C   UNL     1      19.622   7.237  21.000  0.00  0.00    +0.015 A 
ATOM     27  C   UNL     1      21.075   4.901  20.537  0.00  0.00    +0.024 A 
ATOM     28  C   UNL     1      20.968   7.169  21.360  0.00  0.00    +0.024 A 
ATOM     29  C   UNL     1      21.694   6.002  21.129  0.00  0.00    +0.029 A 
BRANCH  29   6
ATOM      6  N   UNL     1      23.055   5.933  21.494  0.00  0.00    -0.336 N 
ATOM     30  C   UNL     1      23.459   5.226  22.694  0.00  0.00    +0.129 C 
ATOM     31  C   UNL     1      24.067   6.576  20.679  0.00  0.00    +0.129 C 
ENDBRANCH  29   6
ENDBRANCH  22  23
ENDBRANCH  15  19
ENDBRANCH  10  15
TORSDOF 10
ENDMDL
MODEL 2
REMARK VINA RESULT:      -6.4      1.995      3.030
REMARK  Name = 45783973
REMARK  16 active torsions:
REMARK  status: ('A' for Active; 'I' for Inactive)
REMARK    1  A    between atoms: O_2  and  C_21
REMARK    2  A    between atoms: O_2  and  C_24
REMARK    3  A    between atoms: N_3  and  C_14
REMARK    4  A    between atoms: N_3  and  C_20
REMARK    5  A    between atoms: N_6  and  C_29
REMARK    6  A    between atoms: N_6  and  C_30
REMARK    7  A    between atoms: N_6  and  C_31
REMARK    8  A    between atoms: C_7  and  C_11
REMARK    9  A    between atoms: C_8  and  C_14
REMARK   10  A    between atoms: C_10  and  C_15
REMARK   11  A    between atoms: C_11  and  C_16
REMARK   12  A    between atoms: C_11  and  C_17
REMARK   13  A    between atoms: C_12  and  C_18
REMARK   14  A    between atoms: C_15  and  C_19
REMARK   15  A    between atoms: C_20  and  C_21
REMARK   16  A    between atoms: C_22  and  C_23
REMARK                            x       y       z     vdW  Elec       q    Type
REMARK                         _______ _______ _______ _____ _____    ______ ____
ROOT
ATOM      7  C   UNL     1      14.530  10.332  20.645  0.00  0.00    +0.000 C 
ATOM      8  C   UNL     1      13.095  10.709  20.198  0.00  0.00    +0.029 C 
ATOM      9  C   UNL     1      15.292   9.659  19.493  0.00  0.00    +0.012 C 
ATOM     10  C   UNL     1      14.585   8.385  18.994  0.00  0.00    +0.024 C 
ATOM     12  C   UNL     1      13.100   8.609  18.785  0.00  0.00    -0.073 C 
ATOM     13  C   UNL     1      12.455   9.661  19.321  0.00  0.00    -0.023 C 
ATOM     18  C   UNL     1      12.384   7.620  17.908  0.00  0.00    +0.039 C 
ENDROOT
BRANCH   7  11
ATOM     11  C   UNL     1      15.311  11.554  21.140  0.00  0.00    -0.013 C 
ATOM     16  C   UNL     1      15.372  11.566  22.664  0.00  0.00    +0.007 C 
ATOM     17  C   UNL     1      14.678  12.839  20.614  0.00  0.00    +0.007 C 
ENDBRANCH   7  11
BRANCH   8  14
ATOM     14  C   UNL     1      12.194  10.983  21.407  0.00  0.00    +0.088 C 
BRANCH  14   3
ATOM      3  N   UNL     1      12.182   9.843  22.308  0.00  0.00    -0.313 NA
ATOM     32  H   UNL     1      12.625   9.035  21.872  0.00  0.00    +0.122 HD
BRANCH   3  20
ATOM     20  C   UNL     1      10.821   9.493  22.695  0.00  0.00    +0.109 C 
BRANCH  20  21
ATOM     21  C   UNL     1      10.548   8.021  22.424  0.00  0.00    +0.174 C 
BRANCH  21   2
ATOM      2  O   UNL     1      11.752   7.406  21.986  0.00  0.00    -0.382 OA
ATOM     24  C   UNL     1      11.495   6.183  21.309  0.00  0.00    +0.194 C 
ENDBRANCH  21   2
ENDBRANCH  20  21
ENDBRANCH   3  20
ENDBRANCH  14   3
ENDBRANCH   8  14
BRANCH  10  15
ATOM     15  C   UNL     1      14.834   7.207  19.943  0.00  0.00    +0.105 C 
BRANCH  15  19
ATOM      1  O   UNL     1      17.112   6.663  20.631  0.00  0.00    -0.420 OA
ATOM      4  N   UNL     1      16.547   5.868  18.617  0.00  0.00    -0.112 NA
ATOM      5  N   UNL     1      17.851   5.488  18.876  0.00  0.00    -0.107 NA
ATOM     19  C   UNL     1      16.156   6.551  19.667  0.00  0.00    +0.218 A 
ATOM     22  C   UNL     1      18.138   5.974  20.061  0.00  0.00    +0.248 A 
BRANCH  22  23
ATOM     23  C   UNL     1      19.344   5.892  20.834  0.00  0.00    +0.039 A 
ATOM     25  C   UNL     1      19.504   6.697  21.961  0.00  0.00    +0.015 A 
ATOM     26  C   UNL     1      20.355   5.008  20.459  0.00  0.00    +0.015 A 
ATOM     27  C   UNL     1      20.676   6.619  22.714  0.00  0.00    +0.024 A 
ATOM     28  C   UNL     1      21.526   4.930  21.212  0.00  0.00    +0.024 A 
ATOM     29  C   UNL     1      21.687   5.735  22.339  0.00  0.00    +0.029 A 
BRANCH  29   6
ATOM      6  N   UNL     1      22.872   5.656  23.099  0.00  0.00    -0.336 N 
ATOM     30  C   UNL     1      23.908   6.660  22.950  0.00  0.00    +0.129 C 
ATOM     31  C   UNL     1      23.074   4.568  24.034  0.00  0.00    +0.129 C 
ENDBRANCH  29   6
ENDBRANCH  22  23
ENDBRANCH  15  19
ENDBRANCH  10  15
TORSDOF 10
ENDMDL
MODEL 3
REMARK VINA RESULT:      -6.2     27.659     29.751
REMARK  Name = 45783973
REMARK  16 active torsions:
REMARK  status: ('A' for Active; 'I' for Inactive)
REMARK    1  A    between atoms: O_2  and  C_21
REMARK    2  A    between atoms: O_2  and  C_24
REMARK    3  A    between atoms: N_3  and  C_14
REMARK    4  A    between atoms: N_3  and  C_20
REMARK    5  A    between atoms: N_6  and  C_29
REMARK    6  A    between atoms: N_6  and  C_30
REMARK    7  A    between atoms: N_6  and  C_31
REMARK    8  A    between atoms: C_7  and  C_11
REMARK    9  A    between atoms: C_8  and  C_14
REMARK   10  A    between atoms: C_10  and  C_15
REMARK   11  A    between atoms: C_11  and  C_16
REMARK   12  A    between atoms: C_11  and  C_17
REMARK   13  A    between atoms: C_12  and  C_18
REMARK   14  A    between atoms: C_15  and  C_19
REMARK   15  A    between atoms: C_20  and  C_21
REMARK   16  A    between atoms: C_22  and  C_23
REMARK                            x       y       z     vdW  Elec       q    Type
REMARK                         _______ _______ _______ _____ _____    ______ ____
ROOT
ATOM      7  C   UNL     1      -6.465 -10.922  16.040  0.00  0.00    +0.000 C 
ATOM      8  C   UNL     1      -6.995 -10.983  17.495  0.00  0.00    +0.029 C 
ATOM      9  C   UNL     1      -5.404 -12.008  15.810  0.00  0.00    +0.012 C 
ATOM     10  C   UNL     1      -4.208 -11.867  16.771  0.00  0.00    +0.024 C 
ATOM     12  C   UNL     1      -4.658 -11.652  18.202  0.00  0.00    -0.073 C 
ATOM     13  C   UNL     1      -5.912 -11.270  18.507  0.00  0.00    -0.023 C 
ATOM     18  C   UNL     1      -3.647 -11.933  19.278  0.00  0.00    +0.039 C 
ENDROOT
BRANCH   7  11
ATOM     11  C   UNL     1      -7.595 -11.076  15.017  0.00  0.00    -0.013 C 
ATOM     16  C   UNL     1      -7.445 -12.385  14.250  0.00  0.00    +0.007 C 
ATOM     17  C   UNL     1      -7.612  -9.888  14.060  0.00  0.00    +0.007 C 
ENDBRANCH   7  11
BRANCH   8  14
ATOM     14  C   UNL     1      -7.717  -9.685  17.874  0.00  0.00    +0.088 C 
BRANCH  14   3
ATOM      3  N   UNL     1      -8.992  -9.973  18.509  0.00  0.00    -0.313 NA
ATOM     32  H   UNL     1      -9.205 -10.968  18.453  0.00  0.00    +0.122 HD
BRANCH   3  20
ATOM     20  C   UNL     1     -10.071  -9.215  17.887  0.00  0.00    +0.109 C 
BRANCH  20  21
ATOM     21  C   UNL     1      -9.513  -8.069  17.058  0.00  0.00    +0.174 C 
BRANCH  21   2
ATOM      2  O   UNL     1     -10.064  -8.141  15.750  0.00  0.00    -0.382 OA
ATOM     24  C   UNL     1     -11.128  -9.081  15.685  0.00  0.00    +0.194 C 
ENDBRANCH  21   2
ENDBRANCH  20  21
ENDBRANCH   3  20
ENDBRANCH  14   3
ENDBRANCH   8  14
BRANCH  10  15
ATOM     15  C   UNL     1      -3.265 -10.747  16.318  0.00  0.00    +0.105 C 
BRANCH  15  19
ATOM      1  O   UNL     1      -3.832 -10.462  13.961  0.00  0.00    -0.420 OA
ATOM      4  N   UNL     1      -1.815 -11.361  14.317  0.00  0.00    -0.112 NA
ATOM      5  N   UNL     1      -2.002 -11.258  12.951  0.00  0.00    -0.107 NA
ATOM     19  C   UNL     1      -2.907 -10.885  14.866  0.00  0.00    +0.218 A 
ATOM     22  C   UNL     1      -3.192 -10.729  12.790  0.00  0.00    +0.248 A 
BRANCH  22  23
ATOM     23  C   UNL     1      -3.909 -10.395  11.594  0.00  0.00    +0.039 A 
ATOM     25  C   UNL     1      -3.305  -9.602  10.618  0.00  0.00    +0.015 A 
ATOM     26  C   UNL     1      -5.209 -10.862  11.406  0.00  0.00    +0.015 A 
ATOM     27  C   UNL     1      -4.002  -9.276   9.454  0.00  0.00    +0.024 A 
ATOM     28  C   UNL     1      -5.906 -10.536  10.242  0.00  0.00    +0.024 A 
ATOM     29  C   UNL     1      -5.302  -9.743   9.267  0.00  0.00    +0.029 A 
BRANCH  29   6
ATOM      6  N   UNL     1      -6.007  -9.412   8.091  0.00  0.00    -0.336 N 
ATOM     30  C   UNL     1      -7.140  -8.508   8.143  0.00  0.00    +0.129 C 
ATOM     31  C   UNL     1      -5.613  -9.977   6.816  0.00  0.00    +0.129 C 
ENDBRANCH  29   6
ENDBRANCH  22  23
ENDBRANCH  15  19
ENDBRANCH  10  15
TORSDOF 10
ENDMDL
MODEL 4
REMARK VINA RESULT:      -6.1     27.365     30.075
REMARK  Name = 45783973
REMARK  16 active torsions:
REMARK  status: ('A' for Active; 'I' for Inactive)
REMARK    1  A    between atoms: O_2  and  C_21
REMARK    2  A    between atoms: O_2  and  C_24
REMARK    3  A    between atoms: N_3  and  C_14
REMARK    4  A    between atoms: N_3  and  C_20
REMARK    5  A    between atoms: N_6  and  C_29
REMARK    6  A    between atoms: N_6  and  C_30
REMARK    7  A    between atoms: N_6  and  C_31
REMARK    8  A    between atoms: C_7  and  C_11
REMARK    9  A    between atoms: C_8  and  C_14
REMARK   10  A    between atoms: C_10  and  C_15
REMARK   11  A    between atoms: C_11  and  C_16
REMARK   12  A    between atoms: C_11  and  C_17
REMARK   13  A    between atoms: C_12  and  C_18
REMARK   14  A    between atoms: C_15  and  C_19
REMARK   15  A    between atoms: C_20  and  C_21
REMARK   16  A    between atoms: C_22  and  C_23
REMARK                            x       y       z     vdW  Elec       q    Type
REMARK                         _______ _______ _______ _____ _____    ______ ____
ROOT
ATOM      7  C   UNL     1      -5.455 -10.703   7.039  0.00  0.00    +0.000 C 
ATOM      8  C   UNL     1      -6.958 -10.349   7.159  0.00  0.00    +0.029 C 
ATOM      9  C   UNL     1      -4.997 -11.520   8.257  0.00  0.00    +0.012 C 
ATOM     10  C   UNL     1      -5.216 -10.764   9.581  0.00  0.00    +0.024 C 
ATOM     12  C   UNL     1      -6.600 -10.151   9.658  0.00  0.00    -0.073 C 
ATOM     13  C   UNL     1      -7.369  -9.986   8.567  0.00  0.00    -0.023 C 
ATOM     18  C   UNL     1      -7.098  -9.776  11.025  0.00  0.00    +0.039 C 
ENDROOT
BRANCH   7  11
ATOM     11  C   UNL     1      -5.155 -11.478   5.752  0.00  0.00    -0.013 C 
ATOM     16  C   UNL     1      -6.221 -12.543   5.510  0.00  0.00    +0.007 C 
ATOM     17  C   UNL     1      -3.767 -12.108   5.821  0.00  0.00    +0.007 C 
ENDBRANCH   7  11
BRANCH   8  14
ATOM     14  C   UNL     1      -7.335  -9.208   6.208  0.00  0.00    +0.088 C 
BRANCH  14   3
ATOM      3  N   UNL     1      -7.155  -7.919   6.854  0.00  0.00    -0.313 NA
ATOM     32  H   UNL     1      -6.927  -8.040   7.840  0.00  0.00    +0.122 HD
BRANCH   3  20
ATOM     20  C   UNL     1      -8.355  -7.100   6.736  0.00  0.00    +0.109 C 
BRANCH  20  21
ATOM     21  C   UNL     1      -8.532  -6.226   7.968  0.00  0.00    +0.174 C 
BRANCH  21   2
ATOM      2  O   UNL     1      -9.922  -6.053   8.208  0.00  0.00    -0.382 OA
ATOM     24  C   UNL     1     -10.192  -4.800   8.823  0.00  0.00    +0.194 C 
ENDBRANCH  21   2
ENDBRANCH  20  21
ENDBRANCH   3  20
ENDBRANCH  14   3
ENDBRANCH   8  14
BRANCH  10  15
ATOM     15  C   UNL     1      -4.132  -9.701   9.795  0.00  0.00    +0.105 C 
BRANCH  15  19
ATOM      1  O   UNL     1      -4.021 -10.149  12.192  0.00  0.00    -0.420 OA
ATOM      4  N   UNL     1      -2.028 -10.089  11.177  0.00  0.00    -0.112 NA
ATOM      5  N   UNL     1      -1.817 -10.350  12.518  0.00  0.00    -0.107 NA
ATOM     19  C   UNL     1      -3.328  -9.980  11.032  0.00  0.00    +0.218 A 
ATOM     22  C   UNL     1      -3.007 -10.376  13.071  0.00  0.00    +0.248 A 
BRANCH  22  23
ATOM     23  C   UNL     1      -3.397 -10.602  14.433  0.00  0.00    +0.039 A 
ATOM     25  C   UNL     1      -2.424 -10.775  15.417  0.00  0.00    +0.015 A 
ATOM     26  C   UNL     1      -4.749 -10.648  14.772  0.00  0.00    +0.015 A 
ATOM     27  C   UNL     1      -2.803 -10.995  16.741  0.00  0.00    +0.024 A 
ATOM     28  C   UNL     1      -5.127 -10.868  16.097  0.00  0.00    +0.024 A 
ATOM     29  C   UNL     1      -4.154 -11.042  17.081  0.00  0.00    +0.029 A 
BRANCH  29   6
ATOM      6  N   UNL     1      -4.537 -11.265  18.420  0.00  0.00    -0.336 N 
ATOM     30  C   UNL     1      -5.748 -10.667  18.947  0.00  0.00    +0.129 C 
ATOM     31  C   UNL     1      -3.721 -12.089  19.289  0.00  0.00    +0.129 C 
ENDBRANCH  29   6
ENDBRANCH  22  23
ENDBRANCH  15  19
ENDBRANCH  10  15
TORSDOF 10
ENDMDL
MODEL 5
REMARK VINA RESULT:      -6.0     26.849     30.954
REMARK  Name = 45783973
REMARK  16 active torsions:
REMARK  status: ('A' for Active; 'I' for Inactive)
REMARK    1  A    between atoms: O_2  and  C_21
REMARK    2  A    between atoms: O_2  and  C_24
REMARK    3  A    between atoms: N_3  and  C_14
REMARK    4  A    between atoms: N_3  and  C_20
REMARK    5  A    between atoms: N_6  and  C_29
REMARK    6  A    between atoms: N_6  and  C_30
REMARK    7  A    between atoms: N_6  and  C_31
REMARK    8  A    between atoms: C_7  and  C_11
REMARK    9  A    between atoms: C_8  and  C_14
REMARK   10  A    between atoms: C_10  and  C_15
REMARK   11  A    between atoms: C_11  and  C_16
REMARK   12  A    between atoms: C_11  and  C_17
REMARK   13  A    between atoms: C_12  and  C_18
REMARK   14  A    between atoms: C_15  and  C_19
REMARK   15  A    between atoms: C_20  and  C_21
REMARK   16  A    between atoms: C_22  and  C_23
REMARK                            x       y       z     vdW  Elec       q    Type
REMARK                         _______ _______ _______ _____ _____    ______ ____
ROOT
ATOM      7  C   UNL     1      -4.851 -11.062  13.356  0.00  0.00    +0.000 C 
ATOM      8  C   UNL     1      -3.484 -10.694  12.726  0.00  0.00    +0.029 C 
ATOM      9  C   UNL     1      -5.038 -10.335  14.696  0.00  0.00    +0.012 C 
ATOM     10  C   UNL     1      -3.927 -10.680  15.706  0.00  0.00    +0.024 C 
ATOM     12  C   UNL     1      -2.550 -10.600  15.078  0.00  0.00    -0.073 C 
ATOM     13  C   UNL     1      -2.373 -10.594  13.744  0.00  0.00    -0.023 C 
ATOM     18  C   UNL     1      -1.384 -10.479  16.018  0.00  0.00    +0.039 C 
ENDROOT
BRANCH   7  11
ATOM     11  C   UNL     1      -6.016 -10.729  12.419  0.00  0.00    -0.013 C 
ATOM     16  C   UNL     1      -6.320  -9.235  12.455  0.00  0.00    +0.007 C 
ATOM     17  C   UNL     1      -7.252 -11.541  12.796  0.00  0.00    +0.007 C 
ENDBRANCH   7  11
BRANCH   8  14
ATOM     14  C   UNL     1      -3.090 -11.697  11.637  0.00  0.00    +0.088 C 
BRANCH  14   3
ATOM      3  N   UNL     1      -3.372 -11.160  10.317  0.00  0.00    -0.313 NA
ATOM     32  H   UNL     1      -2.758 -11.578   9.619  0.00  0.00    +0.122 HD
BRANCH   3  20
ATOM     20  C   UNL     1      -3.209  -9.712  10.294  0.00  0.00    +0.109 C 
BRANCH  20  21
ATOM     21  C   UNL     1      -4.056  -9.094   9.192  0.00  0.00    +0.174 C 
BRANCH  21   2
ATOM      2  O   UNL     1      -5.026 -10.044   8.774  0.00  0.00    -0.382 OA
ATOM     24  C   UNL     1      -5.773  -9.571   7.661  0.00  0.00    +0.194 C 
ENDBRANCH  21   2
ENDBRANCH  20  21
ENDBRANCH   3  20
ENDBRANCH  14   3
ENDBRANCH   8  14
BRANCH  10  15
ATOM     15  C   UNL     1      -4.163 -12.057  16.337  0.00  0.00    +0.105 C 
BRANCH  15  19
ATOM      1  O   UNL     1      -6.164 -12.082  17.735  0.00  0.00    -0.420 OA
ATOM      4  N   UNL     1      -4.265 -11.710  18.858  0.00  0.00    -0.112 NA
ATOM      5  N   UNL     1      -5.307 -11.699  19.766  0.00  0.00    -0.107 NA
ATOM     19  C   UNL     1      -4.811 -11.938  17.687  0.00  0.00    +0.218 A 
ATOM     22  C   UNL     1      -6.395 -11.919  19.067  0.00  0.00    +0.248 A 
BRANCH  22  23
ATOM     23  C   UNL     1      -7.766 -12.014  19.480  0.00  0.00    +0.039 A 
ATOM     25  C   UNL     1      -8.602 -10.902  19.383  0.00  0.00    +0.015 A 
ATOM     26  C   UNL     1      -8.262 -13.218  19.978  0.00  0.00    +0.015 A 
ATOM     27  C   UNL     1      -9.934 -10.993  19.784  0.00  0.00    +0.024 A 
ATOM     28  C   UNL     1      -9.595 -13.310  20.379  0.00  0.00    +0.024 A 
ATOM     29  C   UNL     1     -10.431 -12.198  20.282  0.00  0.00    +0.029 A 
BRANCH  29   6
ATOM      6  N   UNL     1     -11.778 -12.290  20.689  0.00  0.00    -0.336 N 
ATOM     30  C   UNL     1     -12.700 -11.201  20.429  0.00  0.00    +0.129 C 
ATOM     31  C   UNL     1     -12.257 -13.470  21.380  0.00  0.00    +0.129 C 
ENDBRANCH  29   6
ENDBRANCH  22  23
ENDBRANCH  15  19
ENDBRANCH  10  15
TORSDOF 10
ENDMDL
MODEL 6
REMARK VINA RESULT:      -5.9      2.036      2.910
REMARK  Name = 45783973
REMARK  16 active torsions:
REMARK  status: ('A' for Active; 'I' for Inactive)
REMARK    1  A    between atoms: O_2  and  C_21
REMARK    2  A    between atoms: O_2  and  C_24
REMARK    3  A    between atoms: N_3  and  C_14
REMARK    4  A    between atoms: N_3  and  C_20
REMARK    5  A    between atoms: N_6  and  C_29
REMARK    6  A    between atoms: N_6  and  C_30
REMARK    7  A    between atoms: N_6  and  C_31
REMARK    8  A    between atoms: C_7  and  C_11
REMARK    9  A    between atoms: C_8  and  C_14
REMARK   10  A    between atoms: C_10  and  C_15
REMARK   11  A    between atoms: C_11  and  C_16
REMARK   12  A    between atoms: C_11  and  C_17
REMARK   13  A    between atoms: C_12  and  C_18
REMARK   14  A    between atoms: C_15  and  C_19
REMARK   15  A    between atoms: C_20  and  C_21
REMARK   16  A    between atoms: C_22  and  C_23
REMARK                            x       y       z     vdW  Elec       q    Type
REMARK                         _______ _______ _______ _____ _____    ______ ____
ROOT
ATOM      7  C   UNL     1      13.561   9.262  19.431  0.00  0.00    +0.000 C 
ATOM      8  C   UNL     1      12.832   7.948  19.807  0.00  0.00    +0.029 C 
ATOM      9  C   UNL     1      14.984   8.963  18.936  0.00  0.00    +0.012 C 
ATOM     10  C   UNL     1      15.825   8.224  19.994  0.00  0.00    +0.024 C 
ATOM     12  C   UNL     1      15.065   7.066  20.609  0.00  0.00    -0.073 C 
ATOM     13  C   UNL     1      13.729   6.953  20.504  0.00  0.00    -0.023 C 
ATOM     18  C   UNL     1      15.882   6.016  21.309  0.00  0.00    +0.039 C 
ENDROOT
BRANCH   7  11
ATOM     11  C   UNL     1      12.795  10.051  18.364  0.00  0.00    -0.013 C 
ATOM     16  C   UNL     1      12.445   9.150  17.184  0.00  0.00    +0.007 C 
ATOM     17  C   UNL     1      13.613  11.253  17.902  0.00  0.00    +0.007 C 
ENDBRANCH   7  11
BRANCH   8  14
ATOM     14  C   UNL     1      11.604   8.227  20.681  0.00  0.00    +0.088 C 
BRANCH  14   3
ATOM      3  N   UNL     1      11.998   8.466  22.059  0.00  0.00    -0.313 NA
ATOM     32  H   UNL     1      11.668   7.715  22.664  0.00  0.00    +0.122 HD
BRANCH   3  20
ATOM     20  C   UNL     1      11.472   9.737  22.543  0.00  0.00    +0.109 C 
BRANCH  20  21
ATOM     21  C   UNL     1      12.596  10.740  22.750  0.00  0.00    +0.174 C 
BRANCH  21   2
ATOM      2  O   UNL     1      12.387  11.410  23.986  0.00  0.00    -0.382 OA
ATOM     24  C   UNL     1      11.038  11.296  24.418  0.00  0.00    +0.194 C 
ENDBRANCH  21   2
ENDBRANCH  20  21
ENDBRANCH   3  20
ENDBRANCH  14   3
ENDBRANCH   8  14
BRANCH  10  15
ATOM     15  C   UNL     1      16.325   9.189  21.075  0.00  0.00    +0.105 C 
BRANCH  15  19
ATOM      1  O   UNL     1      18.418   7.937  20.977  0.00  0.00    -0.420 OA
ATOM      4  N   UNL     1      18.665  10.095  21.512  0.00  0.00    -0.112 NA
ATOM      5  N   UNL     1      19.919   9.514  21.492  0.00  0.00    -0.107 NA
ATOM     19  C   UNL     1      17.821   9.139  21.205  0.00  0.00    +0.218 A 
ATOM     22  C   UNL     1      19.727   8.255  21.176  0.00  0.00    +0.248 A 
BRANCH  22  23
ATOM     23  C   UNL     1      20.664   7.182  21.010  0.00  0.00    +0.039 A 
ATOM     25  C   UNL     1      22.033   7.449  20.987  0.00  0.00    +0.015 A 
ATOM     26  C   UNL     1      20.207   5.872  20.873  0.00  0.00    +0.015 A 
ATOM     27  C   UNL     1      22.945   6.407  20.826  0.00  0.00    +0.024 A 
ATOM     28  C   UNL     1      21.119   4.829  20.712  0.00  0.00    +0.024 A 
ATOM     29  C   UNL     1      22.488   5.096  20.689  0.00  0.00    +0.029 A 
BRANCH  29   6
ATOM      6  N   UNL     1      23.410   4.042  20.524  0.00  0.00    -0.336 N 
ATOM     30  C   UNL     1      24.637   4.249  19.779  0.00  0.00    +0.129 C 
ATOM     31  C   UNL     1      23.141   2.736  21.091  0.00  0.00    +0.129 C 
ENDBRANCH  29   6
ENDBRANCH  22  23
ENDBRANCH  15  19
ENDBRANCH  10  15
TORSDOF 10
ENDMDL
MODEL 7
REMARK VINA RESULT:      -5.8      2.379      4.436
REMARK  Name = 45783973
REMARK  16 active torsions:
REMARK  status: ('A' for Active; 'I' for Inactive)
REMARK    1  A    between atoms: O_2  and  C_21
REMARK    2  A    between atoms: O_2  and  C_24
REMARK    3  A    between atoms: N_3  and  C_14
REMARK    4  A    between atoms: N_3  and  C_20
REMARK    5  A    between atoms: N_6  and  C_29
REMARK    6  A    between atoms: N_6  and  C_30
REMARK    7  A    between atoms: N_6  and  C_31
REMARK    8  A    between atoms: C_7  and  C_11
REMARK    9  A    between atoms: C_8  and  C_14
REMARK   10  A    between atoms: C_10  and  C_15
REMARK   11  A    between atoms: C_11  and  C_16
REMARK   12  A    between atoms: C_11  and  C_17
REMARK   13  A    between atoms: C_12  and  C_18
REMARK   14  A    between atoms: C_15  and  C_19
REMARK   15  A    between atoms: C_20  and  C_21
REMARK   16  A    between atoms: C_22  and  C_23
REMARK                            x       y       z     vdW  Elec       q    Type
REMARK                         _______ _______ _______ _____ _____    ______ ____
ROOT
ATOM      7  C   UNL     1      12.097  11.418  22.981  0.00  0.00    +0.000 C 
ATOM      8  C   UNL     1      11.372  10.732  21.797  0.00  0.00    +0.029 C 
ATOM      9  C   UNL     1      13.228  12.323  22.468  0.00  0.00    +0.012 C 
ATOM     10  C   UNL     1      14.270  11.542  21.644  0.00  0.00    +0.024 C 
ATOM     12  C   UNL     1      13.614  10.631  20.625  0.00  0.00    -0.073 C 
ATOM     13  C   UNL     1      12.315  10.291  20.702  0.00  0.00    -0.023 C 
ATOM     18  C   UNL     1      14.476  10.158  19.488  0.00  0.00    +0.039 C 
ENDROOT
BRANCH   7  11
ATOM     11  C   UNL     1      11.130  12.236  23.843  0.00  0.00    -0.013 C 
ATOM     16  C   UNL     1      11.477  13.720  23.771  0.00  0.00    +0.007 C 
ATOM     17  C   UNL     1      11.157  11.744  25.287  0.00  0.00    +0.007 C 
ENDBRANCH   7  11
BRANCH   8  14
ATOM     14  C   UNL     1      10.547   9.532  22.274  0.00  0.00    +0.088 C 
BRANCH  14   3
ATOM      3  N   UNL     1      10.520   8.492  21.260  0.00  0.00    -0.313 NA
ATOM     32  H   UNL     1       9.680   8.569  20.688  0.00  0.00    +0.122 HD
BRANCH   3  20
ATOM     20  C   UNL     1      10.567   7.167  21.866  0.00  0.00    +0.109 C 
BRANCH  20  21
ATOM     21  C   UNL     1      11.679   6.333  21.248  0.00  0.00    +0.174 C 
BRANCH  21   2
ATOM      2  O   UNL     1      12.921   6.979  21.490  0.00  0.00    -0.382 OA
ATOM     24  C   UNL     1      13.847   6.738  20.438  0.00  0.00    +0.194 C 
ENDBRANCH  21   2
ENDBRANCH  20  21
ENDBRANCH   3  20
ENDBRANCH  14   3
ENDBRANCH   8  14
BRANCH  10  15
ATOM     15  C   UNL     1      15.216  10.753  22.556  0.00  0.00    +0.105 C 
BRANCH  15  19
ATOM      1  O   UNL     1      17.164   9.400  21.979  0.00  0.00    -0.420 OA
ATOM      4  N   UNL     1      17.334  11.550  21.386  0.00  0.00    -0.112 NA
ATOM      5  N   UNL     1      18.496  10.909  21.001  0.00  0.00    -0.107 NA
ATOM     19  C   UNL     1      16.586  10.633  21.952  0.00  0.00    +0.218 A 
ATOM     22  C   UNL     1      18.353   9.657  21.367  0.00  0.00    +0.248 A 
BRANCH  22  23
ATOM     23  C   UNL     1      19.239   8.537  21.225  0.00  0.00    +0.039 A 
ATOM     25  C   UNL     1      18.719   7.255  21.049  0.00  0.00    +0.015 A 
ATOM     26  C   UNL     1      20.619   8.731  21.263  0.00  0.00    +0.015 A 
ATOM     27  C   UNL     1      19.579   6.166  20.911  0.00  0.00    +0.024 A 
ATOM     28  C   UNL     1      21.480   7.642  21.124  0.00  0.00    +0.024 A 
ATOM     29  C   UNL     1      20.959   6.360  20.948  0.00  0.00    +0.029 A 
BRANCH  29   6
ATOM      6  N   UNL     1      21.829   5.258  20.810  0.00  0.00    -0.336 N 
ATOM     30  C   UNL     1      23.251   5.465  20.617  0.00  0.00    +0.129 C 
ATOM     31  C   UNL     1      21.312   3.905  20.849  0.00  0.00    +0.129 C 
ENDBRANCH  29   6
ENDBRANCH  22  23
ENDBRANCH  15  19
ENDBRANCH  10  15
TORSDOF 10
ENDMDL
MODEL 8
REMARK VINA RESULT:      -5.8      5.694      7.913
REMARK  Name = 45783973
REMARK  16 active torsions:
REMARK  status: ('A' for Active; 'I' for Inactive)
REMARK    1  A    between atoms: O_2  and  C_21
REMARK    2  A    between atoms: O_2  and  C_24
REMARK    3  A    between atoms: N_3  and  C_14
REMARK    4  A    between atoms: N_3  and  C_20
REMARK    5  A    between atoms: N_6  and  C_29
REMARK    6  A    between atoms: N_6  and  C_30
REMARK    7  A    between atoms: N_6  and  C_31
REMARK    8  A    between atoms: C_7  and  C_11
REMARK    9  A    between atoms: C_8  and  C_14
REMARK   10  A    between atoms: C_10  and  C_15
REMARK   11  A    between atoms: C_11  and  C_16
REMARK   12  A    between atoms: C_11  and  C_17
REMARK   13  A    between atoms: C_12  and  C_18
REMARK   14  A    between atoms: C_15  and  C_19
REMARK   15  A    between atoms: C_20  and  C_21
REMARK   16  A    between atoms: C_22  and  C_23
REMARK                            x       y       z     vdW  Elec       q    Type
REMARK                         _______ _______ _______ _____ _____    ______ ____
ROOT
ATOM      7  C   UNL     1      13.876   9.088  19.300  0.00  0.00    +0.000 C 
ATOM      8  C   UNL     1      12.586   8.232  19.344  0.00  0.00    +0.029 C 
ATOM      9  C   UNL     1      13.618  10.410  18.560  0.00  0.00    +0.012 C 
ATOM     10  C   UNL     1      13.132  10.184  17.116  0.00  0.00    +0.024 C 
ATOM     12  C   UNL     1      12.031   9.143  17.048  0.00  0.00    -0.073 C 
ATOM     13  C   UNL     1      11.794   8.288  18.060  0.00  0.00    -0.023 C 
ATOM     18  C   UNL     1      11.180   9.139  15.810  0.00  0.00    +0.039 C 
ENDROOT
BRANCH   7  11
ATOM     11  C   UNL     1      14.416   9.376  20.704  0.00  0.00    -0.013 C 
ATOM     16  C   UNL     1      14.313  10.865  21.019  0.00  0.00    +0.007 C 
ATOM     17  C   UNL     1      15.859   8.896  20.829  0.00  0.00    +0.007 C 
ENDBRANCH   7  11
BRANCH   8  14
ATOM     14  C   UNL     1      12.903   6.771  19.684  0.00  0.00    +0.088 C 
BRANCH  14   3
ATOM      3  N   UNL     1      12.554   6.477  21.064  0.00  0.00    -0.313 NA
ATOM     32  H   UNL     1      12.730   5.496  21.278  0.00  0.00    +0.122 HD
BRANCH   3  20
ATOM     20  C   UNL     1      11.153   6.782  21.326  0.00  0.00    +0.109 C 
BRANCH  20  21
ATOM     21  C   UNL     1      11.027   7.824  22.427  0.00  0.00    +0.174 C 
BRANCH  21   2
ATOM      2  O   UNL     1      10.509   9.021  21.864  0.00  0.00    -0.382 OA
ATOM     24  C   UNL     1      10.934  10.165  22.593  0.00  0.00    +0.194 C 
ENDBRANCH  21   2
ENDBRANCH  20  21
ENDBRANCH   3  20
ENDBRANCH  14   3
ENDBRANCH   8  14
BRANCH  10  15
ATOM     15  C   UNL     1      14.297   9.810  16.193  0.00  0.00    +0.105 C 
BRANCH  15  19
ATOM      1  O   UNL     1      15.771  10.798  14.517  0.00  0.00    -0.420 OA
ATOM      4  N   UNL     1      13.990  12.053  15.026  0.00  0.00    -0.112 NA
ATOM      5  N   UNL     1      14.729  12.728  14.072  0.00  0.00    -0.107 NA
ATOM     19  C   UNL     1      14.634  10.933  15.254  0.00  0.00    +0.218 A 
ATOM     22  C   UNL     1      15.759  11.959  13.806  0.00  0.00    +0.248 A 
BRANCH  22  23
ATOM     23  C   UNL     1      16.853  12.149  12.897  0.00  0.00    +0.039 A 
ATOM     25  C   UNL     1      16.621  12.171  11.522  0.00  0.00    +0.015 A 
ATOM     26  C   UNL     1      18.148  12.310  13.389  0.00  0.00    +0.015 A 
ATOM     27  C   UNL     1      17.685  12.356  10.638  0.00  0.00    +0.024 A 
ATOM     28  C   UNL     1      19.211  12.494  12.505  0.00  0.00    +0.024 A 
ATOM     29  C   UNL     1      18.979  12.517  11.131  0.00  0.00    +0.029 A 
BRANCH  29   6
ATOM      6  N   UNL     1      20.055  12.702  10.236  0.00  0.00    -0.336 N 
ATOM     30  C   UNL     1      19.935  12.295   8.850  0.00  0.00    +0.129 C 
ATOM     31  C   UNL     1      21.296  13.293  10.694  0.00  0.00    +0.129 C 
ENDBRANCH  29   6
ENDBRANCH  22  23
ENDBRANCH  15  19
ENDBRANCH  10  15
TORSDOF 10
ENDMDL
MODEL 9
REMARK VINA RESULT:      -5.8     14.939     17.259
REMARK  Name = 45783973
REMARK  16 active torsions:
REMARK  status: ('A' for Active; 'I' for Inactive)
REMARK    1  A    between atoms: O_2  and  C_21
REMARK    2  A    between atoms: O_2  and  C_24
REMARK    3  A    between atoms: N_3  and  C_14
REMARK    4  A    between atoms: N_3  and  C_20
REMARK    5  A    between atoms: N_6  and  C_29
REMARK    6  A    between atoms: N_6  and  C_30
REMARK    7  A    between atoms: N_6  and  C_31
REMARK    8  A    between atoms: C_7  and  C_11
REMARK    9  A    between atoms: C_8  and  C_14
REMARK   10  A    between atoms: C_10  and  C_15
REMARK   11  A    between atoms: C_11  and  C_16
REMARK   12  A    between atoms: C_11  and  C_17
REMARK   13  A    between atoms: C_12  and  C_18
REMARK   14  A    between atoms: C_15  and  C_19
REMARK   15  A    between atoms: C_20  and  C_21
REMARK   16  A    between atoms: C_22  and  C_23
REMARK                            x       y       z     vdW  Elec       q    Type
REMARK                         _______ _______ _______ _____ _____    ______ ____
ROOT
ATOM      7  C   UNL     1      10.644   6.169   6.379  0.00  0.00    +0.000 C 
ATOM      8  C   UNL     1      10.291   6.109   4.872  0.00  0.00    +0.029 C 
ATOM      9  C   UNL     1      11.044   7.597   6.780  0.00  0.00    +0.012 C 
ATOM     10  C   UNL     1      12.253   8.111   5.974  0.00  0.00    +0.024 C 
ATOM     12  C   UNL     1      12.096   7.842   4.491  0.00  0.00    -0.073 C 
ATOM     13  C   UNL     1      11.205   6.953   4.016  0.00  0.00    -0.023 C 
ATOM     18  C   UNL     1      12.956   8.653   3.562  0.00  0.00    +0.039 C 
ENDROOT
BRANCH   7  11
ATOM     11  C   UNL     1       9.482   5.691   7.255  0.00  0.00    -0.013 C 
ATOM     16  C   UNL     1       8.954   6.838   8.111  0.00  0.00    +0.007 C 
ATOM     17  C   UNL     1       9.921   4.521   8.130  0.00  0.00    +0.007 C 
ENDBRANCH   7  11
BRANCH   8  14
ATOM     14  C   UNL     1      10.302   4.664   4.359  0.00  0.00    +0.088 C 
BRANCH  14   3
ATOM      3  N   UNL     1      10.543   4.630   2.927  0.00  0.00    -0.313 NA
ATOM     32  H   UNL     1       9.665   4.545   2.416  0.00  0.00    +0.122 HD
BRANCH   3  20
ATOM     20  C   UNL     1      11.416   3.519   2.568  0.00  0.00    +0.109 C 
BRANCH  20  21
ATOM     21  C   UNL     1      12.589   4.007   1.732  0.00  0.00    +0.174 C 
BRANCH  21   2
ATOM      2  O   UNL     1      13.575   2.984   1.689  0.00  0.00    -0.382 OA
ATOM     24  C   UNL     1      14.888   3.528   1.664  0.00  0.00    +0.194 C 
ENDBRANCH  21   2
ENDBRANCH  20  21
ENDBRANCH   3  20
ENDBRANCH  14   3
ENDBRANCH   8  14
BRANCH  10  15
ATOM     15  C   UNL     1      13.563   7.517   6.504  0.00  0.00    +0.105 C 
BRANCH  15  19
ATOM      1  O   UNL     1      15.868   7.992   5.856  0.00  0.00    -0.420 OA
ATOM      4  N   UNL     1      14.754   9.764   6.647  0.00  0.00    -0.112 NA
ATOM      5  N   UNL     1      16.033  10.174   6.321  0.00  0.00    -0.107 NA
ATOM     19  C   UNL     1      14.702   8.485   6.359  0.00  0.00    +0.218 A 
ATOM     22  C   UNL     1      16.647   9.109   5.864  0.00  0.00    +0.248 A 
BRANCH  22  23
ATOM     23  C   UNL     1      17.987   8.940   5.380  0.00  0.00    +0.039 A 
ATOM     25  C   UNL     1      19.046   9.580   6.024  0.00  0.00    +0.015 A 
ATOM     26  C   UNL     1      18.231   8.137   4.267  0.00  0.00    +0.015 A 
ATOM     27  C   UNL     1      20.349   9.417   5.554  0.00  0.00    +0.024 A 
ATOM     28  C   UNL     1      19.534   7.974   3.797  0.00  0.00    +0.024 A 
ATOM     29  C   UNL     1      20.592   8.614   4.441  0.00  0.00    +0.029 A 
BRANCH  29   6
ATOM      6  N   UNL     1      21.910   8.450   3.965  0.00  0.00    -0.336 N 
ATOM     30  C   UNL     1      22.832   7.562   4.647  0.00  0.00    +0.129 C 
ATOM     31  C   UNL     1      22.363   9.173   2.794  0.00  0.00    +0.129 C 
ENDBRANCH  29   6
ENDBRANCH  22  23
ENDBRANCH  15  19
ENDBRANCH  10  15
TORSDOF 10
ENDMDL
MODEL 10
REMARK VINA RESULT:      -5.7     26.968     30.797
REMARK  Name = 45783973
REMARK  16 active torsions:
REMARK  status: ('A' for Active; 'I' for Inactive)
REMARK    1  A    between atoms: O_2  and  C_21
REMARK    2  A    between atoms: O_2  and  C_24
REMARK    3  A    between atoms: N_3  and  C_14
REMARK    4  A    between atoms: N_3  and  C_20
REMARK    5  A    between atoms: N_6  and  C_29
REMARK    6  A    between atoms: N_6  and  C_30
REMARK    7  A    between atoms: N_6  and  C_31
REMARK    8  A    between atoms: C_7  and  C_11
REMARK    9  A    between atoms: C_8  and  C_14
REMARK   10  A    between atoms: C_10  and  C_15
REMARK   11  A    between atoms: C_11  and  C_16
REMARK   12  A    between atoms: C_11  and  C_17
REMARK   13  A    between atoms: C_12  and  C_18
REMARK   14  A    between atoms: C_15  and  C_19
REMARK   15  A    between atoms: C_20  and  C_21
REMARK   16  A    between atoms: C_22  and  C_23
REMARK                            x       y       z     vdW  Elec       q    Type
REMARK                         _______ _______ _______ _____ _____    ______ ____
ROOT
ATOM      7  C   UNL     1      -3.945 -11.654  12.572  0.00  0.00    +0.000 C 
ATOM      8  C   UNL     1      -2.628 -11.558  13.382  0.00  0.00    +0.029 C 
ATOM      9  C   UNL     1      -3.658 -11.544  11.067  0.00  0.00    +0.012 C 
ATOM     10  C   UNL     1      -2.957 -10.221  10.703  0.00  0.00    +0.024 C 
ATOM     12  C   UNL     1      -1.802  -9.920  11.637  0.00  0.00    -0.073 C 
ATOM     13  C   UNL     1      -1.664 -10.538  12.824  0.00  0.00    -0.023 C 
ATOM     18  C   UNL     1      -0.782  -8.928  11.153  0.00  0.00    +0.039 C 
ENDROOT
BRANCH   7  11
ATOM     11  C   UNL     1      -4.697 -12.957  12.862  0.00  0.00    -0.013 C 
ATOM     16  C   UNL     1      -4.163 -14.087  11.987  0.00  0.00    +0.007 C 
ATOM     17  C   UNL     1      -6.195 -12.767  12.644  0.00  0.00    +0.007 C 
ENDBRANCH   7  11
BRANCH   8  14
ATOM     14  C   UNL     1      -2.908 -11.242  14.856  0.00  0.00    +0.088 C 
BRANCH  14   3
ATOM      3  N   UNL     1      -4.001 -10.293  14.979  0.00  0.00    -0.313 NA
ATOM     32  H   UNL     1      -3.715  -9.370  14.655  0.00  0.00    +0.122 HD
BRANCH   3  20
ATOM     20  C   UNL     1      -4.459 -10.196  16.360  0.00  0.00    +0.109 C 
BRANCH  20  21
ATOM     21  C   UNL     1      -5.850  -9.586  16.423  0.00  0.00    +0.174 C 
BRANCH  21   2
ATOM      2  O   UNL     1      -6.682 -10.426  17.211  0.00  0.00    -0.382 OA
ATOM     24  C   UNL     1      -7.854  -9.745  17.639  0.00  0.00    +0.194 C 
ENDBRANCH  21   2
ENDBRANCH  20  21
ENDBRANCH   3  20
ENDBRANCH  14   3
ENDBRANCH   8  14
BRANCH  10  15
ATOM     15  C   UNL     1      -3.955  -9.057  10.673  0.00  0.00    +0.105 C 
BRANCH  15  19
ATOM      1  O   UNL     1      -4.543  -9.956   8.481  0.00  0.00    -0.420 OA
ATOM      4  N   UNL     1      -6.152  -8.723   9.428  0.00  0.00    -0.112 NA
ATOM      5  N   UNL     1      -6.618  -9.164   8.204  0.00  0.00    -0.107 NA
ATOM     19  C   UNL     1      -4.939  -9.209   9.548  0.00  0.00    +0.218 A 
ATOM     22  C   UNL     1      -5.647  -9.879   7.686  0.00  0.00    +0.248 A 
BRANCH  22  23
ATOM     23  C   UNL     1      -5.568 -10.579   6.437  0.00  0.00    +0.039 A 
ATOM     25  C   UNL     1      -4.512 -11.457   6.195  0.00  0.00    +0.015 A 
ATOM     26  C   UNL     1      -6.548 -10.382   5.465  0.00  0.00    +0.015 A 
ATOM     27  C   UNL     1      -4.435 -12.138   4.980  0.00  0.00    +0.024 A 
ATOM     28  C   UNL     1      -6.472 -11.064   4.250  0.00  0.00    +0.024 A 
ATOM     29  C   UNL     1      -5.415 -11.941   4.008  0.00  0.00    +0.029 A 
BRANCH  29   6
ATOM      6  N   UNL     1      -5.337 -12.629   2.779  0.00  0.00    -0.336 N 
ATOM     30  C   UNL     1      -4.049 -13.010   2.232  0.00  0.00    +0.129 C 
ATOM     31  C   UNL     1      -6.541 -12.958   2.043  0.00  0.00    +0.129 C 
ENDBRANCH  29   6
ENDBRANCH  22  23
ENDBRANCH  15  19
ENDBRANCH  10  15
TORSDOF 10
ENDMDL
