MODEL 1
REMARK VINA RESULT:      -6.9      0.000      0.000
REMARK  Name = 7135373
REMARK  10 active torsions:
REMARK  status: ('A' for Active; 'I' for Inactive)
REMARK    1  A    between atoms: O_2  and  C_20
REMARK    2  A    between atoms: O_3  and  C_21
REMARK    3  A    between atoms: O_3  and  C_25
REMARK    4  A    between atoms: C_5  and  C_6
REMARK    5  A    between atoms: C_6  and  C_12
REMARK    6  A    between atoms: C_6  and  C_13
REMARK    7  A    between atoms: C_16  and  C_23
REMARK    8  A    between atoms: C_19  and  C_24
REMARK    9  A    between atoms: C_25  and  C_26
REMARK   10  A    between atoms: C_26  and  C_27
REMARK                            x       y       z     vdW  Elec       q    Type
REMARK                         _______ _______ _______ _____ _____    ______ ____
ROOT
ATOM      5  C   UNL     1       9.831   6.860   0.611  0.00  0.00    +0.005 C 
ATOM      7  C   UNL     1       9.635   8.371   0.761  0.00  0.00    +0.009 C 
ATOM      8  C   UNL     1      10.310   6.264   1.943  0.00  0.00    +0.040 C 
ATOM      9  C   UNL     1       8.550   8.672   1.795  0.00  0.00    +0.036 C 
ATOM     10  C   UNL     1       9.508   6.733   3.133  0.00  0.00    -0.037 A 
ATOM     11  C   UNL     1       8.711   7.890   3.074  0.00  0.00    -0.041 A 
ATOM     16  C   UNL     1       9.610   6.028   4.342  0.00  0.00    -0.005 A 
ATOM     19  C   UNL     1       8.003   8.298   4.214  0.00  0.00    -0.044 A 
ATOM     21  C   UNL     1       8.908   6.449   5.471  0.00  0.00    +0.124 A 
ATOM     22  C   UNL     1       8.103   7.582   5.406  0.00  0.00    +0.049 A 
ATOM     23  C   UNL     1      10.480   4.813   4.452  0.00  0.00    +0.048 C 
ATOM     24  C   UNL     1       7.112   9.499   4.194  0.00  0.00    +0.044 C 
ENDROOT
BRANCH   5   6
ATOM      6  C   UNL     1      10.822   6.545  -0.507  0.00  0.00    +0.075 C 
ATOM     13  C   UNL     1      10.227   6.842  -1.874  0.00  0.00    +0.017 C 
BRANCH   6  12
ATOM      1  O   UNL     1      10.371   4.228  -0.709  0.00  0.00    -0.275 OA
ATOM      4  N   UNL     1      12.526   4.812  -0.065  0.00  0.00    -0.301 N 
ATOM     12  C   UNL     1      11.212   5.090  -0.439  0.00  0.00    +0.219 C 
ATOM     14  C   UNL     1      13.557   5.815   0.225  0.00  0.00    +0.110 C 
ATOM     15  C   UNL     1      12.979   3.422   0.027  0.00  0.00    +0.110 C 
ATOM     17  C   UNL     1      14.169   5.579   1.607  0.00  0.00    +0.050 C 
ATOM     18  C   UNL     1      13.580   3.134   1.403  0.00  0.00    +0.050 C 
ATOM     20  C   UNL     1      14.673   4.141   1.766  0.00  0.00    +0.118 C 
BRANCH  20   2
ATOM      2  O   UNL     1      15.798   3.924   0.917  0.00  0.00    -0.392 OA
ATOM     28  H   UNL     1      16.427   4.649   1.075  0.00  0.00    +0.210 HD
ENDBRANCH  20   2
ENDBRANCH   6  12
ENDBRANCH   5   6
BRANCH  21   3
ATOM      3  O   UNL     1       8.999   5.766   6.647  0.00  0.00    -0.492 OA
BRANCH   3  25
ATOM     25  C   UNL     1       9.290   6.526   7.817  0.00  0.00    +0.229 C 
BRANCH  25  26
ATOM     26  C   UNL     1       9.450   5.576   8.994  0.00  0.00    +0.038 C 
ATOM     27  C   UNL     1       9.715   4.153   8.538  0.00  0.00    +0.007 C 
ENDBRANCH  25  26
ENDBRANCH   3  25
ENDBRANCH  21   3
TORSDOF 6
ENDMDL
MODEL 2
REMARK VINA RESULT:      -6.7     17.563     20.130
REMARK  Name = 7135373
REMARK  10 active torsions:
REMARK  status: ('A' for Active; 'I' for Inactive)
REMARK    1  A    between atoms: O_2  and  C_20
REMARK    2  A    between atoms: O_3  and  C_21
REMARK    3  A    between atoms: O_3  and  C_25
REMARK    4  A    between atoms: C_5  and  C_6
REMARK    5  A    between atoms: C_6  and  C_12
REMARK    6  A    between atoms: C_6  and  C_13
REMARK    7  A    between atoms: C_16  and  C_23
REMARK    8  A    between atoms: C_19  and  C_24
REMARK    9  A    between atoms: C_25  and  C_26
REMARK   10  A    between atoms: C_26  and  C_27
REMARK                            x       y       z     vdW  Elec       q    Type
REMARK                         _______ _______ _______ _____ _____    ______ ____
ROOT
ATOM      5  C   UNL     1      15.339   9.180  20.251  0.00  0.00    +0.005 C 
ATOM      7  C   UNL     1      16.334  10.291  20.602  0.00  0.00    +0.009 C 
ATOM      8  C   UNL     1      16.077   8.020  19.565  0.00  0.00    +0.040 C 
ATOM      9  C   UNL     1      17.377   9.782  21.596  0.00  0.00    +0.036 C 
ATOM     10  C   UNL     1      17.338   7.604  20.283  0.00  0.00    -0.037 A 
ATOM     11  C   UNL     1      17.972   8.451  21.209  0.00  0.00    -0.041 A 
ATOM     16  C   UNL     1      17.920   6.366  19.971  0.00  0.00    -0.005 A 
ATOM     19  C   UNL     1      19.154   8.027  21.833  0.00  0.00    -0.044 A 
ATOM     21  C   UNL     1      19.102   5.960  20.592  0.00  0.00    +0.124 A 
ATOM     22  C   UNL     1      19.717   6.790  21.524  0.00  0.00    +0.049 A 
ATOM     23  C   UNL     1      17.293   5.455  18.961  0.00  0.00    +0.048 C 
ATOM     24  C   UNL     1      19.848   8.874  22.853  0.00  0.00    +0.044 C 
ENDROOT
BRANCH   5   6
ATOM      6  C   UNL     1      14.221   9.711  19.356  0.00  0.00    +0.075 C 
ATOM     13  C   UNL     1      14.710  10.850  18.476  0.00  0.00    +0.017 C 
BRANCH   6  12
ATOM      1  O   UNL     1      13.033  11.388  20.534  0.00  0.00    -0.275 OA
ATOM      4  N   UNL     1      12.134   9.247  20.593  0.00  0.00    -0.301 N 
ATOM     12  C   UNL     1      13.079  10.198  20.213  0.00  0.00    +0.219 C 
ATOM     14  C   UNL     1      12.142   7.834  20.195  0.00  0.00    +0.110 C 
ATOM     15  C   UNL     1      10.997   9.642  21.427  0.00  0.00    +0.110 C 
ATOM     17  C   UNL     1      12.084   6.925  21.424  0.00  0.00    +0.050 C 
ATOM     18  C   UNL     1      10.913   8.772  22.682  0.00  0.00    +0.050 C 
ATOM     20  C   UNL     1      10.908   7.281  22.338  0.00  0.00    +0.118 C 
BRANCH  20   2
ATOM      2  O   UNL     1       9.678   6.962  21.692  0.00  0.00    -0.392 OA
ATOM     28  H   UNL     1       9.414   6.074  21.988  0.00  0.00    +0.210 HD
ENDBRANCH  20   2
ENDBRANCH   6  12
ENDBRANCH   5   6
BRANCH  21   3
ATOM      3  O   UNL     1      19.670   4.757  20.297  0.00  0.00    -0.492 OA
BRANCH   3  25
ATOM     25  C   UNL     1      21.082   4.649  20.464  0.00  0.00    +0.229 C 
BRANCH  25  26
ATOM     26  C   UNL     1      21.389   3.375  21.236  0.00  0.00    +0.038 C 
ATOM     27  C   UNL     1      22.873   3.232  21.522  0.00  0.00    +0.007 C 
ENDBRANCH  25  26
ENDBRANCH   3  25
ENDBRANCH  21   3
TORSDOF 6
ENDMDL
MODEL 3
REMARK VINA RESULT:      -6.5     14.475     19.325
REMARK  Name = 7135373
REMARK  10 active torsions:
REMARK  status: ('A' for Active; 'I' for Inactive)
REMARK    1  A    between atoms: O_2  and  C_20
REMARK    2  A    between atoms: O_3  and  C_21
REMARK    3  A    between atoms: O_3  and  C_25
REMARK    4  A    between atoms: C_5  and  C_6
REMARK    5  A    between atoms: C_6  and  C_12
REMARK    6  A    between atoms: C_6  and  C_13
REMARK    7  A    between atoms: C_16  and  C_23
REMARK    8  A    between atoms: C_19  and  C_24
REMARK    9  A    between atoms: C_25  and  C_26
REMARK   10  A    between atoms: C_26  and  C_27
REMARK                            x       y       z     vdW  Elec       q    Type
REMARK                         _______ _______ _______ _____ _____    ______ ____
ROOT
ATOM      5  C   UNL     1      15.004   8.103  20.047  0.00  0.00    +0.005 C 
ATOM      7  C   UNL     1      15.129   6.589  20.239  0.00  0.00    +0.009 C 
ATOM      8  C   UNL     1      15.976   8.828  20.989  0.00  0.00    +0.040 C 
ATOM      9  C   UNL     1      16.536   6.117  19.871  0.00  0.00    +0.036 C 
ATOM     10  C   UNL     1      17.372   8.253  20.969  0.00  0.00    -0.037 A 
ATOM     11  C   UNL     1      17.628   6.960  20.479  0.00  0.00    -0.041 A 
ATOM     16  C   UNL     1      18.425   9.007  21.508  0.00  0.00    -0.005 A 
ATOM     19  C   UNL     1      18.938   6.461  20.504  0.00  0.00    -0.044 A 
ATOM     21  C   UNL     1      19.723   8.495  21.534  0.00  0.00    +0.124 A 
ATOM     22  C   UNL     1      19.980   7.224  21.030  0.00  0.00    +0.049 A 
ATOM     23  C   UNL     1      18.183  10.372  22.073  0.00  0.00    +0.048 C 
ATOM     24  C   UNL     1      19.271   5.107  19.961  0.00  0.00    +0.044 C 
ENDROOT
BRANCH   5   6
ATOM      6  C   UNL     1      13.569   8.568  20.293  0.00  0.00    +0.075 C 
ATOM     13  C   UNL     1      12.918   7.781  21.419  0.00  0.00    +0.017 C 
BRANCH   6  12
ATOM      1  O   UNL     1      12.004   7.424  18.930  0.00  0.00    -0.275 OA
ATOM      4  N   UNL     1      12.931   9.361  18.042  0.00  0.00    -0.301 N 
ATOM     12  C   UNL     1      12.761   8.394  19.031  0.00  0.00    +0.219 C 
ATOM     14  C   UNL     1      13.794  10.543  18.149  0.00  0.00    +0.110 C 
ATOM     15  C   UNL     1      12.183   9.259  16.787  0.00  0.00    +0.110 C 
ATOM     17  C   UNL     1      14.774  10.606  16.976  0.00  0.00    +0.050 C 
ATOM     18  C   UNL     1      13.127   9.295  15.585  0.00  0.00    +0.050 C 
ATOM     20  C   UNL     1      14.053  10.513  15.628  0.00  0.00    +0.118 C 
BRANCH  20   2
ATOM      2  O   UNL     1      13.276  11.688  15.411  0.00  0.00    -0.392 OA
ATOM     28  H   UNL     1      13.488  12.018  14.521  0.00  0.00    +0.210 HD
ENDBRANCH  20   2
ENDBRANCH   6  12
ENDBRANCH   5   6
BRANCH  21   3
ATOM      3  O   UNL     1      20.752   9.225  22.052  0.00  0.00    -0.492 OA
BRANCH   3  25
ATOM     25  C   UNL     1      21.513   8.621  23.096  0.00  0.00    +0.229 C 
BRANCH  25  26
ATOM     26  C   UNL     1      20.718   8.695  24.390  0.00  0.00    +0.038 C 
ATOM     27  C   UNL     1      20.497   7.321  24.996  0.00  0.00    +0.007 C 
ENDBRANCH  25  26
ENDBRANCH   3  25
ENDBRANCH  21   3
TORSDOF 6
ENDMDL
MODEL 4
REMARK VINA RESULT:      -6.4     23.321     27.701
REMARK  Name = 7135373
REMARK  10 active torsions:
REMARK  status: ('A' for Active; 'I' for Inactive)
REMARK    1  A    between atoms: O_2  and  C_20
REMARK    2  A    between atoms: O_3  and  C_21
REMARK    3  A    between atoms: O_3  and  C_25
REMARK    4  A    between atoms: C_5  and  C_6
REMARK    5  A    between atoms: C_6  and  C_12
REMARK    6  A    between atoms: C_6  and  C_13
REMARK    7  A    between atoms: C_16  and  C_23
REMARK    8  A    between atoms: C_19  and  C_24
REMARK    9  A    between atoms: C_25  and  C_26
REMARK   10  A    between atoms: C_26  and  C_27
REMARK                            x       y       z     vdW  Elec       q    Type
REMARK                         _______ _______ _______ _____ _____    ______ ____
ROOT
ATOM      5  C   UNL     1      -6.062 -10.758  17.251  0.00  0.00    +0.005 C 
ATOM      7  C   UNL     1      -4.649 -10.448  17.755  0.00  0.00    +0.009 C 
ATOM      8  C   UNL     1      -6.269 -10.126  15.866  0.00  0.00    +0.040 C 
ATOM      9  C   UNL     1      -3.602 -11.064  16.828  0.00  0.00    +0.036 C 
ATOM     10  C   UNL     1      -5.131 -10.391  14.910  0.00  0.00    -0.037 A 
ATOM     11  C   UNL     1      -3.864 -10.794  15.367  0.00  0.00    -0.041 A 
ATOM     16  C   UNL     1      -5.331 -10.172  13.539  0.00  0.00    -0.005 A 
ATOM     19  C   UNL     1      -2.832 -11.006  14.441  0.00  0.00    -0.044 A 
ATOM     21  C   UNL     1      -4.293 -10.377  12.628  0.00  0.00    +0.124 A 
ATOM     22  C   UNL     1      -3.046 -10.796  13.079  0.00  0.00    +0.049 A 
ATOM     23  C   UNL     1      -6.656  -9.706  13.020  0.00  0.00    +0.048 C 
ATOM     24  C   UNL     1      -1.477 -11.471  14.871  0.00  0.00    +0.044 C 
ENDROOT
BRANCH   5   6
ATOM      6  C   UNL     1      -7.116 -10.254  18.235  0.00  0.00    +0.075 C 
ATOM     13  C   UNL     1      -6.752 -10.613  19.667  0.00  0.00    +0.017 C 
BRANCH   6  12
ATOM      1  O   UNL     1      -8.604 -12.082  17.993  0.00  0.00    -0.275 OA
ATOM      4  N   UNL     1      -9.451  -9.980  17.478  0.00  0.00    -0.301 N 
ATOM     12  C   UNL     1      -8.454 -10.860  17.894  0.00  0.00    +0.219 C 
ATOM     14  C   UNL     1      -9.313  -8.522  17.386  0.00  0.00    +0.110 C 
ATOM     15  C   UNL     1     -10.777 -10.494  17.126  0.00  0.00    +0.110 C 
ATOM     17  C   UNL     1      -9.685  -8.029  15.986  0.00  0.00    +0.050 C 
ATOM     18  C   UNL     1     -11.181 -10.044  15.722  0.00  0.00    +0.050 C 
ATOM     20  C   UNL     1     -11.069  -8.526  15.559  0.00  0.00    +0.118 C 
BRANCH  20   2
ATOM      2  O   UNL     1     -12.075  -7.904  16.355  0.00  0.00    -0.392 OA
ATOM     28  H   UNL     1     -12.502  -7.223  15.806  0.00  0.00    +0.210 HD
ENDBRANCH  20   2
ENDBRANCH   6  12
ENDBRANCH   5   6
BRANCH  21   3
ATOM      3  O   UNL     1      -4.482 -10.170  11.294  0.00  0.00    -0.492 OA
BRANCH   3  25
ATOM     25  C   UNL     1      -3.376  -9.658  10.555  0.00  0.00    +0.229 C 
BRANCH  25  26
ATOM     26  C   UNL     1      -3.901  -8.891   9.352  0.00  0.00    +0.038 C 
ATOM     27  C   UNL     1      -5.292  -8.335   9.601  0.00  0.00    +0.007 C 
ENDBRANCH  25  26
ENDBRANCH   3  25
ENDBRANCH  21   3
TORSDOF 6
ENDMDL
MODEL 5
REMARK VINA RESULT:      -6.3     16.148     20.227
REMARK  Name = 7135373
REMARK  10 active torsions:
REMARK  status: ('A' for Active; 'I' for Inactive)
REMARK    1  A    between atoms: O_2  and  C_20
REMARK    2  A    between atoms: O_3  and  C_21
REMARK    3  A    between atoms: O_3  and  C_25
REMARK    4  A    between atoms: C_5  and  C_6
REMARK    5  A    between atoms: C_6  and  C_12
REMARK    6  A    between atoms: C_6  and  C_13
REMARK    7  A    between atoms: C_16  and  C_23
REMARK    8  A    between atoms: C_19  and  C_24
REMARK    9  A    between atoms: C_25  and  C_26
REMARK   10  A    between atoms: C_26  and  C_27
REMARK                            x       y       z     vdW  Elec       q    Type
REMARK                         _______ _______ _______ _____ _____    ______ ____
ROOT
ATOM      5  C   UNL     1      16.403   9.913  21.492  0.00  0.00    +0.005 C 
ATOM      7  C   UNL     1      17.580  10.881  21.648  0.00  0.00    +0.009 C 
ATOM      8  C   UNL     1      16.822   8.724  20.615  0.00  0.00    +0.040 C 
ATOM      9  C   UNL     1      18.747  10.197  22.359  0.00  0.00    +0.036 C 
ATOM     10  C   UNL     1      18.150   8.125  21.011  0.00  0.00    -0.037 A 
ATOM     11  C   UNL     1      19.073   8.836  21.798  0.00  0.00    -0.041 A 
ATOM     16  C   UNL     1      18.492   6.852  20.530  0.00  0.00    -0.005 A 
ATOM     19  C   UNL     1      20.303   8.245  22.120  0.00  0.00    -0.044 A 
ATOM     21  C   UNL     1      19.723   6.279  20.850  0.00  0.00    +0.124 A 
ATOM     22  C   UNL     1      20.627   6.974  21.646  0.00  0.00    +0.049 A 
ATOM     23  C   UNL     1      17.549   6.082  19.657  0.00  0.00    +0.048 C 
ATOM     24  C   UNL     1      21.304   8.942  22.986  0.00  0.00    +0.044 C 
ENDROOT
BRANCH   5   6
ATOM      6  C   UNL     1      15.188  10.620  20.896  0.00  0.00    +0.075 C 
ATOM     13  C   UNL     1      15.008  12.008  21.492  0.00  0.00    +0.017 C 
BRANCH   6  12
ATOM      1  O   UNL     1      13.529   9.697  22.314  0.00  0.00    -0.275 OA
ATOM      4  N   UNL     1      13.352   9.200  20.051  0.00  0.00    -0.301 N 
ATOM     12  C   UNL     1      13.950   9.800  21.158  0.00  0.00    +0.219 C 
ATOM     14  C   UNL     1      13.807   9.336  18.662  0.00  0.00    +0.110 C 
ATOM     15  C   UNL     1      12.148   8.385  20.225  0.00  0.00    +0.110 C 
ATOM     17  C   UNL     1      14.037   7.961  18.031  0.00  0.00    +0.050 C 
ATOM     18  C   UNL     1      12.341   6.992  19.627  0.00  0.00    +0.050 C 
ATOM     20  C   UNL     1      12.807   7.059  18.171  0.00  0.00    +0.118 C 
BRANCH  20   2
ATOM      2  O   UNL     1      11.741   7.564  17.370  0.00  0.00    -0.392 OA
ATOM     28  H   UNL     1      11.020   6.912  17.401  0.00  0.00    +0.210 HD
ENDBRANCH  20   2
ENDBRANCH   6  12
ENDBRANCH   5   6
BRANCH  21   3
ATOM      3  O   UNL     1      20.059   5.040  20.389  0.00  0.00    -0.492 OA
BRANCH   3  25
ATOM     25  C   UNL     1      21.438   4.682  20.443  0.00  0.00    +0.229 C 
BRANCH  25  26
ATOM     26  C   UNL     1      21.572   3.353  21.171  0.00  0.00    +0.038 C 
ATOM     27  C   UNL     1      22.203   3.522  22.542  0.00  0.00    +0.007 C 
ENDBRANCH  25  26
ENDBRANCH   3  25
ENDBRANCH  21   3
TORSDOF 6
ENDMDL
MODEL 6
REMARK VINA RESULT:      -6.3     22.405     26.051
REMARK  Name = 7135373
REMARK  10 active torsions:
REMARK  status: ('A' for Active; 'I' for Inactive)
REMARK    1  A    between atoms: O_2  and  C_20
REMARK    2  A    between atoms: O_3  and  C_21
REMARK    3  A    between atoms: O_3  and  C_25
REMARK    4  A    between atoms: C_5  and  C_6
REMARK    5  A    between atoms: C_6  and  C_12
REMARK    6  A    between atoms: C_6  and  C_13
REMARK    7  A    between atoms: C_16  and  C_23
REMARK    8  A    between atoms: C_19  and  C_24
REMARK    9  A    between atoms: C_25  and  C_26
REMARK   10  A    between atoms: C_26  and  C_27
REMARK                            x       y       z     vdW  Elec       q    Type
REMARK                         _______ _______ _______ _____ _____    ______ ____
ROOT
ATOM      5  C   UNL     1      -3.732 -10.994  14.911  0.00  0.00    +0.005 C 
ATOM      7  C   UNL     1      -3.606 -11.811  16.200  0.00  0.00    +0.009 C 
ATOM      8  C   UNL     1      -5.211 -10.866  14.519  0.00  0.00    +0.040 C 
ATOM      9  C   UNL     1      -4.309 -11.100  17.356  0.00  0.00    +0.036 C 
ATOM     10  C   UNL     1      -6.103 -10.465  15.669  0.00  0.00    -0.037 A 
ATOM     11  C   UNL     1      -5.693 -10.613  17.006  0.00  0.00    -0.041 A 
ATOM     16  C   UNL     1      -7.394  -9.989  15.394  0.00  0.00    -0.005 A 
ATOM     19  C   UNL     1      -6.567 -10.248  18.040  0.00  0.00    -0.044 A 
ATOM     21  C   UNL     1      -8.257  -9.637  16.432  0.00  0.00    +0.124 A 
ATOM     22  C   UNL     1      -7.843  -9.764  17.754  0.00  0.00    +0.049 A 
ATOM     23  C   UNL     1      -7.879  -9.855  13.984  0.00  0.00    +0.048 C 
ATOM     24  C   UNL     1      -6.165 -10.350  19.477  0.00  0.00    +0.044 C 
ENDROOT
BRANCH   5   6
ATOM      6  C   UNL     1      -2.929 -11.633  13.779  0.00  0.00    +0.075 C 
ATOM     13  C   UNL     1      -1.709 -12.368  14.312  0.00  0.00    +0.017 C 
BRANCH   6  12
ATOM      1  O   UNL     1      -1.631  -9.746  13.170  0.00  0.00    -0.275 OA
ATOM      4  N   UNL     1      -3.081 -10.572  11.553  0.00  0.00    -0.301 N 
ATOM     12  C   UNL     1      -2.484 -10.564  12.813  0.00  0.00    +0.219 C 
ATOM     14  C   UNL     1      -4.069 -11.554  11.088  0.00  0.00    +0.110 C 
ATOM     15  C   UNL     1      -2.704  -9.564  10.561  0.00  0.00    +0.110 C 
ATOM     17  C   UNL     1      -5.331 -10.853  10.582  0.00  0.00    +0.050 C 
ATOM     18  C   UNL     1      -3.935  -8.822  10.042  0.00  0.00    +0.050 C 
ATOM     20  C   UNL     1      -5.006  -9.788   9.530  0.00  0.00    +0.118 C 
BRANCH  20   2
ATOM      2  O   UNL     1      -4.531 -10.411   8.339  0.00  0.00    -0.392 OA
ATOM     28  H   UNL     1      -4.193  -9.709   7.757  0.00  0.00    +0.210 HD
ENDBRANCH  20   2
ENDBRANCH   6  12
ENDBRANCH   5   6
BRANCH  21   3
ATOM      3  O   UNL     1      -9.511  -9.170  16.171  0.00  0.00    -0.492 OA
BRANCH   3  25
ATOM     25  C   UNL     1      -9.746  -7.783  16.404  0.00  0.00    +0.229 C 
BRANCH  25  26
ATOM     26  C   UNL     1     -11.030  -7.377  15.696  0.00  0.00    +0.038 C 
ATOM     27  C   UNL     1     -11.516  -6.011  16.149  0.00  0.00    +0.007 C 
ENDBRANCH  25  26
ENDBRANCH   3  25
ENDBRANCH  21   3
TORSDOF 6
ENDMDL
MODEL 7
REMARK VINA RESULT:      -6.1      3.300      7.112
REMARK  Name = 7135373
REMARK  10 active torsions:
REMARK  status: ('A' for Active; 'I' for Inactive)
REMARK    1  A    between atoms: O_2  and  C_20
REMARK    2  A    between atoms: O_3  and  C_21
REMARK    3  A    between atoms: O_3  and  C_25
REMARK    4  A    between atoms: C_5  and  C_6
REMARK    5  A    between atoms: C_6  and  C_12
REMARK    6  A    between atoms: C_6  and  C_13
REMARK    7  A    between atoms: C_16  and  C_23
REMARK    8  A    between atoms: C_19  and  C_24
REMARK    9  A    between atoms: C_25  and  C_26
REMARK   10  A    between atoms: C_26  and  C_27
REMARK                            x       y       z     vdW  Elec       q    Type
REMARK                         _______ _______ _______ _____ _____    ______ ____
ROOT
ATOM      5  C   UNL     1       7.439   8.896   3.829  0.00  0.00    +0.005 C 
ATOM      7  C   UNL     1       7.981   8.928   5.262  0.00  0.00    +0.009 C 
ATOM      8  C   UNL     1       8.514   8.346   2.880  0.00  0.00    +0.040 C 
ATOM      9  C   UNL     1       8.312   7.515   5.741  0.00  0.00    +0.036 C 
ATOM     10  C   UNL     1       9.174   7.086   3.387  0.00  0.00    -0.037 A 
ATOM     11  C   UNL     1       9.112   6.717   4.742  0.00  0.00    -0.041 A 
ATOM     16  C   UNL     1       9.915   6.300   2.492  0.00  0.00    -0.005 A 
ATOM     19  C   UNL     1       9.761   5.549   5.168  0.00  0.00    -0.044 A 
ATOM     21  C   UNL     1      10.563   5.145   2.930  0.00  0.00    +0.124 A 
ATOM     22  C   UNL     1      10.484   4.769   4.267  0.00  0.00    +0.049 A 
ATOM     23  C   UNL     1      10.034   6.683   1.049  0.00  0.00    +0.048 C 
ATOM     24  C   UNL     1       9.695   5.091   6.591  0.00  0.00    +0.044 C 
ENDROOT
BRANCH   5   6
ATOM      6  C   UNL     1       6.989  10.286   3.385  0.00  0.00    +0.075 C 
ATOM     13  C   UNL     1       6.817  11.219   4.573  0.00  0.00    +0.017 C 
BRANCH   6  12
ATOM      1  O   UNL     1       4.633  10.048   3.285  0.00  0.00    -0.275 OA
ATOM      4  N   UNL     1       5.744  10.231   1.252  0.00  0.00    -0.301 N 
ATOM     12  C   UNL     1       5.680  10.178   2.643  0.00  0.00    +0.219 C 
ATOM     14  C   UNL     1       6.967  10.423   0.464  0.00  0.00    +0.110 C 
ATOM     15  C   UNL     1       4.515  10.130   0.461  0.00  0.00    +0.110 C 
ATOM     17  C   UNL     1       7.128   9.305  -0.568  0.00  0.00    +0.050 C 
ATOM     18  C   UNL     1       4.622   9.008  -0.571  0.00  0.00    +0.050 C 
ATOM     20  C   UNL     1       5.876   9.152  -1.437  0.00  0.00    +0.118 C 
BRANCH  20   2
ATOM      2  O   UNL     1       5.725  10.294  -2.277  0.00  0.00    -0.392 OA
ATOM     28  H   UNL     1       4.976  10.811  -1.934  0.00  0.00    +0.210 HD
ENDBRANCH  20   2
ENDBRANCH   6  12
ENDBRANCH   5   6
BRANCH  21   3
ATOM      3  O   UNL     1      11.281   4.374   2.065  0.00  0.00    -0.492 OA
BRANCH   3  25
ATOM     25  C   UNL     1      12.677   4.646   1.960  0.00  0.00    +0.229 C 
BRANCH  25  26
ATOM     26  C   UNL     1      13.388   3.388   1.486  0.00  0.00    +0.038 C 
ATOM     27  C   UNL     1      14.892   3.489   1.666  0.00  0.00    +0.007 C 
ENDBRANCH  25  26
ENDBRANCH   3  25
ENDBRANCH  21   3
TORSDOF 6
ENDMDL
MODEL 8
REMARK VINA RESULT:      -6.1     17.272     20.623
REMARK  Name = 7135373
REMARK  10 active torsions:
REMARK  status: ('A' for Active; 'I' for Inactive)
REMARK    1  A    between atoms: O_2  and  C_20
REMARK    2  A    between atoms: O_3  and  C_21
REMARK    3  A    between atoms: O_3  and  C_25
REMARK    4  A    between atoms: C_5  and  C_6
REMARK    5  A    between atoms: C_6  and  C_12
REMARK    6  A    between atoms: C_6  and  C_13
REMARK    7  A    between atoms: C_16  and  C_23
REMARK    8  A    between atoms: C_19  and  C_24
REMARK    9  A    between atoms: C_25  and  C_26
REMARK   10  A    between atoms: C_26  and  C_27
REMARK                            x       y       z     vdW  Elec       q    Type
REMARK                         _______ _______ _______ _____ _____    ______ ____
ROOT
ATOM      5  C   UNL     1      20.323   6.829  21.435  0.00  0.00    +0.005 C 
ATOM      7  C   UNL     1      19.899   7.642  22.662  0.00  0.00    +0.009 C 
ATOM      8  C   UNL     1      19.084   6.215  20.766  0.00  0.00    +0.040 C 
ATOM      9  C   UNL     1      18.997   8.805  22.249  0.00  0.00    +0.036 C 
ATOM     10  C   UNL     1      17.956   7.200  20.574  0.00  0.00    -0.037 A 
ATOM     11  C   UNL     1      17.895   8.401  21.303  0.00  0.00    -0.041 A 
ATOM     16  C   UNL     1      16.915   6.877  19.690  0.00  0.00    -0.005 A 
ATOM     19  C   UNL     1      16.814   9.272  21.106  0.00  0.00    -0.044 A 
ATOM     21  C   UNL     1      15.841   7.748  19.509  0.00  0.00    +0.124 A 
ATOM     22  C   UNL     1      15.792   8.946  20.215  0.00  0.00    +0.049 A 
ATOM     23  C   UNL     1      16.928   5.589  18.926  0.00  0.00    +0.048 C 
ATOM     24  C   UNL     1      16.720  10.579  21.827  0.00  0.00    +0.044 C 
ENDROOT
BRANCH   5   6
ATOM      6  C   UNL     1      21.322   5.740  21.821  0.00  0.00    +0.075 C 
ATOM     13  C   UNL     1      21.662   5.799  23.301  0.00  0.00    +0.017 C 
BRANCH   6  12
ATOM      1  O   UNL     1      22.746   6.939  20.354  0.00  0.00    -0.275 OA
ATOM      4  N   UNL     1      23.503   4.860  21.064  0.00  0.00    -0.301 N 
ATOM     12  C   UNL     1      22.584   5.907  21.013  0.00  0.00    +0.219 C 
ATOM     14  C   UNL     1      23.355   3.639  21.867  0.00  0.00    +0.110 C 
ATOM     15  C   UNL     1      24.751   4.947  20.304  0.00  0.00    +0.110 C 
ATOM     17  C   UNL     1      23.495   2.394  20.989  0.00  0.00    +0.050 C 
ATOM     18  C   UNL     1      24.922   3.731  19.394  0.00  0.00    +0.050 C 
ATOM     20  C   UNL     1      24.789   2.418  20.171  0.00  0.00    +0.118 C 
BRANCH  20   2
ATOM      2  O   UNL     1      25.913   2.282  21.037  0.00  0.00    -0.392 OA
ATOM     28  H   UNL     1      25.937   3.067  21.610  0.00  0.00    +0.210 HD
ENDBRANCH  20   2
ENDBRANCH   6  12
ENDBRANCH   5   6
BRANCH  21   3
ATOM      3  O   UNL     1      14.829   7.443  18.648  0.00  0.00    -0.492 OA
BRANCH   3  25
ATOM     25  C   UNL     1      13.519   7.875  19.009  0.00  0.00    +0.229 C 
BRANCH  25  26
ATOM     26  C   UNL     1      12.839   6.770  19.803  0.00  0.00    +0.038 C 
ATOM     27  C   UNL     1      12.236   7.293  21.095  0.00  0.00    +0.007 C 
ENDBRANCH  25  26
ENDBRANCH   3  25
ENDBRANCH  21   3
TORSDOF 6
ENDMDL
MODEL 9
REMARK VINA RESULT:      -6.0     24.470     28.872
REMARK  Name = 7135373
REMARK  10 active torsions:
REMARK  status: ('A' for Active; 'I' for Inactive)
REMARK    1  A    between atoms: O_2  and  C_20
REMARK    2  A    between atoms: O_3  and  C_21
REMARK    3  A    between atoms: O_3  and  C_25
REMARK    4  A    between atoms: C_5  and  C_6
REMARK    5  A    between atoms: C_6  and  C_12
REMARK    6  A    between atoms: C_6  and  C_13
REMARK    7  A    between atoms: C_16  and  C_23
REMARK    8  A    between atoms: C_19  and  C_24
REMARK    9  A    between atoms: C_25  and  C_26
REMARK   10  A    between atoms: C_26  and  C_27
REMARK                            x       y       z     vdW  Elec       q    Type
REMARK                         _______ _______ _______ _____ _____    ______ ____
ROOT
ATOM      5  C   UNL     1      -8.287 -10.829  18.391  0.00  0.00    +0.005 C 
ATOM      7  C   UNL     1      -7.475 -10.697  19.683  0.00  0.00    +0.009 C 
ATOM      8  C   UNL     1      -7.512 -10.200  17.224  0.00  0.00    +0.040 C 
ATOM      9  C   UNL     1      -6.156 -11.459  19.567  0.00  0.00    +0.036 C 
ATOM     10  C   UNL     1      -6.065 -10.626  17.165  0.00  0.00    -0.037 A 
ATOM     11  C   UNL     1      -5.416 -11.182  18.282  0.00  0.00    -0.041 A 
ATOM     16  C   UNL     1      -5.339 -10.406  15.985  0.00  0.00    -0.005 A 
ATOM     19  C   UNL     1      -4.064 -11.541  18.184  0.00  0.00    -0.044 A 
ATOM     21  C   UNL     1      -3.992 -10.760  15.904  0.00  0.00    +0.124 A 
ATOM     22  C   UNL     1      -3.356 -11.329  17.002  0.00  0.00    +0.049 A 
ATOM     23  C   UNL     1      -5.988  -9.781  14.789  0.00  0.00    +0.048 C 
ATOM     24  C   UNL     1      -3.337 -12.171  19.330  0.00  0.00    +0.044 C 
ENDROOT
BRANCH   5   6
ATOM      6  C   UNL     1      -9.660 -10.176  18.540  0.00  0.00    +0.075 C 
ATOM     13  C   UNL     1     -10.380 -10.678  19.781  0.00  0.00    +0.017 C 
BRANCH   6  12
ATOM      1  O   UNL     1     -10.600 -11.648  16.938  0.00  0.00    -0.275 OA
ATOM      4  N   UNL     1     -11.108  -9.394  16.697  0.00  0.00    -0.301 N 
ATOM     12  C   UNL     1     -10.496 -10.479  17.322  0.00  0.00    +0.219 C 
ATOM     14  C   UNL     1     -11.034  -8.000  17.152  0.00  0.00    +0.110 C 
ATOM     15  C   UNL     1     -11.934  -9.608  15.507  0.00  0.00    +0.110 C 
ATOM     17  C   UNL     1     -10.537  -7.089  16.028  0.00  0.00    +0.050 C 
ATOM     18  C   UNL     1     -11.457  -8.732  14.348  0.00  0.00    +0.050 C 
ATOM     20  C   UNL     1     -11.367  -7.258  14.751  0.00  0.00    +0.118 C 
BRANCH  20   2
ATOM      2  O   UNL     1     -12.685  -6.757  14.959  0.00  0.00    -0.392 OA
ATOM     28  H   UNL     1     -12.602  -5.854  15.309  0.00  0.00    +0.210 HD
ENDBRANCH  20   2
ENDBRANCH   6  12
ENDBRANCH   5   6
BRANCH  21   3
ATOM      3  O   UNL     1      -3.282 -10.553  14.759  0.00  0.00    -0.492 OA
BRANCH   3  25
ATOM     25  C   UNL     1      -2.772 -11.708  14.096  0.00  0.00    +0.229 C 
BRANCH  25  26
ATOM     26  C   UNL     1      -2.177 -11.286  12.762  0.00  0.00    +0.038 C 
ATOM     27  C   UNL     1      -3.124 -10.395  11.977  0.00  0.00    +0.007 C 
ENDBRANCH  25  26
ENDBRANCH   3  25
ENDBRANCH  21   3
TORSDOF 6
ENDMDL
MODEL 10
REMARK VINA RESULT:      -6.0     23.390     25.510
REMARK  Name = 7135373
REMARK  10 active torsions:
REMARK  status: ('A' for Active; 'I' for Inactive)
REMARK    1  A    between atoms: O_2  and  C_20
REMARK    2  A    between atoms: O_3  and  C_21
REMARK    3  A    between atoms: O_3  and  C_25
REMARK    4  A    between atoms: C_5  and  C_6
REMARK    5  A    between atoms: C_6  and  C_12
REMARK    6  A    between atoms: C_6  and  C_13
REMARK    7  A    between atoms: C_16  and  C_23
REMARK    8  A    between atoms: C_19  and  C_24
REMARK    9  A    between atoms: C_25  and  C_26
REMARK   10  A    between atoms: C_26  and  C_27
REMARK                            x       y       z     vdW  Elec       q    Type
REMARK                         _______ _______ _______ _____ _____    ______ ____
ROOT
ATOM      5  C   UNL     1      -4.243 -10.506  11.593  0.00  0.00    +0.005 C 
ATOM      7  C   UNL     1      -2.891 -11.213  11.727  0.00  0.00    +0.009 C 
ATOM      8  C   UNL     1      -5.122 -10.830  12.810  0.00  0.00    +0.040 C 
ATOM      9  C   UNL     1      -2.142 -10.709  12.960  0.00  0.00    +0.036 C 
ATOM     10  C   UNL     1      -4.401 -10.679  14.128  0.00  0.00    -0.037 A 
ATOM     11  C   UNL     1      -2.997 -10.663  14.201  0.00  0.00    -0.041 A 
ATOM     16  C   UNL     1      -5.154 -10.613  15.310  0.00  0.00    -0.005 A 
ATOM     19  C   UNL     1      -2.374 -10.543  15.452  0.00  0.00    -0.044 A 
ATOM     21  C   UNL     1      -4.522 -10.503  16.549  0.00  0.00    +0.124 A 
ATOM     22  C   UNL     1      -3.133 -10.466  16.619  0.00  0.00    +0.049 A 
ATOM     23  C   UNL     1      -6.650 -10.666  15.272  0.00  0.00    +0.048 C 
ATOM     24  C   UNL     1      -0.885 -10.483  15.583  0.00  0.00    +0.044 C 
ENDROOT
BRANCH   5   6
ATOM      6  C   UNL     1      -4.945 -10.910  10.298  0.00  0.00    +0.075 C 
ATOM     13  C   UNL     1      -4.070 -11.824   9.455  0.00  0.00    +0.017 C 
BRANCH   6  12
ATOM      1  O   UNL     1      -4.407  -8.833   9.292  0.00  0.00    -0.275 OA
ATOM      4  N   UNL     1      -6.600  -9.563   9.053  0.00  0.00    -0.301 N 
ATOM     12  C   UNL     1      -5.286  -9.674   9.503  0.00  0.00    +0.219 C 
ATOM     14  C   UNL     1      -7.655 -10.564   9.256  0.00  0.00    +0.110 C 
ATOM     15  C   UNL     1      -7.008  -8.390   8.277  0.00  0.00    +0.110 C 
ATOM     17  C   UNL     1      -8.882  -9.930   9.915  0.00  0.00    +0.050 C 
ATOM     18  C   UNL     1      -8.221  -7.711   8.913  0.00  0.00    +0.050 C 
ATOM     20  C   UNL     1      -9.367  -8.698   9.145  0.00  0.00    +0.118 C 
BRANCH  20   2
ATOM      2  O   UNL     1      -9.896  -9.093   7.881  0.00  0.00    -0.392 OA
ATOM     28  H   UNL     1     -10.738  -8.622   7.757  0.00  0.00    +0.210 HD
ENDBRANCH  20   2
ENDBRANCH   6  12
ENDBRANCH   5   6
BRANCH  21   3
ATOM      3  O   UNL     1      -5.247 -10.434  17.701  0.00  0.00    -0.492 OA
BRANCH   3  25
ATOM     25  C   UNL     1      -4.838 -11.277  18.775  0.00  0.00    +0.229 C 
BRANCH  25  26
ATOM     26  C   UNL     1      -5.989 -11.411  19.760  0.00  0.00    +0.038 C 
ATOM     27  C   UNL     1      -7.155 -12.181  19.165  0.00  0.00    +0.007 C 
ENDBRANCH  25  26
ENDBRANCH   3  25
ENDBRANCH  21   3
TORSDOF 6
ENDMDL
