MODEL 1
REMARK VINA RESULT:      -8.1      0.000      0.000
REMARK  Name = 25338410
REMARK  5 active torsions:
REMARK  status: ('A' for Active; 'I' for Inactive)
REMARK    1  A    between atoms: N_4  and  C_14
REMARK    2  A    between atoms: N_5  and  C_9
REMARK    3  A    between atoms: C_10  and  C_13
REMARK    4  A    between atoms: C_15  and  C_17
REMARK    5  A    between atoms: C_16  and  C_18
REMARK                            x       y       z     vdW  Elec       q    Type
REMARK                         _______ _______ _______ _____ _____    ______ ____
ROOT
ATOM      4  N   UNL     1      11.458   6.912  21.678  0.00  0.00    -0.293 NA
ATOM      9  C   UNL     1      10.657   9.095  21.840  0.00  0.00    +0.089 C 
ATOM     10  C   UNL     1      11.710   7.479  20.339  0.00  0.00    +0.147 C 
ATOM     11  C   UNL     1      11.327   8.966  20.471  0.00  0.00    +0.052 C 
ATOM     12  C   UNL     1      10.324   7.662  22.225  0.00  0.00    +0.107 C 
ATOM     14  C   UNL     1      11.201   5.476  21.655  0.00  0.00    +0.105 C 
ENDROOT
BRANCH  10  13
ATOM      2  O   UNL     1      13.364   7.520  18.541  0.00  0.00    -0.336 OA
ATOM      6  N   UNL     1      14.192   6.914  20.532  0.00  0.00    -0.190 NA
ATOM      7  N   UNL     1      14.728   7.277  18.338  0.00  0.00    -0.056 NA
ATOM     13  C   UNL     1      13.132   7.284  19.859  0.00  0.00    +0.245 A 
ATOM     16  C   UNL     1      15.147   6.925  19.557  0.00  0.00    +0.202 A 
BRANCH  16  18
ATOM      1 CL   UNL     1      20.797   5.477  20.709  0.00  0.00    -0.084 Cl
ATOM     18  C   UNL     1      16.511   6.578  19.834  0.00  0.00    +0.023 A 
ATOM     20  C   UNL     1      17.193   5.704  18.987  0.00  0.00    +0.013 A 
ATOM     21  C   UNL     1      17.154   7.110  20.951  0.00  0.00    +0.013 A 
ATOM     24  C   UNL     1      18.519   5.364  19.257  0.00  0.00    +0.021 A 
ATOM     25  C   UNL     1      18.479   6.770  21.222  0.00  0.00    +0.021 A 
ATOM     27  C   UNL     1      19.161   5.897  20.375  0.00  0.00    +0.041 A 
ENDBRANCH  16  18
ENDBRANCH  10  13
BRANCH   9   5
ATOM      3  O   UNL     1      11.126  11.906  22.191  0.00  0.00    -0.269 OA
ATOM      5  N   UNL     1      11.538   9.708  22.805  0.00  0.00    -0.306 N 
ATOM     15  C   UNL     1      11.698  11.082  22.900  0.00  0.00    +0.263 C 
ATOM     28  H   UNL     1      12.096   9.104  23.402  0.00  0.00    +0.149 HD
BRANCH  15  17
ATOM      8  N   UNL     1      13.957  11.242  23.706  0.00  0.00    -0.250 NA
ATOM     17  C   UNL     1      12.660  11.554  23.928  0.00  0.00    +0.125 A 
ATOM     19  C   UNL     1      12.211  12.265  25.031  0.00  0.00    +0.033 A 
ATOM     22  C   UNL     1      13.154  12.680  25.964  0.00  0.00    +0.004 A 
ATOM     23  C   UNL     1      14.844  11.663  24.635  0.00  0.00    +0.111 A 
ATOM     26  C   UNL     1      14.497  12.378  25.770  0.00  0.00    +0.020 A 
ENDBRANCH  15  17
ENDBRANCH   9   5
TORSDOF 4
ENDMDL
MODEL 2
REMARK VINA RESULT:      -7.7      3.534      7.747
REMARK  Name = 25338410
REMARK  5 active torsions:
REMARK  status: ('A' for Active; 'I' for Inactive)
REMARK    1  A    between atoms: N_4  and  C_14
REMARK    2  A    between atoms: N_5  and  C_9
REMARK    3  A    between atoms: C_10  and  C_13
REMARK    4  A    between atoms: C_15  and  C_17
REMARK    5  A    between atoms: C_16  and  C_18
REMARK                            x       y       z     vdW  Elec       q    Type
REMARK                         _______ _______ _______ _____ _____    ______ ____
ROOT
ATOM      4  N   UNL     1      13.163   8.923  18.491  0.00  0.00    -0.293 NA
ATOM      9  C   UNL     1      14.215   6.855  18.719  0.00  0.00    +0.089 C 
ATOM     10  C   UNL     1      12.201   8.123  19.272  0.00  0.00    +0.147 C 
ATOM     11  C   UNL     1      12.942   6.803  19.564  0.00  0.00    +0.052 C 
ATOM     12  C   UNL     1      13.945   7.960  17.709  0.00  0.00    +0.107 C 
ATOM     14  C   UNL     1      12.525   9.922  17.642  0.00  0.00    +0.105 C 
ENDROOT
BRANCH  10  13
ATOM      2  O   UNL     1      11.125   8.026  21.464  0.00  0.00    -0.336 OA
ATOM      6  N   UNL     1      11.799  10.076  20.866  0.00  0.00    -0.190 NA
ATOM      7  N   UNL     1      10.775   8.875  22.521  0.00  0.00    -0.056 NA
ATOM     13  C   UNL     1      11.724   8.812  20.532  0.00  0.00    +0.245 A 
ATOM     16  C   UNL     1      11.205  10.066  22.095  0.00  0.00    +0.202 A 
BRANCH  16  18
ATOM      1 CL   UNL     1      10.601  15.032  25.305  0.00  0.00    -0.084 Cl
ATOM     18  C   UNL     1      11.057  11.263  22.870  0.00  0.00    +0.023 A 
ATOM     20  C   UNL     1      10.982  12.501  22.231  0.00  0.00    +0.013 A 
ATOM     21  C   UNL     1      10.993  11.191  24.261  0.00  0.00    +0.013 A 
ATOM     24  C   UNL     1      10.840  13.667  22.984  0.00  0.00    +0.021 A 
ATOM     25  C   UNL     1      10.852  12.357  25.014  0.00  0.00    +0.021 A 
ATOM     27  C   UNL     1      10.775  13.594  24.376  0.00  0.00    +0.041 A 
ENDBRANCH  16  18
ENDBRANCH  10  13
BRANCH   9   5
ATOM      3  O   UNL     1      16.759   5.526  18.622  0.00  0.00    -0.269 OA
ATOM      5  N   UNL     1      15.375   7.152  19.526  0.00  0.00    -0.306 N 
ATOM     15  C   UNL     1      16.565   6.452  19.405  0.00  0.00    +0.263 C 
ATOM     28  H   UNL     1      15.295   7.869  20.242  0.00  0.00    +0.149 HD
BRANCH  15  17
ATOM      8  N   UNL     1      17.459   8.026  20.987  0.00  0.00    -0.250 NA
ATOM     17  C   UNL     1      17.656   6.863  20.326  0.00  0.00    +0.125 A 
ATOM     19  C   UNL     1      18.787   6.074  20.465  0.00  0.00    +0.033 A 
ATOM     22  C   UNL     1      19.779   6.507  21.338  0.00  0.00    +0.004 A 
ATOM     23  C   UNL     1      18.444   8.414  21.827  0.00  0.00    +0.111 A 
ATOM     26  C   UNL     1      19.612   7.698  22.035  0.00  0.00    +0.020 A 
ENDBRANCH  15  17
ENDBRANCH   9   5
TORSDOF 4
ENDMDL
MODEL 3
REMARK VINA RESULT:      -7.2      4.346      5.390
REMARK  Name = 25338410
REMARK  5 active torsions:
REMARK  status: ('A' for Active; 'I' for Inactive)
REMARK    1  A    between atoms: N_4  and  C_14
REMARK    2  A    between atoms: N_5  and  C_9
REMARK    3  A    between atoms: C_10  and  C_13
REMARK    4  A    between atoms: C_15  and  C_17
REMARK    5  A    between atoms: C_16  and  C_18
REMARK                            x       y       z     vdW  Elec       q    Type
REMARK                         _______ _______ _______ _____ _____    ______ ____
ROOT
ATOM      4  N   UNL     1      15.028   7.657  20.225  0.00  0.00    -0.293 NA
ATOM      9  C   UNL     1      13.010   7.386  21.360  0.00  0.00    +0.089 C 
ATOM     10  C   UNL     1      14.102   7.169  19.185  0.00  0.00    +0.147 C 
ATOM     11  C   UNL     1      12.726   7.128  19.879  0.00  0.00    +0.052 C 
ATOM     12  C   UNL     1      14.506   7.150  21.497  0.00  0.00    +0.107 C 
ATOM     14  C   UNL     1      16.410   7.249  20.002  0.00  0.00    +0.105 C 
ENDROOT
BRANCH  10  13
ATOM      2  O   UNL     1      13.473   7.495  16.846  0.00  0.00    -0.336 OA
ATOM      6  N   UNL     1      14.612   9.207  17.734  0.00  0.00    -0.190 NA
ATOM      7  N   UNL     1      13.598   8.449  15.829  0.00  0.00    -0.056 NA
ATOM     13  C   UNL     1      14.096   8.020  17.933  0.00  0.00    +0.245 A 
ATOM     16  C   UNL     1      14.281   9.429  16.429  0.00  0.00    +0.202 A 
BRANCH  16  18
ATOM      1 CL   UNL     1      15.809  14.449  13.635  0.00  0.00    -0.084 Cl
ATOM     18  C   UNL     1      14.647  10.640  15.754  0.00  0.00    +0.023 A 
ATOM     20  C   UNL     1      15.438  10.586  14.607  0.00  0.00    +0.013 A 
ATOM     21  C   UNL     1      14.216  11.872  16.246  0.00  0.00    +0.013 A 
ATOM     24  C   UNL     1      15.797  11.764  13.950  0.00  0.00    +0.021 A 
ATOM     25  C   UNL     1      14.575  13.049  15.591  0.00  0.00    +0.021 A 
ATOM     27  C   UNL     1      15.366  12.995  14.443  0.00  0.00    +0.041 A 
ENDBRANCH  16  18
ENDBRANCH  10  13
BRANCH   9   5
ATOM      3  O   UNL     1      10.604   8.207  22.694  0.00  0.00    -0.269 OA
ATOM      5  N   UNL     1      12.652   8.731  21.742  0.00  0.00    -0.306 N 
ATOM     15  C   UNL     1      11.462   9.030  22.387  0.00  0.00    +0.263 C 
ATOM     28  H   UNL     1      13.276   9.489  21.482  0.00  0.00    +0.149 HD
BRANCH  15  17
ATOM      8  N   UNL     1      11.371  11.315  21.646  0.00  0.00    -0.250 NA
ATOM     17  C   UNL     1      11.231  10.466  22.690  0.00  0.00    +0.125 A 
ATOM     19  C   UNL     1      10.896  10.864  23.974  0.00  0.00    +0.033 A 
ATOM     22  C   UNL     1      10.694  12.221  24.203  0.00  0.00    +0.004 A 
ATOM     23  C   UNL     1      11.166  12.626  21.907  0.00  0.00    +0.111 A 
ATOM     26  C   UNL     1      10.829  13.124  23.155  0.00  0.00    +0.020 A 
ENDBRANCH  15  17
ENDBRANCH   9   5
TORSDOF 4
ENDMDL
MODEL 4
REMARK VINA RESULT:      -6.9     27.565     29.956
REMARK  Name = 25338410
REMARK  5 active torsions:
REMARK  status: ('A' for Active; 'I' for Inactive)
REMARK    1  A    between atoms: N_4  and  C_14
REMARK    2  A    between atoms: N_5  and  C_9
REMARK    3  A    between atoms: C_10  and  C_13
REMARK    4  A    between atoms: C_15  and  C_17
REMARK    5  A    between atoms: C_16  and  C_18
REMARK                            x       y       z     vdW  Elec       q    Type
REMARK                         _______ _______ _______ _____ _____    ______ ____
ROOT
ATOM      4  N   UNL     1      -5.556 -12.255  16.266  0.00  0.00    -0.293 NA
ATOM      9  C   UNL     1      -3.728 -10.932  15.683  0.00  0.00    +0.089 C 
ATOM     10  C   UNL     1      -5.576 -11.168  17.264  0.00  0.00    +0.147 C 
ATOM     11  C   UNL     1      -4.467 -10.201  16.804  0.00  0.00    +0.052 C 
ATOM     12  C   UNL     1      -4.160 -12.382  15.838  0.00  0.00    +0.107 C 
ATOM     14  C   UNL     1      -6.085 -13.514  16.779  0.00  0.00    +0.105 C 
ENDROOT
BRANCH  10  13
ATOM      2  O   UNL     1      -7.095  -9.344  16.682  0.00  0.00    -0.336 OA
ATOM      6  N   UNL     1      -7.967 -10.845  18.096  0.00  0.00    -0.190 NA
ATOM      7  N   UNL     1      -8.397  -8.908  16.957  0.00  0.00    -0.056 NA
ATOM     13  C   UNL     1      -6.923 -10.490  17.391  0.00  0.00    +0.245 A 
ATOM     16  C   UNL     1      -8.847  -9.845  17.797  0.00  0.00    +0.202 A 
BRANCH  16  18
ATOM      1 CL   UNL     1     -14.321  -9.715  20.111  0.00  0.00    -0.084 Cl
ATOM     18  C   UNL     1     -10.167  -9.811  18.356  0.00  0.00    +0.023 A 
ATOM     20  C   UNL     1     -10.386 -10.270  19.654  0.00  0.00    +0.013 A 
ATOM     21  C   UNL     1     -11.233  -9.324  17.599  0.00  0.00    +0.013 A 
ATOM     24  C   UNL     1     -11.671 -10.240  20.198  0.00  0.00    +0.021 A 
ATOM     25  C   UNL     1     -12.517  -9.294  18.142  0.00  0.00    +0.021 A 
ATOM     27  C   UNL     1     -12.736  -9.752  19.441  0.00  0.00    +0.041 A 
ENDBRANCH  16  18
ENDBRANCH  10  13
BRANCH   9   5
ATOM      3  O   UNL     1      -2.264 -11.273  13.236  0.00  0.00    -0.269 OA
ATOM      5  N   UNL     1      -4.086 -10.413  14.384  0.00  0.00    -0.306 N 
ATOM     15  C   UNL     1      -3.312 -10.632  13.255  0.00  0.00    +0.263 C 
ATOM     28  H   UNL     1      -4.911  -9.824  14.310  0.00  0.00    +0.149 HD
BRANCH  15  17
ATOM      8  N   UNL     1      -5.107  -9.644  11.998  0.00  0.00    -0.250 NA
ATOM     17  C   UNL     1      -3.804 -10.010  12.000  0.00  0.00    +0.125 A 
ATOM     19  C   UNL     1      -2.949  -9.836  10.924  0.00  0.00    +0.033 A 
ATOM     22  C   UNL     1      -3.463  -9.251   9.772  0.00  0.00    +0.004 A 
ATOM     23  C   UNL     1      -5.570  -9.078  10.861  0.00  0.00    +0.111 A 
ATOM     26  C   UNL     1      -4.796  -8.862   9.732  0.00  0.00    +0.020 A 
ENDBRANCH  15  17
ENDBRANCH   9   5
TORSDOF 4
ENDMDL
MODEL 5
REMARK VINA RESULT:      -6.9     27.193     29.308
REMARK  Name = 25338410
REMARK  5 active torsions:
REMARK  status: ('A' for Active; 'I' for Inactive)
REMARK    1  A    between atoms: N_4  and  C_14
REMARK    2  A    between atoms: N_5  and  C_9
REMARK    3  A    between atoms: C_10  and  C_13
REMARK    4  A    between atoms: C_15  and  C_17
REMARK    5  A    between atoms: C_16  and  C_18
REMARK                            x       y       z     vdW  Elec       q    Type
REMARK                         _______ _______ _______ _____ _____    ______ ____
ROOT
ATOM      4  N   UNL     1      -4.430 -12.678  15.821  0.00  0.00    -0.293 NA
ATOM      9  C   UNL     1      -2.782 -11.272  14.962  0.00  0.00    +0.089 C 
ATOM     10  C   UNL     1      -4.200 -11.703  16.905  0.00  0.00    +0.147 C 
ATOM     11  C   UNL     1      -3.224 -10.675  16.299  0.00  0.00    +0.052 C 
ATOM     12  C   UNL     1      -3.179 -12.737  15.061  0.00  0.00    +0.107 C 
ATOM     14  C   UNL     1      -4.834 -13.992  16.308  0.00  0.00    +0.105 C 
ENDROOT
BRANCH  10  13
ATOM      2  O   UNL     1      -5.559 -10.893  18.767  0.00  0.00    -0.336 OA
ATOM      6  N   UNL     1      -6.519 -10.644  16.759  0.00  0.00    -0.190 NA
ATOM      7  N   UNL     1      -6.803 -10.295  19.002  0.00  0.00    -0.056 NA
ATOM     13  C   UNL     1      -5.470 -11.064  17.422  0.00  0.00    +0.245 A 
ATOM     16  C   UNL     1      -7.309 -10.180  17.771  0.00  0.00    +0.202 A 
BRANCH  16  18
ATOM      1 CL   UNL     1     -12.660  -7.815  16.712  0.00  0.00    -0.084 Cl
ATOM     18  C   UNL     1      -8.599  -9.608  17.516  0.00  0.00    +0.023 A 
ATOM     20  C   UNL     1      -9.697  -9.998  18.282  0.00  0.00    +0.013 A 
ATOM     21  C   UNL     1      -8.757  -8.664  16.501  0.00  0.00    +0.013 A 
ATOM     24  C   UNL     1     -10.954  -9.443  18.034  0.00  0.00    +0.021 A 
ATOM     25  C   UNL     1     -10.012  -8.110  16.253  0.00  0.00    +0.021 A 
ATOM     27  C   UNL     1     -11.110  -8.499  17.019  0.00  0.00    +0.041 A 
ENDBRANCH  16  18
ENDBRANCH  10  13
BRANCH   9   5
ATOM      3  O   UNL     1      -1.873 -11.207  12.239  0.00  0.00    -0.269 OA
ATOM      5  N   UNL     1      -3.435 -10.623  13.850  0.00  0.00    -0.306 N 
ATOM     15  C   UNL     1      -2.917 -10.648  12.565  0.00  0.00    +0.263 C 
ATOM     28  H   UNL     1      -4.281 -10.089  14.031  0.00  0.00    +0.149 HD
BRANCH  15  17
ATOM      8  N   UNL     1      -4.981  -9.641  11.857  0.00  0.00    -0.250 NA
ATOM     17  C   UNL     1      -3.696  -9.912  11.536  0.00  0.00    +0.125 A 
ATOM     19  C   UNL     1      -3.102  -9.549  10.338  0.00  0.00    +0.033 A 
ATOM     22  C   UNL     1      -3.878  -8.864   9.409  0.00  0.00    +0.004 A 
ATOM     23  C   UNL     1      -5.704  -8.974  10.930  0.00  0.00    +0.111 A 
ATOM     26  C   UNL     1      -5.204  -8.567   9.703  0.00  0.00    +0.020 A 
ENDBRANCH  15  17
ENDBRANCH   9   5
TORSDOF 4
ENDMDL
MODEL 6
REMARK VINA RESULT:      -6.8      3.889      6.044
REMARK  Name = 25338410
REMARK  5 active torsions:
REMARK  status: ('A' for Active; 'I' for Inactive)
REMARK    1  A    between atoms: N_4  and  C_14
REMARK    2  A    between atoms: N_5  and  C_9
REMARK    3  A    between atoms: C_10  and  C_13
REMARK    4  A    between atoms: C_15  and  C_17
REMARK    5  A    between atoms: C_16  and  C_18
REMARK                            x       y       z     vdW  Elec       q    Type
REMARK                         _______ _______ _______ _____ _____    ______ ____
ROOT
ATOM      4  N   UNL     1      14.226   8.489  20.102  0.00  0.00    -0.293 NA
ATOM      9  C   UNL     1      13.352   8.826  17.967  0.00  0.00    +0.089 C 
ATOM     10  C   UNL     1      14.424   7.189  19.431  0.00  0.00    +0.147 C 
ATOM     11  C   UNL     1      13.991   7.437  17.973  0.00  0.00    +0.052 C 
ATOM     12  C   UNL     1      13.080   9.114  19.436  0.00  0.00    +0.107 C 
ATOM     14  C   UNL     1      14.020   8.369  21.540  0.00  0.00    +0.105 C 
ENDROOT
BRANCH  10  13
ATOM      2  O   UNL     1      16.279   5.895  18.508  0.00  0.00    -0.336 OA
ATOM      6  N   UNL     1      16.721   6.840  20.489  0.00  0.00    -0.190 NA
ATOM      7  N   UNL     1      17.593   5.532  18.828  0.00  0.00    -0.056 NA
ATOM     13  C   UNL     1      15.839   6.665  19.537  0.00  0.00    +0.245 A 
ATOM     16  C   UNL     1      17.781   6.128  20.009  0.00  0.00    +0.202 A 
BRANCH  16  18
ATOM      1 CL   UNL     1      22.896   5.736  23.014  0.00  0.00    -0.084 Cl
ATOM     18  C   UNL     1      19.014   6.031  20.735  0.00  0.00    +0.023 A 
ATOM     20  C   UNL     1      19.231   6.840  21.850  0.00  0.00    +0.013 A 
ATOM     21  C   UNL     1      19.998   5.132  20.324  0.00  0.00    +0.013 A 
ATOM     24  C   UNL     1      20.431   6.749  22.556  0.00  0.00    +0.021 A 
ATOM     25  C   UNL     1      21.198   5.041  21.028  0.00  0.00    +0.021 A 
ATOM     27  C   UNL     1      21.415   5.849  22.144  0.00  0.00    +0.041 A 
ENDBRANCH  16  18
ENDBRANCH  10  13
BRANCH   9   5
ATOM      3  O   UNL     1      13.569   9.519  15.189  0.00  0.00    -0.269 OA
ATOM      5  N   UNL     1      14.233   9.813  17.391  0.00  0.00    -0.306 N 
ATOM     15  C   UNL     1      14.266  10.079  16.031  0.00  0.00    +0.263 C 
ATOM     28  H   UNL     1      14.887  10.292  18.004  0.00  0.00    +0.149 HD
BRANCH  15  17
ATOM      8  N   UNL     1      15.676  11.954  16.556  0.00  0.00    -0.250 NA
ATOM     17  C   UNL     1      15.246  11.106  15.594  0.00  0.00    +0.125 A 
ATOM     19  C   UNL     1      15.665  11.155  14.274  0.00  0.00    +0.033 A 
ATOM     22  C   UNL     1      16.582  12.138  13.918  0.00  0.00    +0.004 A 
ATOM     23  C   UNL     1      16.566  12.896  16.173  0.00  0.00    +0.111 A 
ATOM     26  C   UNL     1      17.046  13.028  14.879  0.00  0.00    +0.020 A 
ENDBRANCH  15  17
ENDBRANCH   9   5
TORSDOF 4
ENDMDL
MODEL 7
REMARK VINA RESULT:      -6.6     27.453     29.576
REMARK  Name = 25338410
REMARK  5 active torsions:
REMARK  status: ('A' for Active; 'I' for Inactive)
REMARK    1  A    between atoms: N_4  and  C_14
REMARK    2  A    between atoms: N_5  and  C_9
REMARK    3  A    between atoms: C_10  and  C_13
REMARK    4  A    between atoms: C_15  and  C_17
REMARK    5  A    between atoms: C_16  and  C_18
REMARK                            x       y       z     vdW  Elec       q    Type
REMARK                         _______ _______ _______ _____ _____    ______ ____
ROOT
ATOM      4  N   UNL     1      -5.830 -12.196  16.420  0.00  0.00    -0.293 NA
ATOM      9  C   UNL     1      -3.954 -10.902  15.932  0.00  0.00    +0.089 C 
ATOM     10  C   UNL     1      -5.935 -11.057  17.354  0.00  0.00    +0.147 C 
ATOM     11  C   UNL     1      -4.788 -10.114  16.943  0.00  0.00    +0.052 C 
ATOM     12  C   UNL     1      -4.402 -12.343  16.124  0.00  0.00    +0.107 C 
ATOM     14  C   UNL     1      -6.405 -13.427  16.949  0.00  0.00    +0.105 C 
ENDROOT
BRANCH  10  13
ATOM      2  O   UNL     1      -8.125 -10.652  18.359  0.00  0.00    -0.336 OA
ATOM      6  N   UNL     1      -7.781  -9.549  16.440  0.00  0.00    -0.190 NA
ATOM      7  N   UNL     1      -9.293  -9.919  18.117  0.00  0.00    -0.056 NA
ATOM     13  C   UNL     1      -7.286 -10.376  17.326  0.00  0.00    +0.245 A 
ATOM     16  C   UNL     1      -9.014  -9.295  16.968  0.00  0.00    +0.202 A 
BRANCH  16  18
ATOM      1 CL   UNL     1     -12.855  -5.634  14.288  0.00  0.00    -0.084 Cl
ATOM     18  C   UNL     1      -9.942  -8.412  16.323  0.00  0.00    +0.023 A 
ATOM     20  C   UNL     1     -10.441  -8.729  15.060  0.00  0.00    +0.013 A 
ATOM     21  C   UNL     1     -10.343  -7.236  16.956  0.00  0.00    +0.013 A 
ATOM     24  C   UNL     1     -11.343  -7.870  14.431  0.00  0.00    +0.021 A 
ATOM     25  C   UNL     1     -11.244  -6.377  16.327  0.00  0.00    +0.021 A 
ATOM     27  C   UNL     1     -11.744  -6.694  15.064  0.00  0.00    +0.041 A 
ENDBRANCH  16  18
ENDBRANCH  10  13
BRANCH   9   5
ATOM      3  O   UNL     1      -2.206 -11.229  13.678  0.00  0.00    -0.269 OA
ATOM      5  N   UNL     1      -4.195 -10.452  14.581  0.00  0.00    -0.306 N 
ATOM     15  C   UNL     1      -3.286 -10.659  13.555  0.00  0.00    +0.263 C 
ATOM     28  H   UNL     1      -5.041  -9.922  14.392  0.00  0.00    +0.149 HD
BRANCH  15  17
ATOM      8  N   UNL     1      -2.659  -9.949  11.345  0.00  0.00    -0.250 NA
ATOM     17  C   UNL     1      -3.671 -10.114  12.228  0.00  0.00    +0.125 A 
ATOM     19  C   UNL     1      -4.995  -9.805  11.956  0.00  0.00    +0.033 A 
ATOM     22  C   UNL     1      -5.299  -9.295  10.699  0.00  0.00    +0.004 A 
ATOM     23  C   UNL     1      -2.994  -9.451  10.134  0.00  0.00    +0.111 A 
ATOM     26  C   UNL     1      -4.286  -9.112   9.765  0.00  0.00    +0.020 A 
ENDBRANCH  15  17
ENDBRANCH   9   5
TORSDOF 4
ENDMDL
MODEL 8
REMARK VINA RESULT:      -6.5     27.916     31.146
REMARK  Name = 25338410
REMARK  5 active torsions:
REMARK  status: ('A' for Active; 'I' for Inactive)
REMARK    1  A    between atoms: N_4  and  C_14
REMARK    2  A    between atoms: N_5  and  C_9
REMARK    3  A    between atoms: C_10  and  C_13
REMARK    4  A    between atoms: C_15  and  C_17
REMARK    5  A    between atoms: C_16  and  C_18
REMARK                            x       y       z     vdW  Elec       q    Type
REMARK                         _______ _______ _______ _____ _____    ______ ____
ROOT
ATOM      4  N   UNL     1     -11.895 -10.401  16.573  0.00  0.00    -0.293 NA
ATOM      9  C   UNL     1     -10.558 -10.484  18.481  0.00  0.00    +0.089 C 
ATOM     10  C   UNL     1     -12.227  -9.154  17.291  0.00  0.00    +0.147 C 
ATOM     11  C   UNL     1     -11.244  -9.117  18.477  0.00  0.00    +0.052 C 
ATOM     12  C   UNL     1     -11.447 -11.347  17.599  0.00  0.00    +0.107 C 
ATOM     14  C   UNL     1     -13.009 -10.930  15.795  0.00  0.00    +0.105 C 
ENDROOT
BRANCH  10  13
ATOM      2  O   UNL     1     -11.021  -7.160  16.558  0.00  0.00    -0.336 OA
ATOM      6  N   UNL     1     -12.997  -7.455  15.548  0.00  0.00    -0.190 NA
ATOM      7  N   UNL     1     -11.167  -6.088  15.669  0.00  0.00    -0.056 NA
ATOM     13  C   UNL     1     -12.141  -7.917  16.423  0.00  0.00    +0.245 A 
ATOM     16  C   UNL     1     -12.357  -6.332  15.111  0.00  0.00    +0.202 A 
BRANCH  16  18
ATOM      1 CL   UNL     1     -14.746  -2.790  10.978  0.00  0.00    -0.084 Cl
ATOM     18  C   UNL     1     -12.933  -5.476  14.115  0.00  0.00    +0.023 A 
ATOM     20  C   UNL     1     -14.313  -5.467  13.918  0.00  0.00    +0.013 A 
ATOM     21  C   UNL     1     -12.113  -4.654  13.341  0.00  0.00    +0.013 A 
ATOM     24  C   UNL     1     -14.875  -4.636  12.948  0.00  0.00    +0.021 A 
ATOM     25  C   UNL     1     -12.673  -3.824  12.372  0.00  0.00    +0.021 A 
ATOM     27  C   UNL     1     -14.054  -3.815  12.175  0.00  0.00    +0.041 A 
ENDBRANCH  16  18
ENDBRANCH  10  13
BRANCH   9   5
ATOM      3  O   UNL     1      -8.129 -11.085  19.889  0.00  0.00    -0.269 OA
ATOM      5  N   UNL     1      -9.215 -10.405  17.957  0.00  0.00    -0.306 N 
ATOM     15  C   UNL     1      -8.100 -10.718  18.718  0.00  0.00    +0.263 C 
ATOM     28  H   UNL     1      -9.086 -10.058  17.010  0.00  0.00    +0.149 HD
BRANCH  15  17
ATOM      8  N   UNL     1      -6.797  -9.828  16.904  0.00  0.00    -0.250 NA
ATOM     17  C   UNL     1      -6.787 -10.562  18.040  0.00  0.00    +0.125 A 
ATOM     19  C   UNL     1      -5.651 -11.149  18.574  0.00  0.00    +0.033 A 
ATOM     22  C   UNL     1      -4.449 -10.973  17.897  0.00  0.00    +0.004 A 
ATOM     23  C   UNL     1      -5.610  -9.679  16.274  0.00  0.00    +0.111 A 
ATOM     26  C   UNL     1      -4.420 -10.226  16.725  0.00  0.00    +0.020 A 
ENDBRANCH  15  17
ENDBRANCH   9   5
TORSDOF 4
ENDMDL
MODEL 9
REMARK VINA RESULT:      -6.5     26.958     29.088
REMARK  Name = 25338410
REMARK  5 active torsions:
REMARK  status: ('A' for Active; 'I' for Inactive)
REMARK    1  A    between atoms: N_4  and  C_14
REMARK    2  A    between atoms: N_5  and  C_9
REMARK    3  A    between atoms: C_10  and  C_13
REMARK    4  A    between atoms: C_15  and  C_17
REMARK    5  A    between atoms: C_16  and  C_18
REMARK                            x       y       z     vdW  Elec       q    Type
REMARK                         _______ _______ _______ _____ _____    ______ ____
ROOT
ATOM      4  N   UNL     1      -2.995 -12.742  14.029  0.00  0.00    -0.293 NA
ATOM      9  C   UNL     1      -2.228 -11.032  12.643  0.00  0.00    +0.089 C 
ATOM     10  C   UNL     1      -2.608 -11.673  14.970  0.00  0.00    +0.147 C 
ATOM     11  C   UNL     1      -2.241 -10.478  14.068  0.00  0.00    +0.052 C 
ATOM     12  C   UNL     1      -2.174 -12.540  12.832  0.00  0.00    +0.107 C 
ATOM     14  C   UNL     1      -2.832 -14.081  14.582  0.00  0.00    +0.105 C 
ENDROOT
BRANCH  10  13
ATOM      2  O   UNL     1      -3.320 -11.341  17.284  0.00  0.00    -0.336 OA
ATOM      6  N   UNL     1      -4.944 -11.029  15.774  0.00  0.00    -0.190 NA
ATOM      7  N   UNL     1      -4.468 -11.003  18.011  0.00  0.00    -0.056 NA
ATOM     13  C   UNL     1      -3.686 -11.333  15.975  0.00  0.00    +0.245 A 
ATOM     16  C   UNL     1      -5.382 -10.834  17.051  0.00  0.00    +0.202 A 
BRANCH  16  18
ATOM      1 CL   UNL     1     -11.010  -9.322  18.229  0.00  0.00    -0.084 Cl
ATOM     18  C   UNL     1      -6.741 -10.471  17.334  0.00  0.00    +0.023 A 
ATOM     20  C   UNL     1      -7.294  -9.334  16.747  0.00  0.00    +0.013 A 
ATOM     21  C   UNL     1      -7.507 -11.252  18.199  0.00  0.00    +0.013 A 
ATOM     24  C   UNL     1      -8.615  -8.978  17.023  0.00  0.00    +0.021 A 
ATOM     25  C   UNL     1      -8.826 -10.897  18.476  0.00  0.00    +0.021 A 
ATOM     27  C   UNL     1      -9.381  -9.760  17.888  0.00  0.00    +0.041 A 
ENDBRANCH  16  18
ENDBRANCH  10  13
BRANCH   9   5
ATOM      3  O   UNL     1      -2.336  -9.214  10.423  0.00  0.00    -0.269 OA
ATOM      5  N   UNL     1      -3.406 -10.635  11.910  0.00  0.00    -0.306 N 
ATOM     15  C   UNL     1      -3.357  -9.748  10.846  0.00  0.00    +0.263 C 
ATOM     28  H   UNL     1      -4.309 -10.985  12.220  0.00  0.00    +0.149 HD
BRANCH  15  17
ATOM      8  N   UNL     1      -5.686  -9.191  11.064  0.00  0.00    -0.250 NA
ATOM     17  C   UNL     1      -4.661  -9.422  10.212  0.00  0.00    +0.125 A 
ATOM     19  C   UNL     1      -4.773  -9.371   8.832  0.00  0.00    +0.033 A 
ATOM     22  C   UNL     1      -6.017  -9.065   8.291  0.00  0.00    +0.004 A 
ATOM     23  C   UNL     1      -6.879  -8.896  10.501  0.00  0.00    +0.111 A 
ATOM     26  C   UNL     1      -7.095  -8.821   9.135  0.00  0.00    +0.020 A 
ENDBRANCH  15  17
ENDBRANCH   9   5
TORSDOF 4
ENDMDL
MODEL 10
REMARK VINA RESULT:      -6.5     28.382     31.744
REMARK  Name = 25338410
REMARK  5 active torsions:
REMARK  status: ('A' for Active; 'I' for Inactive)
REMARK    1  A    between atoms: N_4  and  C_14
REMARK    2  A    between atoms: N_5  and  C_9
REMARK    3  A    between atoms: C_10  and  C_13
REMARK    4  A    between atoms: C_15  and  C_17
REMARK    5  A    between atoms: C_16  and  C_18
REMARK                            x       y       z     vdW  Elec       q    Type
REMARK                         _______ _______ _______ _____ _____    ______ ____
ROOT
ATOM      4  N   UNL     1     -11.971 -11.638  18.653  0.00  0.00    -0.293 NA
ATOM      9  C   UNL     1     -13.001 -10.822  20.578  0.00  0.00    +0.089 C 
ATOM     10  C   UNL     1     -11.236 -10.392  18.944  0.00  0.00    +0.147 C 
ATOM     11  C   UNL     1     -11.801  -9.917  20.297  0.00  0.00    +0.052 C 
ATOM     12  C   UNL     1     -13.306 -11.462  19.232  0.00  0.00    +0.107 C 
ATOM     14  C   UNL     1     -12.032 -11.950  17.229  0.00  0.00    +0.105 C 
ENDROOT
BRANCH  10  13
ATOM      2  O   UNL     1      -9.188 -10.941  20.160  0.00  0.00    -0.336 OA
ATOM      6  N   UNL     1      -8.861 -10.415  18.008  0.00  0.00    -0.190 NA
ATOM      7  N   UNL     1      -7.809 -11.039  19.941  0.00  0.00    -0.056 NA
ATOM     13  C   UNL     1      -9.733 -10.570  18.972  0.00  0.00    +0.245 A 
ATOM     16  C   UNL     1      -7.694 -10.715  18.650  0.00  0.00    +0.202 A 
BRANCH  16  18
ATOM      1 CL   UNL     1      -2.454 -10.565  15.845  0.00  0.00    -0.084 Cl
ATOM     18  C   UNL     1      -6.431 -10.680  17.971  0.00  0.00    +0.023 A 
ATOM     20  C   UNL     1      -5.330 -11.340  18.516  0.00  0.00    +0.013 A 
ATOM     21  C   UNL     1      -6.302  -9.984  16.770  0.00  0.00    +0.013 A 
ATOM     24  C   UNL     1      -4.100 -11.305  17.859  0.00  0.00    +0.021 A 
ATOM     25  C   UNL     1      -5.073  -9.948  16.112  0.00  0.00    +0.021 A 
ATOM     27  C   UNL     1      -3.972 -10.609  16.657  0.00  0.00    +0.041 A 
ENDBRANCH  16  18
ENDBRANCH  10  13
BRANCH   9   5
ATOM      3  O   UNL     1     -14.864 -12.134  22.325  0.00  0.00    -0.269 OA
ATOM      5  N   UNL     1     -12.692 -11.818  21.576  0.00  0.00    -0.306 N 
ATOM     15  C   UNL     1     -13.665 -12.397  22.375  0.00  0.00    +0.263 C 
ATOM     28  H   UNL     1     -11.718 -12.063  21.728  0.00  0.00    +0.149 HD
BRANCH  15  17
ATOM      8  N   UNL     1     -14.009 -13.620  24.416  0.00  0.00    -0.250 NA
ATOM     17  C   UNL     1     -13.182 -13.387  23.372  0.00  0.00    +0.125 A 
ATOM     19  C   UNL     1     -11.954 -14.007  23.202  0.00  0.00    +0.033 A 
ATOM     22  C   UNL     1     -11.549 -14.922  24.167  0.00  0.00    +0.004 A 
ATOM     23  C   UNL     1     -13.582 -14.517  25.332  0.00  0.00    +0.111 A 
ATOM     26  C   UNL     1     -12.372 -15.188  25.255  0.00  0.00    +0.020 A 
ENDBRANCH  15  17
ENDBRANCH   9   5
TORSDOF 4
ENDMDL
