MODEL 1
REMARK VINA RESULT:      -7.2      0.000      0.000
REMARK  Name = 11883035
REMARK  9 active torsions:
REMARK  status: ('A' for Active; 'I' for Inactive)
REMARK    1  A    between atoms: O_3  and  C_16
REMARK    2  A    between atoms: O_4  and  C_21
REMARK    3  A    between atoms: O_5  and  C_25
REMARK    4  A    between atoms: C_11  and  C_19
REMARK    5  A    between atoms: C_13  and  C_21
REMARK    6  A    between atoms: C_13  and  C_22
REMARK    7  A    between atoms: C_14  and  C_24
REMARK    8  A    between atoms: C_24  and  C_25
REMARK    9  A    between atoms: C_27  and  C_28
REMARK                            x       y       z     vdW  Elec       q    Type
REMARK                         _______ _______ _______ _____ _____    ______ ____
ROOT
ATOM      2  S   UNL     1      17.582   5.782  19.409  0.00  0.00    -0.057 S 
ATOM      7  O   UNL     1      21.227   7.795  21.490  0.00  0.00    -0.270 OA
ATOM      8  N   UNL     1      18.357   7.837  20.776  0.00  0.00    -0.229 NA
ATOM      9  N   UNL     1      20.029   6.179  20.261  0.00  0.00    -0.261 N 
ATOM     11  C   UNL     1      14.846   9.345  20.257  0.00  0.00    -0.019 C 
ATOM     12  C   UNL     1      14.151   7.912  20.216  0.00  0.00    +0.011 C 
ATOM     13  C   UNL     1      12.609   7.874  19.889  0.00  0.00    +0.021 C 
ATOM     14  C   UNL     1      16.244   9.193  21.016  0.00  0.00    +0.055 C 
ATOM     15  C   UNL     1      13.957  10.327  21.061  0.00  0.00    +0.010 C 
ATOM     16  C   UNL     1      11.877   8.947  20.745  0.00  0.00    +0.123 C 
ATOM     17  C   UNL     1      14.993   6.894  19.391  0.00  0.00    +0.049 C 
ATOM     18  C   UNL     1      12.498  10.335  20.627  0.00  0.00    +0.032 C 
ATOM     19  C   UNL     1      15.089   9.935  18.846  0.00  0.00    +0.012 C 
ATOM     20  C   UNL     1      17.010   7.999  20.509  0.00  0.00    +0.058 A 
ATOM     22  C   UNL     1      12.038   6.487  20.300  0.00  0.00    +0.016 C 
ATOM     23  C   UNL     1      16.426   6.970  19.798  0.00  0.00    +0.015 A 
ATOM     26  C   UNL     1      18.766   6.709  20.238  0.00  0.00    +0.165 A 
ATOM     27  C   UNL     1      21.164   6.738  20.872  0.00  0.00    +0.250 C 
ATOM     35  H   UNL     1      20.094   5.270  19.814  0.00  0.00    +0.157 HD
ENDROOT
BRANCH  27  28
ATOM      1 CL   UNL     1      23.524   2.137  20.810  0.00  0.00    -0.062 Cl
ATOM     10  N   UNL     1      24.717   4.427  20.573  0.00  0.00    -0.244 NA
ATOM     28  C   UNL     1      22.407   5.928  20.768  0.00  0.00    +0.041 A 
ATOM     29  C   UNL     1      22.318   4.560  20.838  0.00  0.00    +0.053 A 
ATOM     30  C   UNL     1      23.609   6.575  20.603  0.00  0.00    +0.033 A 
ATOM     31  C   UNL     1      23.504   3.851  20.735  0.00  0.00    +0.130 A 
ATOM     32  C   UNL     1      24.738   5.777  20.511  0.00  0.00    +0.113 A 
ENDBRANCH  27  28
BRANCH  16   3
ATOM      3  O   UNL     1      10.500   9.028  20.379  0.00  0.00    -0.391 OA
ATOM     33  H   UNL     1      10.236   9.963  20.404  0.00  0.00    +0.210 HD
ENDBRANCH  16   3
BRANCH  13  21
ATOM     21  C   UNL     1      12.268   8.037  18.391  0.00  0.00    +0.165 C 
BRANCH  21   4
ATOM      4  O   UNL     1      11.959   6.760  17.878  0.00  0.00    -0.394 OA
ATOM     34  H   UNL     1      11.302   6.349  18.465  0.00  0.00    +0.209 HD
ENDBRANCH  21   4
ENDBRANCH  13  21
BRANCH  14  24
ATOM     24  C   UNL     1      17.111  10.459  21.016  0.00  0.00    +0.130 C 
BRANCH  24  25
ATOM      6  O   UNL     1      16.844  11.752  23.064  0.00  0.00    -0.251 OA
ATOM     25  C   UNL     1      17.434  10.904  22.413  0.00  0.00    +0.305 C 
BRANCH  25   5
ATOM      5  O   UNL     1      18.508  10.210  22.872  0.00  0.00    -0.481 OA
ATOM     36  H   UNL     1      19.312  10.385  22.337  0.00  0.00    +0.295 HD
ENDBRANCH  25   5
ENDBRANCH  24  25
ENDBRANCH  14  24
TORSDOF 7
ENDMDL
MODEL 2
REMARK VINA RESULT:      -7.0      6.573      8.964
REMARK  Name = 11883035
REMARK  9 active torsions:
REMARK  status: ('A' for Active; 'I' for Inactive)
REMARK    1  A    between atoms: O_3  and  C_16
REMARK    2  A    between atoms: O_4  and  C_21
REMARK    3  A    between atoms: O_5  and  C_25
REMARK    4  A    between atoms: C_11  and  C_19
REMARK    5  A    between atoms: C_13  and  C_21
REMARK    6  A    between atoms: C_13  and  C_22
REMARK    7  A    between atoms: C_14  and  C_24
REMARK    8  A    between atoms: C_24  and  C_25
REMARK    9  A    between atoms: C_27  and  C_28
REMARK                            x       y       z     vdW  Elec       q    Type
REMARK                         _______ _______ _______ _____ _____    ______ ____
ROOT
ATOM      2  S   UNL     1      15.793  12.104  17.465  0.00  0.00    -0.057 S 
ATOM      7  O   UNL     1      14.258  11.555  13.105  0.00  0.00    -0.270 OA
ATOM      8  N   UNL     1      13.982  10.986  15.994  0.00  0.00    -0.229 NA
ATOM      9  N   UNL     1      15.636  12.321  14.857  0.00  0.00    -0.261 N 
ATOM     11  C   UNL     1      12.718   9.174  19.155  0.00  0.00    -0.019 C 
ATOM     12  C   UNL     1      13.157  10.369  20.111  0.00  0.00    +0.011 C 
ATOM     13  C   UNL     1      12.987  10.143  21.662  0.00  0.00    +0.021 C 
ATOM     14  C   UNL     1      12.558   9.760  17.676  0.00  0.00    +0.055 C 
ATOM     15  C   UNL     1      11.343   8.624  19.614  0.00  0.00    +0.010 C 
ATOM     16  C   UNL     1      11.577   9.549  21.942  0.00  0.00    +0.123 C 
ATOM     17  C   UNL     1      14.550  10.937  19.709  0.00  0.00    +0.049 C 
ATOM     18  C   UNL     1      11.269   8.314  21.102  0.00  0.00    +0.032 C 
ATOM     19  C   UNL     1      13.739   8.010  19.139  0.00  0.00    +0.012 C 
ATOM     20  C   UNL     1      13.733  10.626  17.306  0.00  0.00    +0.058 A 
ATOM     22  C   UNL     1      13.060  11.519  22.385  0.00  0.00    +0.016 C 
ATOM     23  C   UNL     1      14.603  11.160  18.235  0.00  0.00    +0.015 A 
ATOM     26  C   UNL     1      15.047  11.757  15.958  0.00  0.00    +0.165 A 
ATOM     27  C   UNL     1      15.218  12.192  13.522  0.00  0.00    +0.250 C 
ATOM     35  H   UNL     1      16.426  12.917  15.083  0.00  0.00    +0.157 HD
ENDROOT
BRANCH  27  28
ATOM      1 CL   UNL     1      18.247  12.238   9.332  0.00  0.00    -0.062 Cl
ATOM     10  N   UNL     1      17.534  14.336  10.677  0.00  0.00    -0.244 NA
ATOM     28  C   UNL     1      16.029  12.942  12.526  0.00  0.00    +0.041 A 
ATOM     29  C   UNL     1      16.664  12.247  11.526  0.00  0.00    +0.053 A 
ATOM     30  C   UNL     1      16.118  14.310  12.636  0.00  0.00    +0.033 A 
ATOM     31  C   UNL     1      17.407  12.991  10.624  0.00  0.00    +0.130 A 
ATOM     32  C   UNL     1      16.885  14.962  11.685  0.00  0.00    +0.113 A 
ENDBRANCH  27  28
BRANCH  16   3
ATOM      3  O   UNL     1      11.438   9.212  23.322  0.00  0.00    -0.391 OA
ATOM     33  H   UNL     1      10.719   8.564  23.403  0.00  0.00    +0.210 HD
ENDBRANCH  16   3
BRANCH  13  21
ATOM     21  C   UNL     1      14.089   9.275  22.308  0.00  0.00    +0.165 C 
BRANCH  21   4
ATOM      4  O   UNL     1      14.550   9.950  23.458  0.00  0.00    -0.394 OA
ATOM     34  H   UNL     1      15.169   9.363  23.924  0.00  0.00    +0.209 HD
ENDBRANCH  21   4
ENDBRANCH  13  21
BRANCH  14  24
ATOM     24  C   UNL     1      12.277   8.703  16.599  0.00  0.00    +0.130 C 
BRANCH  24  25
ATOM      6  O   UNL     1      10.705   9.835  15.118  0.00  0.00    -0.251 OA
ATOM     25  C   UNL     1      10.960   8.949  15.920  0.00  0.00    +0.305 C 
BRANCH  25   5
ATOM      5  O   UNL     1      10.060   8.019  16.330  0.00  0.00    -0.481 OA
ATOM     36  H   UNL     1       9.138   8.288  16.127  0.00  0.00    +0.295 HD
ENDBRANCH  25   5
ENDBRANCH  24  25
ENDBRANCH  14  24
TORSDOF 7
ENDMDL
MODEL 3
REMARK VINA RESULT:      -6.8      6.645      8.392
REMARK  Name = 11883035
REMARK  9 active torsions:
REMARK  status: ('A' for Active; 'I' for Inactive)
REMARK    1  A    between atoms: O_3  and  C_16
REMARK    2  A    between atoms: O_4  and  C_21
REMARK    3  A    between atoms: O_5  and  C_25
REMARK    4  A    between atoms: C_11  and  C_19
REMARK    5  A    between atoms: C_13  and  C_21
REMARK    6  A    between atoms: C_13  and  C_22
REMARK    7  A    between atoms: C_14  and  C_24
REMARK    8  A    between atoms: C_24  and  C_25
REMARK    9  A    between atoms: C_27  and  C_28
REMARK                            x       y       z     vdW  Elec       q    Type
REMARK                         _______ _______ _______ _____ _____    ______ ____
ROOT
ATOM      2  S   UNL     1      14.681  13.130  17.929  0.00  0.00    -0.057 S 
ATOM      7  O   UNL     1      15.130  10.091  14.431  0.00  0.00    -0.270 OA
ATOM      8  N   UNL     1      14.141  10.724  17.146  0.00  0.00    -0.229 NA
ATOM      9  N   UNL     1      15.358  12.122  15.605  0.00  0.00    -0.261 N 
ATOM     11  C   UNL     1      12.753  10.026  20.676  0.00  0.00    -0.019 C 
ATOM     12  C   UNL     1      12.288  11.536  20.877  0.00  0.00    +0.011 C 
ATOM     13  C   UNL     1      11.705  11.922  22.290  0.00  0.00    +0.021 C 
ATOM     14  C   UNL     1      12.883   9.755  19.106  0.00  0.00    +0.055 C 
ATOM     15  C   UNL     1      11.673   9.072  21.249  0.00  0.00    +0.010 C 
ATOM     16  C   UNL     1      10.677  10.842  22.733  0.00  0.00    +0.123 C 
ATOM     17  C   UNL     1      13.356  12.536  20.344  0.00  0.00    +0.049 C 
ATOM     18  C   UNL     1      11.228   9.422  22.661  0.00  0.00    +0.032 C 
ATOM     19  C   UNL     1      14.105   9.716  21.364  0.00  0.00    +0.012 C 
ATOM     20  C   UNL     1      13.631  10.870  18.423  0.00  0.00    +0.058 A 
ATOM     22  C   UNL     1      10.937  13.269  22.170  0.00  0.00    +0.016 C 
ATOM     23  C   UNL     1      13.816  12.116  18.988  0.00  0.00    +0.015 A 
ATOM     26  C   UNL     1      14.722  11.848  16.787  0.00  0.00    +0.165 A 
ATOM     27  C   UNL     1      15.522  11.248  14.518  0.00  0.00    +0.250 C 
ATOM     35  H   UNL     1      15.691  13.078  15.539  0.00  0.00    +0.157 HD
ENDROOT
BRANCH  27  28
ATOM      1 CL   UNL     1      19.767  13.324  12.418  0.00  0.00    -0.062 Cl
ATOM     10  N   UNL     1      17.544  12.886  11.158  0.00  0.00    -0.244 NA
ATOM     28  C   UNL     1      16.231  11.822  13.342  0.00  0.00    +0.041 A 
ATOM     29  C   UNL     1      17.531  12.240  13.488  0.00  0.00    +0.053 A 
ATOM     30  C   UNL     1      15.563  11.915  12.144  0.00  0.00    +0.033 A 
ATOM     31  C   UNL     1      18.146  12.766  12.363  0.00  0.00    +0.130 A 
ATOM     32  C   UNL     1      16.265  12.456  11.080  0.00  0.00    +0.113 A 
ENDBRANCH  27  28
BRANCH  16   3
ATOM      3  O   UNL     1      10.226  11.093  24.064  0.00  0.00    -0.391 OA
ATOM     33  H   UNL     1       9.744  10.307  24.372  0.00  0.00    +0.210 HD
ENDBRANCH  16   3
BRANCH  13  21
ATOM     21  C   UNL     1      12.772  12.148  23.384  0.00  0.00    +0.165 C 
BRANCH  21   4
ATOM      4  O   UNL     1      12.224  13.018  24.348  0.00  0.00    -0.394 OA
ATOM     34  H   UNL     1      11.747  12.482  25.003  0.00  0.00    +0.209 HD
ENDBRANCH  21   4
ENDBRANCH  13  21
BRANCH  14  24
ATOM     24  C   UNL     1      13.464   8.383  18.741  0.00  0.00    +0.130 C 
BRANCH  24  25
ATOM      6  O   UNL     1      11.685   7.626  17.256  0.00  0.00    -0.251 OA
ATOM     25  C   UNL     1      12.400   7.454  18.232  0.00  0.00    +0.305 C 
BRANCH  25   5
ATOM      5  O   UNL     1      12.337   6.356  19.029  0.00  0.00    -0.481 OA
ATOM     36  H   UNL     1      12.957   5.655  18.735  0.00  0.00    +0.295 HD
ENDBRANCH  25   5
ENDBRANCH  24  25
ENDBRANCH  14  24
TORSDOF 7
ENDMDL
MODEL 4
REMARK VINA RESULT:      -6.6     28.787     31.190
REMARK  Name = 11883035
REMARK  9 active torsions:
REMARK  status: ('A' for Active; 'I' for Inactive)
REMARK    1  A    between atoms: O_3  and  C_16
REMARK    2  A    between atoms: O_4  and  C_21
REMARK    3  A    between atoms: O_5  and  C_25
REMARK    4  A    between atoms: C_11  and  C_19
REMARK    5  A    between atoms: C_13  and  C_21
REMARK    6  A    between atoms: C_13  and  C_22
REMARK    7  A    between atoms: C_14  and  C_24
REMARK    8  A    between atoms: C_24  and  C_25
REMARK    9  A    between atoms: C_27  and  C_28
REMARK                            x       y       z     vdW  Elec       q    Type
REMARK                         _______ _______ _______ _____ _____    ______ ____
ROOT
ATOM      2  S   UNL     1      -7.476 -10.928  12.495  0.00  0.00    -0.057 S 
ATOM      7  O   UNL     1      -3.533 -11.259  10.042  0.00  0.00    -0.270 OA
ATOM      8  N   UNL     1      -4.908 -11.200  12.660  0.00  0.00    -0.229 NA
ATOM      9  N   UNL     1      -5.843 -11.029  10.445  0.00  0.00    -0.261 N 
ATOM     11  C   UNL     1      -5.251 -10.884  16.488  0.00  0.00    -0.019 C 
ATOM     12  C   UNL     1      -6.700 -11.546  16.492  0.00  0.00    +0.011 C 
ATOM     13  C   UNL     1      -7.463 -11.588  17.871  0.00  0.00    +0.021 C 
ATOM     14  C   UNL     1      -4.507 -11.333  15.147  0.00  0.00    +0.055 C 
ATOM     15  C   UNL     1      -4.439 -11.412  17.698  0.00  0.00    +0.010 C 
ATOM     16  C   UNL     1      -6.495 -12.096  18.977  0.00  0.00    +0.123 C 
ATOM     17  C   UNL     1      -7.567 -11.022  15.310  0.00  0.00    +0.049 C 
ATOM     18  C   UNL     1      -5.180 -11.324  19.024  0.00  0.00    +0.032 C 
ATOM     19  C   UNL     1      -5.297  -9.338  16.557  0.00  0.00    +0.012 C 
ATOM     20  C   UNL     1      -5.408 -11.179  13.949  0.00  0.00    +0.058 A 
ATOM     22  C   UNL     1      -8.629 -12.613  17.772  0.00  0.00    +0.016 C 
ATOM     23  C   UNL     1      -6.780 -11.060  14.043  0.00  0.00    +0.015 A 
ATOM     26  C   UNL     1      -5.905 -11.068  11.813  0.00  0.00    +0.165 A 
ATOM     27  C   UNL     1      -4.687 -11.125   9.654  0.00  0.00    +0.250 C 
ATOM     35  H   UNL     1      -6.754 -10.965  10.002  0.00  0.00    +0.157 HD
ENDROOT
BRANCH  27  28
ATOM      1 CL   UNL     1      -6.788  -8.861   5.506  0.00  0.00    -0.062 Cl
ATOM     10  N   UNL     1      -5.340 -11.011   5.456  0.00  0.00    -0.244 NA
ATOM     28  C   UNL     1      -4.917 -11.085   8.184  0.00  0.00    +0.041 A 
ATOM     29  C   UNL     1      -5.675 -10.069   7.657  0.00  0.00    +0.053 A 
ATOM     30  C   UNL     1      -4.361 -12.066   7.398  0.00  0.00    +0.033 A 
ATOM     31  C   UNL     1      -5.859 -10.075   6.284  0.00  0.00    +0.130 A 
ATOM     32  C   UNL     1      -4.603 -11.984   6.037  0.00  0.00    +0.113 A 
ENDBRANCH  27  28
BRANCH  16   3
ATOM      3  O   UNL     1      -7.116 -12.023  20.260  0.00  0.00    -0.391 OA
ATOM     33  H   UNL     1      -7.566 -12.869  20.424  0.00  0.00    +0.210 HD
ENDBRANCH  16   3
BRANCH  13  21
ATOM     21  C   UNL     1      -8.118 -10.251  18.282  0.00  0.00    +0.165 C 
BRANCH  21   4
ATOM      4  O   UNL     1      -9.142 -10.540  19.208  0.00  0.00    -0.394 OA
ATOM     34  H   UNL     1      -8.939 -10.075  20.037  0.00  0.00    +0.209 HD
ENDBRANCH  21   4
ENDBRANCH  13  21
BRANCH  14  24
ATOM     24  C   UNL     1      -3.146 -10.662  14.916  0.00  0.00    +0.130 C 
BRANCH  24  25
ATOM      6  O   UNL     1      -1.861 -12.666  14.394  0.00  0.00    -0.251 OA
ATOM     25  C   UNL     1      -2.020 -11.646  15.047  0.00  0.00    +0.305 C 
BRANCH  25   5
ATOM      5  O   UNL     1      -1.171 -11.235  16.024  0.00  0.00    -0.481 OA
ATOM     36  H   UNL     1      -0.495 -11.915  16.232  0.00  0.00    +0.295 HD
ENDBRANCH  25   5
ENDBRANCH  24  25
ENDBRANCH  14  24
TORSDOF 7
ENDMDL
MODEL 5
REMARK VINA RESULT:      -6.3     29.795     33.719
REMARK  Name = 11883035
REMARK  9 active torsions:
REMARK  status: ('A' for Active; 'I' for Inactive)
REMARK    1  A    between atoms: O_3  and  C_16
REMARK    2  A    between atoms: O_4  and  C_21
REMARK    3  A    between atoms: O_5  and  C_25
REMARK    4  A    between atoms: C_11  and  C_19
REMARK    5  A    between atoms: C_13  and  C_21
REMARK    6  A    between atoms: C_13  and  C_22
REMARK    7  A    between atoms: C_14  and  C_24
REMARK    8  A    between atoms: C_24  and  C_25
REMARK    9  A    between atoms: C_27  and  C_28
REMARK                            x       y       z     vdW  Elec       q    Type
REMARK                         _______ _______ _______ _____ _____    ______ ____
ROOT
ATOM      2  S   UNL     1      -9.419  -9.067  14.363  0.00  0.00    -0.057 S 
ATOM      7  O   UNL     1     -13.496  -8.167  16.423  0.00  0.00    -0.270 OA
ATOM      8  N   UNL     1     -10.763  -9.289  16.563  0.00  0.00    -0.229 NA
ATOM      9  N   UNL     1     -11.877  -8.222  14.711  0.00  0.00    -0.261 N 
ATOM     11  C   UNL     1      -7.844 -11.372  17.983  0.00  0.00    -0.019 C 
ATOM     12  C   UNL     1      -6.761 -10.592  17.114  0.00  0.00    +0.011 C 
ATOM     13  C   UNL     1      -5.275 -11.114  17.187  0.00  0.00    +0.021 C 
ATOM     14  C   UNL     1      -9.138 -10.442  18.110  0.00  0.00    +0.055 C 
ATOM     15  C   UNL     1      -7.282 -11.624  19.405  0.00  0.00    +0.010 C 
ATOM     16  C   UNL     1      -4.889 -11.357  18.674  0.00  0.00    +0.123 C 
ATOM     17  C   UNL     1      -7.268 -10.341  15.664  0.00  0.00    +0.049 C 
ATOM     18  C   UNL     1      -5.888 -12.236  19.418  0.00  0.00    +0.032 C 
ATOM     19  C   UNL     1      -8.248 -12.731  17.360  0.00  0.00    +0.012 C 
ATOM     20  C   UNL     1      -9.521  -9.861  16.774  0.00  0.00    +0.058 A 
ATOM     22  C   UNL     1      -4.324 -10.013  16.637  0.00  0.00    +0.016 C 
ATOM     23  C   UNL     1      -8.661  -9.808  15.695  0.00  0.00    +0.015 A 
ATOM     26  C   UNL     1     -10.824  -8.845  15.326  0.00  0.00    +0.165 A 
ATOM     27  C   UNL     1     -13.125  -7.924  15.280  0.00  0.00    +0.250 C 
ATOM     35  H   UNL     1     -11.672  -7.928  13.761  0.00  0.00    +0.157 HD
ENDROOT
BRANCH  27  28
ATOM      1 CL   UNL     1     -14.731  -3.566  13.006  0.00  0.00    -0.062 Cl
ATOM     10  N   UNL     1     -15.847  -5.889  12.729  0.00  0.00    -0.244 NA
ATOM     28  C   UNL     1     -14.078  -7.211  14.387  0.00  0.00    +0.041 A 
ATOM     29  C   UNL     1     -13.914  -5.863  14.181  0.00  0.00    +0.053 A 
ATOM     30  C   UNL     1     -15.093  -7.923  13.794  0.00  0.00    +0.033 A 
ATOM     31  C   UNL     1     -14.827  -5.245  13.341  0.00  0.00    +0.130 A 
ATOM     32  C   UNL     1     -15.953  -7.215  12.972  0.00  0.00    +0.113 A 
ENDBRANCH  27  28
BRANCH  16   3
ATOM      3  O   UNL     1      -3.595 -11.952  18.767  0.00  0.00    -0.391 OA
ATOM     33  H   UNL     1      -3.628 -12.814  18.319  0.00  0.00    +0.210 HD
ENDBRANCH  16   3
BRANCH  13  21
ATOM     21  C   UNL     1      -4.995 -12.370  16.333  0.00  0.00    +0.165 C 
BRANCH  21   4
ATOM      4  O   UNL     1      -3.629 -12.356  15.980  0.00  0.00    -0.394 OA
ATOM     34  H   UNL     1      -3.555 -12.628  15.050  0.00  0.00    +0.209 HD
ENDBRANCH  21   4
ENDBRANCH  13  21
BRANCH  14  24
ATOM     24  C   UNL     1     -10.337 -11.107  18.799  0.00  0.00    +0.130 C 
BRANCH  24  25
ATOM      6  O   UNL     1     -12.045  -9.688  19.805  0.00  0.00    -0.251 OA
ATOM     25  C   UNL     1     -10.940 -10.208  19.839  0.00  0.00    +0.305 C 
BRANCH  25   5
ATOM      5  O   UNL     1     -10.060 -10.047  20.862  0.00  0.00    -0.481 OA
ATOM     36  H   UNL     1      -9.403  -9.344  20.672  0.00  0.00    +0.295 HD
ENDBRANCH  25   5
ENDBRANCH  24  25
ENDBRANCH  14  24
TORSDOF 7
ENDMDL
MODEL 6
REMARK VINA RESULT:      -6.3     23.992     28.264
REMARK  Name = 11883035
REMARK  9 active torsions:
REMARK  status: ('A' for Active; 'I' for Inactive)
REMARK    1  A    between atoms: O_3  and  C_16
REMARK    2  A    between atoms: O_4  and  C_21
REMARK    3  A    between atoms: O_5  and  C_25
REMARK    4  A    between atoms: C_11  and  C_19
REMARK    5  A    between atoms: C_13  and  C_21
REMARK    6  A    between atoms: C_13  and  C_22
REMARK    7  A    between atoms: C_14  and  C_24
REMARK    8  A    between atoms: C_24  and  C_25
REMARK    9  A    between atoms: C_27  and  C_28
REMARK                            x       y       z     vdW  Elec       q    Type
REMARK                         _______ _______ _______ _____ _____    ______ ____
ROOT
ATOM      2  S   UNL     1      -4.972  10.825  36.630  0.00  0.00    -0.057 S 
ATOM      7  O   UNL     1      -8.807  10.680  33.996  0.00  0.00    -0.270 OA
ATOM      8  N   UNL     1      -6.022  11.593  34.394  0.00  0.00    -0.229 NA
ATOM      9  N   UNL     1      -7.409  10.260  35.846  0.00  0.00    -0.261 N 
ATOM     11  C   UNL     1      -2.847  13.691  33.772  0.00  0.00    -0.019 C 
ATOM     12  C   UNL     1      -1.920  12.669  34.568  0.00  0.00    +0.011 C 
ATOM     13  C   UNL     1      -0.411  13.079  34.770  0.00  0.00    +0.021 C 
ATOM     14  C   UNL     1      -4.162  12.908  33.312  0.00  0.00    +0.055 C 
ATOM     15  C   UNL     1      -2.102  14.183  32.505  0.00  0.00    +0.010 C 
ATOM     16  C   UNL     1       0.166  13.589  33.418  0.00  0.00    +0.123 C 
ATOM     17  C   UNL     1      -2.614  12.167  35.869  0.00  0.00    +0.049 C 
ATOM     18  C   UNL     1      -0.687  14.676  32.774  0.00  0.00    +0.032 C 
ATOM     19  C   UNL     1      -3.252  14.921  34.621  0.00  0.00    +0.012 C 
ATOM     20  C   UNL     1      -4.736  12.098  34.445  0.00  0.00    +0.058 A 
ATOM     22  C   UNL     1       0.406  11.819  35.175  0.00  0.00    +0.016 C 
ATOM     23  C   UNL     1      -4.019  11.761  35.574  0.00  0.00    +0.015 A 
ATOM     26  C   UNL     1      -6.257  10.913  35.494  0.00  0.00    +0.165 A 
ATOM     27  C   UNL     1      -8.593  10.181  35.094  0.00  0.00    +0.250 C 
ATOM     35  H   UNL     1      -7.338   9.764  36.729  0.00  0.00    +0.157 HD
ENDROOT
BRANCH  27  28
ATOM      1 CL   UNL     1     -10.175   6.667  38.542  0.00  0.00    -0.062 Cl
ATOM     10  N   UNL     1     -11.711   7.885  36.845  0.00  0.00    -0.244 NA
ATOM     28  C   UNL     1      -9.684   9.376  35.707  0.00  0.00    +0.041 A 
ATOM     29  C   UNL     1      -9.378   8.510  36.728  0.00  0.00    +0.053 A 
ATOM     30  C   UNL     1     -10.966   9.526  35.235  0.00  0.00    +0.033 A 
ATOM     31  C   UNL     1     -10.429   7.784  37.265  0.00  0.00    +0.130 A 
ATOM     32  C   UNL     1     -11.946   8.756  35.838  0.00  0.00    +0.113 A 
ENDBRANCH  27  28
BRANCH  16   3
ATOM      3  O   UNL     1       1.491  14.089  33.595  0.00  0.00    -0.391 OA
ATOM     33  H   UNL     1       1.745  13.946  34.522  0.00  0.00    +0.210 HD
ENDBRANCH  16   3
BRANCH  13  21
ATOM     21  C   UNL     1      -0.172  14.109  35.895  0.00  0.00    +0.165 C 
BRANCH  21   4
ATOM      4  O   UNL     1       1.081  13.827  36.479  0.00  0.00    -0.394 OA
ATOM     34  H   UNL     1       1.724  14.472  36.140  0.00  0.00    +0.209 HD
ENDBRANCH  21   4
ENDBRANCH  13  21
BRANCH  14  24
ATOM     24  C   UNL     1      -5.231  13.790  32.653  0.00  0.00    +0.130 C 
BRANCH  24  25
ATOM      6  O   UNL     1      -5.526  13.955  30.239  0.00  0.00    -0.251 OA
ATOM     25  C   UNL     1      -5.569  13.305  31.273  0.00  0.00    +0.305 C 
BRANCH  25   5
ATOM      5  O   UNL     1      -5.941  12.000  31.330  0.00  0.00    -0.481 OA
ATOM     36  H   UNL     1      -5.613  11.492  30.557  0.00  0.00    +0.295 HD
ENDBRANCH  25   5
ENDBRANCH  24  25
ENDBRANCH  14  24
TORSDOF 7
ENDMDL
MODEL 7
REMARK VINA RESULT:      -6.1     23.730     27.848
REMARK  Name = 11883035
REMARK  9 active torsions:
REMARK  status: ('A' for Active; 'I' for Inactive)
REMARK    1  A    between atoms: O_3  and  C_16
REMARK    2  A    between atoms: O_4  and  C_21
REMARK    3  A    between atoms: O_5  and  C_25
REMARK    4  A    between atoms: C_11  and  C_19
REMARK    5  A    between atoms: C_13  and  C_21
REMARK    6  A    between atoms: C_13  and  C_22
REMARK    7  A    between atoms: C_14  and  C_24
REMARK    8  A    between atoms: C_24  and  C_25
REMARK    9  A    between atoms: C_27  and  C_28
REMARK                            x       y       z     vdW  Elec       q    Type
REMARK                         _______ _______ _______ _____ _____    ______ ____
ROOT
ATOM      2  S   UNL     1      -5.119  11.259  35.389  0.00  0.00    -0.057 S 
ATOM      7  O   UNL     1      -8.708  11.810  32.477  0.00  0.00    -0.270 OA
ATOM      8  N   UNL     1      -5.918  12.439  33.230  0.00  0.00    -0.229 NA
ATOM      9  N   UNL     1      -7.508  11.007  34.339  0.00  0.00    -0.261 N 
ATOM     11  C   UNL     1      -2.576  14.363  33.199  0.00  0.00    -0.019 C 
ATOM     12  C   UNL     1      -1.789  13.164  33.891  0.00  0.00    +0.011 C 
ATOM     13  C   UNL     1      -0.281  13.423  34.272  0.00  0.00    +0.021 C 
ATOM     14  C   UNL     1      -3.891  13.762  32.519  0.00  0.00    +0.055 C 
ATOM     15  C   UNL     1      -1.693  14.987  32.089  0.00  0.00    +0.010 C 
ATOM     16  C   UNL     1       0.444  14.090  33.068  0.00  0.00    +0.123 C 
ATOM     17  C   UNL     1      -2.624  12.521  35.038  0.00  0.00    +0.049 C 
ATOM     18  C   UNL     1      -0.279  15.325  32.541  0.00  0.00    +0.032 C 
ATOM     19  C   UNL     1      -2.977  15.475  34.199  0.00  0.00    +0.012 C 
ATOM     20  C   UNL     1      -4.613  12.832  33.460  0.00  0.00    +0.058 A 
ATOM     22  C   UNL     1       0.418  12.058  34.532  0.00  0.00    +0.016 C 
ATOM     23  C   UNL     1      -4.020  12.272  34.574  0.00  0.00    +0.015 A 
ATOM     26  C   UNL     1      -6.291  11.617  34.186  0.00  0.00    +0.165 A 
ATOM     27  C   UNL     1      -8.623  11.133  33.495  0.00  0.00    +0.250 C 
ATOM     35  H   UNL     1      -7.546  10.376  35.134  0.00  0.00    +0.157 HD
ENDROOT
BRANCH  27  28
ATOM      1 CL   UNL     1     -12.847   8.453  32.185  0.00  0.00    -0.062 Cl
ATOM     10  N   UNL     1     -12.017   8.833  34.611  0.00  0.00    -0.244 NA
ATOM     28  C   UNL     1      -9.812  10.328  33.885  0.00  0.00    +0.041 A 
ATOM     29  C   UNL     1     -10.642   9.849  32.902  0.00  0.00    +0.053 A 
ATOM     30  C   UNL     1     -10.042  10.087  35.218  0.00  0.00    +0.033 A 
ATOM     31  C   UNL     1     -11.735   9.105  33.317  0.00  0.00    +0.130 A 
ATOM     32  C   UNL     1     -11.161   9.333  35.531  0.00  0.00    +0.113 A 
ENDBRANCH  27  28
BRANCH  16   3
ATOM      3  O   UNL     1       1.777  14.456  33.424  0.00  0.00    -0.391 OA
ATOM     33  H   UNL     1       2.249  14.702  32.611  0.00  0.00    +0.210 HD
ENDBRANCH  16   3
BRANCH  13  21
ATOM     21  C   UNL     1      -0.078  14.247  35.563  0.00  0.00    +0.165 C 
BRANCH  21   4
ATOM      4  O   UNL     1       1.156  13.865  36.128  0.00  0.00    -0.394 OA
ATOM     34  H   UNL     1       1.494  14.613  36.648  0.00  0.00    +0.209 HD
ENDBRANCH  21   4
ENDBRANCH  13  21
BRANCH  14  24
ATOM     24  C   UNL     1      -4.841  14.812  31.929  0.00  0.00    +0.130 C 
BRANCH  24  25
ATOM      6  O   UNL     1      -4.862  15.363  29.554  0.00  0.00    -0.251 OA
ATOM     25  C   UNL     1      -5.079  14.577  30.465  0.00  0.00    +0.305 C 
BRANCH  25   5
ATOM      5  O   UNL     1      -5.582  13.329  30.283  0.00  0.00    -0.481 OA
ATOM     36  H   UNL     1      -6.537  13.350  30.056  0.00  0.00    +0.295 HD
ENDBRANCH  25   5
ENDBRANCH  24  25
ENDBRANCH  14  24
TORSDOF 7
ENDMDL
MODEL 8
REMARK VINA RESULT:      -6.1     29.780     32.030
REMARK  Name = 11883035
REMARK  9 active torsions:
REMARK  status: ('A' for Active; 'I' for Inactive)
REMARK    1  A    between atoms: O_3  and  C_16
REMARK    2  A    between atoms: O_4  and  C_21
REMARK    3  A    between atoms: O_5  and  C_25
REMARK    4  A    between atoms: C_11  and  C_19
REMARK    5  A    between atoms: C_13  and  C_21
REMARK    6  A    between atoms: C_13  and  C_22
REMARK    7  A    between atoms: C_14  and  C_24
REMARK    8  A    between atoms: C_24  and  C_25
REMARK    9  A    between atoms: C_27  and  C_28
REMARK                            x       y       z     vdW  Elec       q    Type
REMARK                         _______ _______ _______ _____ _____    ______ ____
ROOT
ATOM      2  S   UNL     1      -5.547 -11.145  12.627  0.00  0.00    -0.057 S 
ATOM      7  O   UNL     1      -8.727  -8.714  10.251  0.00  0.00    -0.270 OA
ATOM      8  N   UNL     1      -7.738  -9.783  12.825  0.00  0.00    -0.229 NA
ATOM      9  N   UNL     1      -6.794 -10.010  10.619  0.00  0.00    -0.261 N 
ATOM     11  C   UNL     1      -7.885 -10.804  16.541  0.00  0.00    -0.019 C 
ATOM     12  C   UNL     1      -6.299 -10.869  16.667  0.00  0.00    +0.011 C 
ATOM     13  C   UNL     1      -5.711 -11.384  18.036  0.00  0.00    +0.021 C 
ATOM     14  C   UNL     1      -8.243  -9.869  15.295  0.00  0.00    +0.055 C 
ATOM     15  C   UNL     1      -8.479 -10.161  17.821  0.00  0.00    +0.010 C 
ATOM     16  C   UNL     1      -6.445 -10.675  19.209  0.00  0.00    +0.123 C 
ATOM     17  C   UNL     1      -5.655 -11.536  15.416  0.00  0.00    +0.049 C 
ATOM     18  C   UNL     1      -7.964 -10.774  19.115  0.00  0.00    +0.032 C 
ATOM     19  C   UNL     1      -8.529 -12.197  16.339  0.00  0.00    +0.012 C 
ATOM     20  C   UNL     1      -7.406 -10.223  14.093  0.00  0.00    +0.058 A 
ATOM     22  C   UNL     1      -4.209 -10.988  18.124  0.00  0.00    +0.016 C 
ATOM     23  C   UNL     1      -6.239 -10.956  14.172  0.00  0.00    +0.015 A 
ATOM     26  C   UNL     1      -6.834 -10.215  11.973  0.00  0.00    +0.165 A 
ATOM     27  C   UNL     1      -7.721  -9.287   9.851  0.00  0.00    +0.250 C 
ATOM     35  H   UNL     1      -5.971 -10.406  10.176  0.00  0.00    +0.157 HD
ENDROOT
BRANCH  27  28
ATOM      1 CL   UNL     1      -5.207 -11.047   5.688  0.00  0.00    -0.062 Cl
ATOM     10  N   UNL     1      -6.843  -9.035   5.701  0.00  0.00    -0.244 NA
ATOM     28  C   UNL     1      -7.413  -9.199   8.398  0.00  0.00    +0.041 A 
ATOM     29  C   UNL     1      -6.537 -10.103   7.848  0.00  0.00    +0.053 A 
ATOM     30  C   UNL     1      -8.015  -8.216   7.649  0.00  0.00    +0.033 A 
ATOM     31  C   UNL     1      -6.284  -9.979   6.491  0.00  0.00    +0.130 A 
ATOM     32  C   UNL     1      -7.696  -8.176   6.302  0.00  0.00    +0.113 A 
ENDBRANCH  27  28
BRANCH  16   3
ATOM      3  O   UNL     1      -6.027 -11.214  20.463  0.00  0.00    -0.391 OA
ATOM     33  H   UNL     1      -5.081 -11.016  20.575  0.00  0.00    +0.210 HD
ENDBRANCH  16   3
BRANCH  13  21
ATOM     21  C   UNL     1      -5.746 -12.919  18.211  0.00  0.00    +0.165 C 
BRANCH  21   4
ATOM      4  O   UNL     1      -4.454 -13.339  18.589  0.00  0.00    -0.394 OA
ATOM     34  H   UNL     1      -3.824 -13.012  17.926  0.00  0.00    +0.209 HD
ENDBRANCH  21   4
ENDBRANCH  13  21
BRANCH  14  24
ATOM     24  C   UNL     1      -9.736  -9.816  14.944  0.00  0.00    +0.130 C 
BRANCH  24  25
ATOM      6  O   UNL     1     -11.377  -8.033  14.683  0.00  0.00    -0.251 OA
ATOM     25  C   UNL     1     -10.273  -8.417  15.037  0.00  0.00    +0.305 C 
BRANCH  25   5
ATOM      5  O   UNL     1      -9.332  -7.608  15.590  0.00  0.00    -0.481 OA
ATOM     36  H   UNL     1      -9.730  -6.802  15.986  0.00  0.00    +0.295 HD
ENDBRANCH  25   5
ENDBRANCH  24  25
ENDBRANCH  14  24
TORSDOF 7
ENDMDL
MODEL 9
REMARK VINA RESULT:      -6.1     24.991     28.765
REMARK  Name = 11883035
REMARK  9 active torsions:
REMARK  status: ('A' for Active; 'I' for Inactive)
REMARK    1  A    between atoms: O_3  and  C_16
REMARK    2  A    between atoms: O_4  and  C_21
REMARK    3  A    between atoms: O_5  and  C_25
REMARK    4  A    between atoms: C_11  and  C_19
REMARK    5  A    between atoms: C_13  and  C_21
REMARK    6  A    between atoms: C_13  and  C_22
REMARK    7  A    between atoms: C_14  and  C_24
REMARK    8  A    between atoms: C_24  and  C_25
REMARK    9  A    between atoms: C_27  and  C_28
REMARK                            x       y       z     vdW  Elec       q    Type
REMARK                         _______ _______ _______ _____ _____    ______ ____
ROOT
ATOM      2  S   UNL     1      -6.030  10.009  36.949  0.00  0.00    -0.057 S 
ATOM      7  O   UNL     1      -8.819  10.877  33.325  0.00  0.00    -0.270 OA
ATOM      8  N   UNL     1      -6.191  11.179  34.647  0.00  0.00    -0.229 NA
ATOM      9  N   UNL     1      -8.157  10.016  35.416  0.00  0.00    -0.261 N 
ATOM     11  C   UNL     1      -2.688  12.656  35.298  0.00  0.00    -0.019 C 
ATOM     12  C   UNL     1      -2.234  11.400  36.166  0.00  0.00    +0.011 C 
ATOM     13  C   UNL     1      -0.818  11.482  36.856  0.00  0.00    +0.021 C 
ATOM     14  C   UNL     1      -3.900  12.196  34.363  0.00  0.00    +0.055 C 
ATOM     15  C   UNL     1      -1.515  13.109  34.392  0.00  0.00    +0.010 C 
ATOM     16  C   UNL     1       0.227  11.993  35.824  0.00  0.00    +0.123 C 
ATOM     17  C   UNL     1      -3.370  10.924  37.118  0.00  0.00    +0.049 C 
ATOM     18  C   UNL     1      -0.196  13.284  35.131  0.00  0.00    +0.032 C 
ATOM     19  C   UNL     1      -3.137  13.856  36.168  0.00  0.00    +0.012 C 
ATOM     20  C   UNL     1      -4.922  11.412  35.145  0.00  0.00    +0.058 A 
ATOM     22  C   UNL     1      -0.381  10.052  37.286  0.00  0.00    +0.016 C 
ATOM     23  C   UNL     1      -4.658  10.834  36.370  0.00  0.00    +0.015 A 
ATOM     26  C   UNL     1      -6.864  10.457  35.516  0.00  0.00    +0.165 A 
ATOM     27  C   UNL     1      -9.042  10.244  34.350  0.00  0.00    +0.250 C 
ATOM     35  H   UNL     1      -8.446   9.434  36.196  0.00  0.00    +0.157 HD
ENDROOT
BRANCH  27  28
ATOM      1 CL   UNL     1     -13.436   8.535  32.225  0.00  0.00    -0.062 Cl
ATOM     10  N   UNL     1     -12.874   8.452  34.755  0.00  0.00    -0.244 NA
ATOM     28  C   UNL     1     -10.384   9.617  34.491  0.00  0.00    +0.041 A 
ATOM     29  C   UNL     1     -11.147   9.420  33.367  0.00  0.00    +0.053 A 
ATOM     30  C   UNL     1     -10.818   9.252  35.743  0.00  0.00    +0.033 A 
ATOM     31  C   UNL     1     -12.388   8.832  33.551  0.00  0.00    +0.130 A 
ATOM     32  C   UNL     1     -12.073   8.673  35.822  0.00  0.00    +0.113 A 
ENDBRANCH  27  28
BRANCH  16   3
ATOM      3  O   UNL     1       1.492  12.202  36.451  0.00  0.00    -0.391 OA
ATOM     33  H   UNL     1       2.029  12.760  35.864  0.00  0.00    +0.210 HD
ENDBRANCH  16   3
BRANCH  13  21
ATOM     21  C   UNL     1      -0.783  12.332  38.144  0.00  0.00    +0.165 C 
BRANCH  21   4
ATOM      4  O   UNL     1      -0.059  11.611  39.117  0.00  0.00    -0.394 OA
ATOM     34  H   UNL     1       0.438  12.248  39.658  0.00  0.00    +0.209 HD
ENDBRANCH  21   4
ENDBRANCH  13  21
BRANCH  14  24
ATOM     24  C   UNL     1      -4.554  13.331  33.563  0.00  0.00    +0.130 C 
BRANCH  24  25
ATOM      6  O   UNL     1      -3.889  13.782  31.262  0.00  0.00    -0.251 OA
ATOM     25  C   UNL     1      -4.462  13.085  32.085  0.00  0.00    +0.305 C 
BRANCH  25   5
ATOM      5  O   UNL     1      -5.124  11.940  31.775  0.00  0.00    -0.481 OA
ATOM     36  H   UNL     1      -4.861  11.196  32.359  0.00  0.00    +0.295 HD
ENDBRANCH  25   5
ENDBRANCH  24  25
ENDBRANCH  14  24
TORSDOF 7
ENDMDL
MODEL 10
REMARK VINA RESULT:      -6.1     15.074     18.685
REMARK  Name = 11883035
REMARK  9 active torsions:
REMARK  status: ('A' for Active; 'I' for Inactive)
REMARK    1  A    between atoms: O_3  and  C_16
REMARK    2  A    between atoms: O_4  and  C_21
REMARK    3  A    between atoms: O_5  and  C_25
REMARK    4  A    between atoms: C_11  and  C_19
REMARK    5  A    between atoms: C_13  and  C_21
REMARK    6  A    between atoms: C_13  and  C_22
REMARK    7  A    between atoms: C_14  and  C_24
REMARK    8  A    between atoms: C_24  and  C_25
REMARK    9  A    between atoms: C_27  and  C_28
REMARK                            x       y       z     vdW  Elec       q    Type
REMARK                         _______ _______ _______ _____ _____    ______ ____
ROOT
ATOM      2  S   UNL     1      11.682   9.761   4.353  0.00  0.00    -0.057 S 
ATOM      7  O   UNL     1       9.181   8.996   8.203  0.00  0.00    -0.270 OA
ATOM      8  N   UNL     1      10.494   7.950   5.768  0.00  0.00    -0.229 NA
ATOM      9  N   UNL     1      10.386  10.215   6.586  0.00  0.00    -0.261 N 
ATOM     11  C   UNL     1      11.295   5.421   2.970  0.00  0.00    -0.019 C 
ATOM     12  C   UNL     1      12.637   6.177   2.562  0.00  0.00    +0.011 C 
ATOM     13  C   UNL     1      13.409   5.633   1.300  0.00  0.00    +0.021 C 
ATOM     14  C   UNL     1      10.934   5.832   4.471  0.00  0.00    +0.055 C 
ATOM     15  C   UNL     1      11.532   3.889   2.925  0.00  0.00    +0.010 C 
ATOM     16  C   UNL     1      13.518   4.084   1.393  0.00  0.00    +0.123 C 
ATOM     17  C   UNL     1      12.441   7.721   2.562  0.00  0.00    +0.049 C 
ATOM     18  C   UNL     1      12.176   3.401   1.636  0.00  0.00    +0.032 C 
ATOM     19  C   UNL     1      10.105   5.766   2.042  0.00  0.00    +0.012 C 
ATOM     20  C   UNL     1      11.048   7.321   4.668  0.00  0.00    +0.058 A 
ATOM     22  C   UNL     1      14.857   6.200   1.310  0.00  0.00    +0.016 C 
ATOM     23  C   UNL     1      11.744   8.148   3.810  0.00  0.00    +0.015 A 
ATOM     26  C   UNL     1      10.759   9.236   5.703  0.00  0.00    +0.165 A 
ATOM     27  C   UNL     1       9.636  10.044   7.761  0.00  0.00    +0.250 C 
ATOM     35  H   UNL     1      10.747  11.133   6.347  0.00  0.00    +0.157 HD
ENDROOT
BRANCH  27  28
ATOM      1 CL   UNL     1       8.497  12.344  12.250  0.00  0.00    -0.062 Cl
ATOM     10  N   UNL     1       8.970  13.581  10.021  0.00  0.00    -0.244 NA
ATOM     28  C   UNL     1       9.402  11.282   8.552  0.00  0.00    +0.041 A 
ATOM     29  C   UNL     1       9.096  11.170   9.886  0.00  0.00    +0.053 A 
ATOM     30  C   UNL     1       9.501  12.501   7.925  0.00  0.00    +0.033 A 
ATOM     31  C   UNL     1       8.888  12.352  10.580  0.00  0.00    +0.130 A 
ATOM     32  C   UNL     1       9.275  13.623   8.704  0.00  0.00    +0.113 A 
ENDBRANCH  27  28
BRANCH  16   3
ATOM      3  O   UNL     1      14.097   3.549   0.204  0.00  0.00    -0.391 OA
ATOM     33  H   UNL     1      14.380   4.293  -0.354  0.00  0.00    +0.210 HD
ENDBRANCH  16   3
BRANCH  13  21
ATOM     21  C   UNL     1      12.804   6.062  -0.055  0.00  0.00    +0.165 C 
BRANCH  21   4
ATOM      4  O   UNL     1      13.866   6.223  -0.970  0.00  0.00    -0.394 OA
ATOM     34  H   UNL     1      13.487   6.292  -1.862  0.00  0.00    +0.209 HD
ENDBRANCH  21   4
ENDBRANCH  13  21
BRANCH  14  24
ATOM     24  C   UNL     1       9.584   5.300   4.971  0.00  0.00    +0.130 C 
BRANCH  24  25
ATOM      6  O   UNL     1       9.496   5.166   7.404  0.00  0.00    -0.251 OA
ATOM     25  C   UNL     1       9.715   4.650   6.318  0.00  0.00    +0.305 C 
BRANCH  25   5
ATOM      5  O   UNL     1      10.123   3.364   6.162  0.00  0.00    -0.481 OA
ATOM     36  H   UNL     1       9.752   2.959   5.348  0.00  0.00    +0.295 HD
ENDBRANCH  25   5
ENDBRANCH  24  25
ENDBRANCH  14  24
TORSDOF 7
ENDMDL
