MODEL 1
REMARK VINA RESULT:      -6.0      0.000      0.000
REMARK  Name = 45783379
REMARK  7 active torsions:
REMARK  status: ('A' for Active; 'I' for Inactive)
REMARK    1  A    between atoms: O_2  and  C_20
REMARK    2  A    between atoms: O_2  and  C_22
REMARK    3  A    between atoms: N_3  and  C_13
REMARK    4  A    between atoms: N_6  and  C_18
REMARK    5  A    between atoms: C_8  and  C_12
REMARK    6  A    between atoms: C_14  and  C_15
REMARK    7  A    between atoms: C_18  and  C_20
REMARK                            x       y       z     vdW  Elec       q    Type
REMARK                         _______ _______ _______ _____ _____    ______ ____
ROOT
ATOM      6  N   UNL     1      12.874   8.130  19.124  0.00  0.00    -0.326 N 
ATOM      7  N   UNL     1      14.854   6.835  19.168  0.00  0.00    -0.240 NA
ATOM     15  C   UNL     1      14.176   8.039  21.152  0.00  0.00    +0.062 A 
ATOM     16  C   UNL     1      14.004   7.650  19.833  0.00  0.00    +0.130 A 
ATOM     17  C   UNL     1      15.290   7.560  21.832  0.00  0.00    +0.016 A 
ATOM     19  C   UNL     1      16.186   6.719  21.182  0.00  0.00    +0.020 A 
ATOM     21  C   UNL     1      15.926   6.390  19.862  0.00  0.00    +0.113 A 
ATOM     23  H   UNL     1      12.465   8.992  19.470  0.00  0.00    +0.148 HD
ENDROOT
BRANCH  15  14
ATOM      1  O   UNL     1      11.495   9.677  22.762  0.00  0.00    -0.336 OA
ATOM      4  N   UNL     1      13.614  10.162  22.223  0.00  0.00    -0.190 NA
ATOM      5  N   UNL     1      12.003   8.542  22.116  0.00  0.00    -0.056 NA
ATOM     12  C   UNL     1      12.506  10.583  22.782  0.00  0.00    +0.245 A 
ATOM     14  C   UNL     1      13.256   8.906  21.830  0.00  0.00    +0.205 A 
BRANCH  12   8
ATOM      3  N   UNL     1      10.893  12.461  23.038  0.00  0.00    -0.294 NA
ATOM      8  C   UNL     1      12.207  11.916  23.435  0.00  0.00    +0.146 C 
ATOM      9  C   UNL     1      12.143  11.824  24.971  0.00  0.00    +0.030 C 
ATOM     10  C   UNL     1      10.785  12.395  25.348  0.00  0.00    +0.017 C 
ATOM     11  C   UNL     1      10.423  13.269  24.163  0.00  0.00    +0.085 C 
ATOM     13  C   UNL     1      10.939  13.223  21.797  0.00  0.00    +0.105 C 
ENDBRANCH  12   8
ENDBRANCH  15  14
BRANCH   6  18
ATOM     18  C   UNL     1      12.614   7.784  17.766  0.00  0.00    +0.131 C 
BRANCH  18  20
ATOM     20  C   UNL     1      12.932   8.961  16.860  0.00  0.00    +0.178 C 
BRANCH  20   2
ATOM      2  O   UNL     1      12.039   8.962  15.753  0.00  0.00    -0.381 OA
ATOM     22  C   UNL     1      10.695   8.759  16.167  0.00  0.00    +0.194 C 
ENDBRANCH  20   2
ENDBRANCH  18  20
ENDBRANCH   6  18
TORSDOF 5
ENDMDL
MODEL 2
REMARK VINA RESULT:      -5.8     13.692     18.817
REMARK  Name = 45783379
REMARK  7 active torsions:
REMARK  status: ('A' for Active; 'I' for Inactive)
REMARK    1  A    between atoms: O_2  and  C_20
REMARK    2  A    between atoms: O_2  and  C_22
REMARK    3  A    between atoms: N_3  and  C_13
REMARK    4  A    between atoms: N_6  and  C_18
REMARK    5  A    between atoms: C_8  and  C_12
REMARK    6  A    between atoms: C_14  and  C_15
REMARK    7  A    between atoms: C_18  and  C_20
REMARK                            x       y       z     vdW  Elec       q    Type
REMARK                         _______ _______ _______ _____ _____    ______ ____
ROOT
ATOM      6  N   UNL     1      10.279   5.791   6.342  0.00  0.00    -0.326 N 
ATOM      7  N   UNL     1       8.736   7.581   6.244  0.00  0.00    -0.240 NA
ATOM     15  C   UNL     1       9.613   6.652   4.191  0.00  0.00    +0.062 A 
ATOM     16  C   UNL     1       9.517   6.705   5.572  0.00  0.00    +0.130 A 
ATOM     17  C   UNL     1       8.859   7.557   3.451  0.00  0.00    +0.016 A 
ATOM     19  C   UNL     1       8.043   8.473   4.106  0.00  0.00    +0.020 A 
ATOM     21  C   UNL     1       8.018   8.445   5.491  0.00  0.00    +0.113 A 
ATOM     23  H   UNL     1      11.106   5.411   5.892  0.00  0.00    +0.148 HD
ENDROOT
BRANCH  15  14
ATOM      1  O   UNL     1      11.387   3.892   2.889  0.00  0.00    -0.336 OA
ATOM      4  N   UNL     1      11.329   6.103   2.540  0.00  0.00    -0.190 NA
ATOM      5  N   UNL     1      10.428   4.401   3.775  0.00  0.00    -0.056 NA
ATOM     12  C   UNL     1      11.868   4.960   2.201  0.00  0.00    +0.245 A 
ATOM     14  C   UNL     1      10.451   5.711   3.508  0.00  0.00    +0.205 A 
BRANCH  12   8
ATOM      3  N   UNL     1      14.048   5.639   1.210  0.00  0.00    -0.294 NA
ATOM      8  C   UNL     1      12.934   4.670   1.165  0.00  0.00    +0.146 C 
ATOM      9  C   UNL     1      13.602   3.298   1.365  0.00  0.00    +0.030 C 
ATOM     10  C   UNL     1      15.093   3.590   1.452  0.00  0.00    +0.017 C 
ATOM     11  C   UNL     1      15.238   4.924   0.749  0.00  0.00    +0.085 C 
ATOM     13  C   UNL     1      13.795   6.843   0.429  0.00  0.00    +0.105 C 
ENDBRANCH  12   8
ENDBRANCH  15  14
BRANCH   6  18
ATOM     18  C   UNL     1      10.245   5.769   7.767  0.00  0.00    +0.131 C 
BRANCH  18  20
ATOM     20  C   UNL     1       9.916   4.370   8.259  0.00  0.00    +0.178 C 
BRANCH  20   2
ATOM      2  O   UNL     1      10.059   4.318   9.673  0.00  0.00    -0.381 OA
ATOM     22  C   UNL     1       8.850   4.671  10.332  0.00  0.00    +0.194 C 
ENDBRANCH  20   2
ENDBRANCH  18  20
ENDBRANCH   6  18
TORSDOF 5
ENDMDL
MODEL 3
REMARK VINA RESULT:      -5.8     14.660     18.866
REMARK  Name = 45783379
REMARK  7 active torsions:
REMARK  status: ('A' for Active; 'I' for Inactive)
REMARK    1  A    between atoms: O_2  and  C_20
REMARK    2  A    between atoms: O_2  and  C_22
REMARK    3  A    between atoms: N_3  and  C_13
REMARK    4  A    between atoms: N_6  and  C_18
REMARK    5  A    between atoms: C_8  and  C_12
REMARK    6  A    between atoms: C_14  and  C_15
REMARK    7  A    between atoms: C_18  and  C_20
REMARK                            x       y       z     vdW  Elec       q    Type
REMARK                         _______ _______ _______ _____ _____    ______ ____
ROOT
ATOM      6  N   UNL     1      12.579   6.438   6.131  0.00  0.00    -0.326 N 
ATOM      7  N   UNL     1      10.759   7.319   7.360  0.00  0.00    -0.240 NA
ATOM     15  C   UNL     1      10.333   6.070   5.335  0.00  0.00    +0.062 A 
ATOM     16  C   UNL     1      11.181   6.617   6.285  0.00  0.00    +0.130 A 
ATOM     17  C   UNL     1       8.965   6.256   5.500  0.00  0.00    +0.016 A 
ATOM     19  C   UNL     1       8.493   6.972   6.594  0.00  0.00    +0.020 A 
ATOM     21  C   UNL     1       9.423   7.479   7.487  0.00  0.00    +0.113 A 
ATOM     23  H   UNL     1      12.904   6.256   5.187  0.00  0.00    +0.148 HD
ENDROOT
BRANCH  15  14
ATOM      1  O   UNL     1      11.195   3.747   2.821  0.00  0.00    -0.336 OA
ATOM      4  N   UNL     1      11.579   5.913   3.238  0.00  0.00    -0.190 NA
ATOM      5  N   UNL     1      10.539   4.034   4.025  0.00  0.00    -0.056 NA
ATOM     12  C   UNL     1      11.783   4.906   2.426  0.00  0.00    +0.245 A 
ATOM     14  C   UNL     1      10.811   5.330   4.203  0.00  0.00    +0.205 A 
BRANCH  12   8
ATOM      3  N   UNL     1      13.290   3.585   0.951  0.00  0.00    -0.294 NA
ATOM      8  C   UNL     1      12.567   4.860   1.132  0.00  0.00    +0.146 C 
ATOM      9  C   UNL     1      11.669   4.980  -0.113  0.00  0.00    +0.030 C 
ATOM     10  C   UNL     1      12.000   3.761  -0.961  0.00  0.00    +0.017 C 
ATOM     11  C   UNL     1      13.385   3.364  -0.492  0.00  0.00    +0.085 C 
ATOM     13  C   UNL     1      14.597   3.568   1.596  0.00  0.00    +0.105 C 
ENDBRANCH  12   8
ENDBRANCH  15  14
BRANCH   6  18
ATOM     18  C   UNL     1      13.528   6.963   7.057  0.00  0.00    +0.131 C 
BRANCH  18  20
ATOM     20  C   UNL     1      14.798   7.364   6.327  0.00  0.00    +0.178 C 
BRANCH  20   2
ATOM      2  O   UNL     1      14.492   7.662   4.971  0.00  0.00    -0.381 OA
ATOM     22  C   UNL     1      15.483   7.153   4.088  0.00  0.00    +0.194 C 
ENDBRANCH  20   2
ENDBRANCH  18  20
ENDBRANCH   6  18
TORSDOF 5
ENDMDL
MODEL 4
REMARK VINA RESULT:      -5.7      4.060      7.342
REMARK  Name = 45783379
REMARK  7 active torsions:
REMARK  status: ('A' for Active; 'I' for Inactive)
REMARK    1  A    between atoms: O_2  and  C_20
REMARK    2  A    between atoms: O_2  and  C_22
REMARK    3  A    between atoms: N_3  and  C_13
REMARK    4  A    between atoms: N_6  and  C_18
REMARK    5  A    between atoms: C_8  and  C_12
REMARK    6  A    between atoms: C_14  and  C_15
REMARK    7  A    between atoms: C_18  and  C_20
REMARK                            x       y       z     vdW  Elec       q    Type
REMARK                         _______ _______ _______ _____ _____    ______ ____
ROOT
ATOM      6  N   UNL     1      15.008   7.291  18.780  0.00  0.00    -0.326 N 
ATOM      7  N   UNL     1      13.265   7.038  20.359  0.00  0.00    -0.240 NA
ATOM     15  C   UNL     1      12.913   8.426  18.412  0.00  0.00    +0.062 A 
ATOM     16  C   UNL     1      13.688   7.591  19.200  0.00  0.00    +0.130 A 
ATOM     17  C   UNL     1      11.621   8.712  18.840  0.00  0.00    +0.016 A 
ATOM     19  C   UNL     1      11.150   8.161  20.026  0.00  0.00    +0.020 A 
ATOM     21  C   UNL     1      12.004   7.338  20.743  0.00  0.00    +0.113 A 
ATOM     23  H   UNL     1      15.440   7.963  18.153  0.00  0.00    +0.148 HD
ENDROOT
BRANCH  15  14
ATOM      1  O   UNL     1      14.083   9.222  15.177  0.00  0.00    -0.336 OA
ATOM      4  N   UNL     1      13.608  10.339  17.059  0.00  0.00    -0.190 NA
ATOM      5  N   UNL     1      13.653   8.262  16.103  0.00  0.00    -0.056 NA
ATOM     12  C   UNL     1      14.027  10.417  15.821  0.00  0.00    +0.245 A 
ATOM     14  C   UNL     1      13.391   8.999  17.186  0.00  0.00    +0.205 A 
BRANCH  12   8
ATOM      3  N   UNL     1      15.599  11.363  14.140  0.00  0.00    -0.294 NA
ATOM      8  C   UNL     1      14.447  11.633  15.023  0.00  0.00    +0.146 C 
ATOM      9  C   UNL     1      13.341  12.138  14.079  0.00  0.00    +0.030 C 
ATOM     10  C   UNL     1      13.981  12.175  12.700  0.00  0.00    +0.017 C 
ATOM     11  C   UNL     1      15.464  12.265  12.996  0.00  0.00    +0.085 C 
ATOM     13  C   UNL     1      16.885  11.513  14.808  0.00  0.00    +0.105 C 
ENDBRANCH  12   8
ENDBRANCH  15  14
BRANCH   6  18
ATOM     18  C   UNL     1      15.879   6.442  19.524  0.00  0.00    +0.131 C 
BRANCH  18  20
ATOM     20  C   UNL     1      16.955   5.875  18.615  0.00  0.00    +0.178 C 
BRANCH  20   2
ATOM      2  O   UNL     1      18.099   5.534  19.390  0.00  0.00    -0.381 OA
ATOM     22  C   UNL     1      18.316   6.469  20.438  0.00  0.00    +0.194 C 
ENDBRANCH  20   2
ENDBRANCH  18  20
ENDBRANCH   6  18
TORSDOF 5
ENDMDL
MODEL 5
REMARK VINA RESULT:      -5.6     26.195     27.875
REMARK  Name = 45783379
REMARK  7 active torsions:
REMARK  status: ('A' for Active; 'I' for Inactive)
REMARK    1  A    between atoms: O_2  and  C_20
REMARK    2  A    between atoms: O_2  and  C_22
REMARK    3  A    between atoms: N_3  and  C_13
REMARK    4  A    between atoms: N_6  and  C_18
REMARK    5  A    between atoms: C_8  and  C_12
REMARK    6  A    between atoms: C_14  and  C_15
REMARK    7  A    between atoms: C_18  and  C_20
REMARK                            x       y       z     vdW  Elec       q    Type
REMARK                         _______ _______ _______ _____ _____    ______ ____
ROOT
ATOM      6  N   UNL     1      -6.340  -9.748  16.601  0.00  0.00    -0.326 N 
ATOM      7  N   UNL     1      -6.435 -10.688  18.770  0.00  0.00    -0.240 NA
ATOM     15  C   UNL     1      -4.467 -11.034  17.409  0.00  0.00    +0.062 A 
ATOM     16  C   UNL     1      -5.732 -10.513  17.629  0.00  0.00    +0.130 A 
ATOM     17  C   UNL     1      -3.886 -11.783  18.427  0.00  0.00    +0.016 A 
ATOM     19  C   UNL     1      -4.578 -11.984  19.616  0.00  0.00    +0.020 A 
ATOM     21  C   UNL     1      -5.838 -11.422  19.736  0.00  0.00    +0.113 A 
ATOM     23  H   UNL     1      -6.005  -9.922  15.659  0.00  0.00    +0.148 HD
ENDROOT
BRANCH  15  14
ATOM      1  O   UNL     1      -2.224 -10.298  14.784  0.00  0.00    -0.336 OA
ATOM      4  N   UNL     1      -4.281 -11.164  14.976  0.00  0.00    -0.190 NA
ATOM      5  N   UNL     1      -2.518 -10.305  16.154  0.00  0.00    -0.056 NA
ATOM     12  C   UNL     1      -3.314 -10.819  14.163  0.00  0.00    +0.245 A 
ATOM     14  C   UNL     1      -3.746 -10.831  16.186  0.00  0.00    +0.205 A 
BRANCH  12   8
ATOM      3  N   UNL     1      -4.099  -9.922  11.978  0.00  0.00    -0.294 NA
ATOM      8  C   UNL     1      -3.247 -10.921  12.654  0.00  0.00    +0.146 C 
ATOM      9  C   UNL     1      -1.832 -10.663  12.102  0.00  0.00    +0.030 C 
ATOM     10  C   UNL     1      -2.000  -9.547  11.083  0.00  0.00    +0.017 C 
ATOM     11  C   UNL     1      -3.462  -9.634  10.693  0.00  0.00    +0.085 C 
ATOM     13  C   UNL     1      -5.481 -10.358  11.819  0.00  0.00    +0.105 C 
ENDBRANCH  12   8
ENDBRANCH  15  14
BRANCH   6  18
ATOM     18  C   UNL     1      -7.637  -9.172  16.735  0.00  0.00    +0.131 C 
BRANCH  18  20
ATOM     20  C   UNL     1      -8.607  -9.847  15.782  0.00  0.00    +0.178 C 
BRANCH  20   2
ATOM      2  O   UNL     1      -9.880  -9.220  15.877  0.00  0.00    -0.381 OA
ATOM     22  C   UNL     1      -9.768  -7.880  16.339  0.00  0.00    +0.194 C 
ENDBRANCH  20   2
ENDBRANCH  18  20
ENDBRANCH   6  18
TORSDOF 5
ENDMDL
MODEL 6
REMARK VINA RESULT:      -5.4     14.561     18.630
REMARK  Name = 45783379
REMARK  7 active torsions:
REMARK  status: ('A' for Active; 'I' for Inactive)
REMARK    1  A    between atoms: O_2  and  C_20
REMARK    2  A    between atoms: O_2  and  C_22
REMARK    3  A    between atoms: N_3  and  C_13
REMARK    4  A    between atoms: N_6  and  C_18
REMARK    5  A    between atoms: C_8  and  C_12
REMARK    6  A    between atoms: C_14  and  C_15
REMARK    7  A    between atoms: C_18  and  C_20
REMARK                            x       y       z     vdW  Elec       q    Type
REMARK                         _______ _______ _______ _____ _____    ______ ____
ROOT
ATOM      6  N   UNL     1       8.974   8.075   5.211  0.00  0.00    -0.326 N 
ATOM      7  N   UNL     1       8.550   7.509   7.469  0.00  0.00    -0.240 NA
ATOM     15  C   UNL     1      10.010   6.109   6.145  0.00  0.00    +0.062 A 
ATOM     16  C   UNL     1       9.182   7.207   6.312  0.00  0.00    +0.130 A 
ATOM     17  C   UNL     1      10.203   5.267   7.235  0.00  0.00    +0.016 A 
ATOM     19  C   UNL     1       9.571   5.546   8.442  0.00  0.00    +0.020 A 
ATOM     21  C   UNL     1       8.761   6.668   8.506  0.00  0.00    +0.113 A 
ATOM     23  H   UNL     1       9.124   7.672   4.291  0.00  0.00    +0.148 HD
ENDROOT
BRANCH  15  14
ATOM      1  O   UNL     1      11.978   5.917   3.220  0.00  0.00    -0.336 OA
ATOM      4  N   UNL     1      10.314   4.737   4.146  0.00  0.00    -0.190 NA
ATOM      5  N   UNL     1      11.655   6.571   4.417  0.00  0.00    -0.056 NA
ATOM     12  C   UNL     1      11.141   4.850   3.137  0.00  0.00    +0.245 A 
ATOM     14  C   UNL     1      10.667   5.814   4.904  0.00  0.00    +0.205 A 
BRANCH  12   8
ATOM      3  N   UNL     1      11.326   4.742   0.657  0.00  0.00    -0.294 NA
ATOM      8  C   UNL     1      11.291   3.968   1.915  0.00  0.00    +0.146 C 
ATOM      9  C   UNL     1      12.606   3.167   1.916  0.00  0.00    +0.030 C 
ATOM     10  C   UNL     1      13.281   3.508   0.597  0.00  0.00    +0.017 C 
ATOM     11  C   UNL     1      12.135   3.968  -0.283  0.00  0.00    +0.085 C 
ATOM     13  C   UNL     1      10.000   5.036   0.127  0.00  0.00    +0.105 C 
ENDBRANCH  12   8
ENDBRANCH  15  14
BRANCH   6  18
ATOM     18  C   UNL     1       8.139   9.228   5.287  0.00  0.00    +0.131 C 
BRANCH  18  20
ATOM     20  C   UNL     1       7.454   9.464   3.952  0.00  0.00    +0.178 C 
BRANCH  20   2
ATOM      2  O   UNL     1       6.331  10.316   4.139  0.00  0.00    -0.381 OA
ATOM     22  C   UNL     1       5.363  10.135   3.115  0.00  0.00    +0.194 C 
ENDBRANCH  20   2
ENDBRANCH  18  20
ENDBRANCH   6  18
TORSDOF 5
ENDMDL
MODEL 7
REMARK VINA RESULT:      -5.2     14.038     18.278
REMARK  Name = 45783379
REMARK  7 active torsions:
REMARK  status: ('A' for Active; 'I' for Inactive)
REMARK    1  A    between atoms: O_2  and  C_20
REMARK    2  A    between atoms: O_2  and  C_22
REMARK    3  A    between atoms: N_3  and  C_13
REMARK    4  A    between atoms: N_6  and  C_18
REMARK    5  A    between atoms: C_8  and  C_12
REMARK    6  A    between atoms: C_14  and  C_15
REMARK    7  A    between atoms: C_18  and  C_20
REMARK                            x       y       z     vdW  Elec       q    Type
REMARK                         _______ _______ _______ _____ _____    ______ ____
ROOT
ATOM      6  N   UNL     1       9.809   8.292   5.519  0.00  0.00    -0.326 N 
ATOM      7  N   UNL     1       9.116   7.508   7.641  0.00  0.00    -0.240 NA
ATOM     15  C   UNL     1      10.217   5.991   6.114  0.00  0.00    +0.062 A 
ATOM     16  C   UNL     1       9.709   7.234   6.457  0.00  0.00    +0.130 A 
ATOM     17  C   UNL     1      10.110   4.964   7.045  0.00  0.00    +0.016 A 
ATOM     19  C   UNL     1       9.507   5.208   8.274  0.00  0.00    +0.020 A 
ATOM     21  C   UNL     1       9.030   6.485   8.521  0.00  0.00    +0.113 A 
ATOM     23  H   UNL     1       9.898   8.017   4.546  0.00  0.00    +0.148 HD
ENDROOT
BRANCH  15  14
ATOM      1  O   UNL     1      12.094   5.891   3.126  0.00  0.00    -0.336 OA
ATOM      4  N   UNL     1      10.491   4.656   4.086  0.00  0.00    -0.190 NA
ATOM      5  N   UNL     1      11.793   6.520   4.341  0.00  0.00    -0.056 NA
ATOM     12  C   UNL     1      11.283   4.804   3.053  0.00  0.00    +0.245 A 
ATOM     14  C   UNL     1      10.841   5.731   4.849  0.00  0.00    +0.205 A 
BRANCH  12   8
ATOM      3  N   UNL     1      11.415   4.738   0.569  0.00  0.00    -0.294 NA
ATOM      8  C   UNL     1      11.416   3.944   1.814  0.00  0.00    +0.146 C 
ATOM      9  C   UNL     1      12.739   3.157   1.775  0.00  0.00    +0.030 C 
ATOM     10  C   UNL     1      13.382   3.526   0.447  0.00  0.00    +0.017 C 
ATOM     11  C   UNL     1      12.213   3.988  -0.401  0.00  0.00    +0.085 C 
ATOM     13  C   UNL     1      10.076   5.025   0.071  0.00  0.00    +0.105 C 
ENDBRANCH  12   8
ENDBRANCH  15  14
BRANCH   6  18
ATOM     18  C   UNL     1       9.316   9.603   5.783  0.00  0.00    +0.131 C 
BRANCH  18  20
ATOM     20  C   UNL     1      10.473  10.577   5.915  0.00  0.00    +0.178 C 
BRANCH  20   2
ATOM      2  O   UNL     1      10.713  10.844   7.292  0.00  0.00    -0.381 OA
ATOM     22  C   UNL     1      11.924  10.246   7.735  0.00  0.00    +0.194 C 
ENDBRANCH  20   2
ENDBRANCH  18  20
ENDBRANCH   6  18
TORSDOF 5
ENDMDL
MODEL 8
REMARK VINA RESULT:      -5.2     26.228     27.897
REMARK  Name = 45783379
REMARK  7 active torsions:
REMARK  status: ('A' for Active; 'I' for Inactive)
REMARK    1  A    between atoms: O_2  and  C_20
REMARK    2  A    between atoms: O_2  and  C_22
REMARK    3  A    between atoms: N_3  and  C_13
REMARK    4  A    between atoms: N_6  and  C_18
REMARK    5  A    between atoms: C_8  and  C_12
REMARK    6  A    between atoms: C_14  and  C_15
REMARK    7  A    between atoms: C_18  and  C_20
REMARK                            x       y       z     vdW  Elec       q    Type
REMARK                         _______ _______ _______ _____ _____    ______ ____
ROOT
ATOM      6  N   UNL     1      -5.082 -10.366  13.662  0.00  0.00    -0.326 N 
ATOM      7  N   UNL     1      -2.762 -10.829  13.688  0.00  0.00    -0.240 NA
ATOM     15  C   UNL     1      -3.947 -10.568  15.779  0.00  0.00    +0.062 A 
ATOM     16  C   UNL     1      -3.891 -10.596  14.395  0.00  0.00    +0.130 A 
ATOM     17  C   UNL     1      -2.769 -10.795  16.483  0.00  0.00    +0.016 A 
ATOM     19  C   UNL     1      -1.588 -11.039  15.791  0.00  0.00    +0.020 A 
ATOM     21  C   UNL     1      -1.637 -11.044  14.407  0.00  0.00    +0.113 A 
ATOM     23  H   UNL     1      -5.807  -9.843  14.143  0.00  0.00    +0.148 HD
ENDROOT
BRANCH  15  14
ATOM      1  O   UNL     1      -7.001  -9.447  17.150  0.00  0.00    -0.336 OA
ATOM      4  N   UNL     1      -5.556 -11.114  17.537  0.00  0.00    -0.190 NA
ATOM      5  N   UNL     1      -5.973  -9.298  16.210  0.00  0.00    -0.056 NA
ATOM     12  C   UNL     1      -6.677 -10.538  17.892  0.00  0.00    +0.245 A 
ATOM     14  C   UNL     1      -5.161 -10.318  16.501  0.00  0.00    +0.205 A 
BRANCH  12   8
ATOM      3  N   UNL     1      -8.982 -11.269  18.479  0.00  0.00    -0.294 NA
ATOM      8  C   UNL     1      -7.644 -10.917  18.994  0.00  0.00    +0.146 C 
ATOM      9  C   UNL     1      -7.190 -12.159  19.783  0.00  0.00    +0.030 C 
ATOM     10  C   UNL     1      -8.360 -13.128  19.706  0.00  0.00    +0.017 C 
ATOM     11  C   UNL     1      -9.549 -12.232  19.423  0.00  0.00    +0.085 C 
ATOM     13  C   UNL     1      -9.848 -10.111  18.291  0.00  0.00    +0.105 C 
ENDBRANCH  12   8
ENDBRANCH  15  14
BRANCH   6  18
ATOM     18  C   UNL     1      -5.122 -10.375  12.237  0.00  0.00    +0.131 C 
BRANCH  18  20
ATOM     20  C   UNL     1      -5.706  -9.069  11.725  0.00  0.00    +0.178 C 
BRANCH  20   2
ATOM      2  O   UNL     1      -4.868  -8.544  10.702  0.00  0.00    -0.381 OA
ATOM     22  C   UNL     1      -3.745  -9.382  10.467  0.00  0.00    +0.194 C 
ENDBRANCH  20   2
ENDBRANCH  18  20
ENDBRANCH   6  18
TORSDOF 5
ENDMDL
MODEL 9
REMARK VINA RESULT:      -5.1     26.262     28.032
REMARK  Name = 45783379
REMARK  7 active torsions:
REMARK  status: ('A' for Active; 'I' for Inactive)
REMARK    1  A    between atoms: O_2  and  C_20
REMARK    2  A    between atoms: O_2  and  C_22
REMARK    3  A    between atoms: N_3  and  C_13
REMARK    4  A    between atoms: N_6  and  C_18
REMARK    5  A    between atoms: C_8  and  C_12
REMARK    6  A    between atoms: C_14  and  C_15
REMARK    7  A    between atoms: C_18  and  C_20
REMARK                            x       y       z     vdW  Elec       q    Type
REMARK                         _______ _______ _______ _____ _____    ______ ____
ROOT
ATOM      6  N   UNL     1      -3.388 -11.490  12.776  0.00  0.00    -0.326 N 
ATOM      7  N   UNL     1      -3.095 -10.279  10.764  0.00  0.00    -0.240 NA
ATOM     15  C   UNL     1      -4.999  -9.800  12.175  0.00  0.00    +0.062 A 
ATOM     16  C   UNL     1      -3.837 -10.493  11.874  0.00  0.00    +0.130 A 
ATOM     17  C   UNL     1      -5.426  -8.826  11.279  0.00  0.00    +0.016 A 
ATOM     19  C   UNL     1      -4.689  -8.577  10.127  0.00  0.00    +0.020 A 
ATOM     21  C   UNL     1      -3.542  -9.325   9.917  0.00  0.00    +0.113 A 
ATOM     23  H   UNL     1      -4.096 -11.899  13.377  0.00  0.00    +0.148 HD
ENDROOT
BRANCH  15  14
ATOM      1  O   UNL     1      -7.401 -10.361  14.701  0.00  0.00    -0.336 OA
ATOM      4  N   UNL     1      -5.168 -10.247  14.572  0.00  0.00    -0.190 NA
ATOM      5  N   UNL     1      -7.101 -10.102  13.357  0.00  0.00    -0.056 NA
ATOM     12  C   UNL     1      -6.208 -10.431  15.346  0.00  0.00    +0.245 A 
ATOM     14  C   UNL     1      -5.765 -10.050  13.361  0.00  0.00    +0.205 A 
BRANCH  12   8
ATOM      3  N   UNL     1      -6.484 -12.134  17.140  0.00  0.00    -0.294 NA
ATOM      8  C   UNL     1      -6.260 -10.707  16.834  0.00  0.00    +0.146 C 
ATOM      9  C   UNL     1      -4.943 -10.356  17.551  0.00  0.00    +0.030 C 
ATOM     10  C   UNL     1      -4.536 -11.627  18.280  0.00  0.00    +0.017 C 
ATOM     11  C   UNL     1      -5.838 -12.388  18.428  0.00  0.00    +0.085 C 
ATOM     13  C   UNL     1      -7.893 -12.506  17.150  0.00  0.00    +0.105 C 
ENDBRANCH  12   8
ENDBRANCH  15  14
BRANCH   6  18
ATOM     18  C   UNL     1      -2.205 -12.254  12.552  0.00  0.00    +0.131 C 
BRANCH  18  20
ATOM     20  C   UNL     1      -1.505 -12.528  13.871  0.00  0.00    +0.178 C 
BRANCH  20   2
ATOM      2  O   UNL     1      -2.176 -11.834  14.917  0.00  0.00    -0.381 OA
ATOM     22  C   UNL     1      -1.292 -10.971  15.620  0.00  0.00    +0.194 C 
ENDBRANCH  20   2
ENDBRANCH  18  20
ENDBRANCH   6  18
TORSDOF 5
ENDMDL
MODEL 10
REMARK VINA RESULT:      -5.1     14.108     17.045
REMARK  Name = 45783379
REMARK  7 active torsions:
REMARK  status: ('A' for Active; 'I' for Inactive)
REMARK    1  A    between atoms: O_2  and  C_20
REMARK    2  A    between atoms: O_2  and  C_22
REMARK    3  A    between atoms: N_3  and  C_13
REMARK    4  A    between atoms: N_6  and  C_18
REMARK    5  A    between atoms: C_8  and  C_12
REMARK    6  A    between atoms: C_14  and  C_15
REMARK    7  A    between atoms: C_18  and  C_20
REMARK                            x       y       z     vdW  Elec       q    Type
REMARK                         _______ _______ _______ _____ _____    ______ ____
ROOT
ATOM      6  N   UNL     1       9.945   5.758   5.111  0.00  0.00    -0.326 N 
ATOM      7  N   UNL     1       9.950   4.437   7.074  0.00  0.00    -0.240 NA
ATOM     15  C   UNL     1       9.208   6.735   7.188  0.00  0.00    +0.062 A 
ATOM     16  C   UNL     1       9.694   5.635   6.501  0.00  0.00    +0.130 A 
ATOM     17  C   UNL     1       8.968   6.598   8.551  0.00  0.00    +0.016 A 
ATOM     19  C   UNL     1       9.219   5.381   9.176  0.00  0.00    +0.020 A 
ATOM     21  C   UNL     1       9.705   4.342   8.401  0.00  0.00    +0.113 A 
ATOM     23  H   UNL     1      10.112   6.700   4.770  0.00  0.00    +0.148 HD
ENDROOT
BRANCH  15  14
ATOM      1  O   UNL     1       8.902  10.085   6.118  0.00  0.00    -0.336 OA
ATOM      4  N   UNL     1       8.230   8.075   5.394  0.00  0.00    -0.190 NA
ATOM      5  N   UNL     1       9.383   9.155   7.048  0.00  0.00    -0.056 NA
ATOM     12  C   UNL     1       8.234   9.367   5.178  0.00  0.00    +0.245 A 
ATOM     14  C   UNL     1       8.947   7.994   6.551  0.00  0.00    +0.205 A 
BRANCH  12   8
ATOM      3  N   UNL     1       7.309   9.312   2.868  0.00  0.00    -0.294 NA
ATOM      8  C   UNL     1       7.610  10.153   4.044  0.00  0.00    +0.146 C 
ATOM      9  C   UNL     1       6.259  10.782   4.430  0.00  0.00    +0.030 C 
ATOM     10  C   UNL     1       5.275  10.286   3.381  0.00  0.00    +0.017 C 
ATOM     11  C   UNL     1       6.159   9.925   2.204  0.00  0.00    +0.085 C 
ATOM     13  C   UNL     1       8.444   9.156   1.967  0.00  0.00    +0.105 C 
ENDBRANCH  12   8
ENDBRANCH  15  14
BRANCH   6  18
ATOM     18  C   UNL     1      10.446   4.681   4.321  0.00  0.00    +0.131 C 
BRANCH  18  20
ATOM     20  C   UNL     1      11.300   5.222   3.188  0.00  0.00    +0.178 C 
BRANCH  20   2
ATOM      2  O   UNL     1      11.465   4.214   2.197  0.00  0.00    -0.381 OA
ATOM     22  C   UNL     1      10.387   4.214   1.270  0.00  0.00    +0.194 C 
ENDBRANCH  20   2
ENDBRANCH  18  20
ENDBRANCH   6  18
TORSDOF 5
ENDMDL
