MODEL 1
REMARK VINA RESULT:      -8.3      0.000      0.000
REMARK  Name = 45783299
REMARK  3 active torsions:
REMARK  status: ('A' for Active; 'I' for Inactive)
REMARK    1  A    between atoms: N_4  and  C_9
REMARK    2  A    between atoms: C_10  and  C_16
REMARK    3  A    between atoms: C_19  and  C_20
REMARK                            x       y       z     vdW  Elec       q    Type
REMARK                         _______ _______ _______ _____ _____    ______ ____
ROOT
ATOM      2  O   UNL     1      16.043   5.986  18.391  0.00  0.00    -0.336 OA
ATOM      5  N   UNL     1      16.137   7.522  20.018  0.00  0.00    -0.190 NA
ATOM      6  N   UNL     1      17.295   5.834  18.997  0.00  0.00    -0.056 NA
ATOM     16  C   UNL     1      15.425   7.000  19.051  0.00  0.00    +0.245 A 
ATOM     19  C   UNL     1      17.276   6.775  19.947  0.00  0.00    +0.202 A 
ENDROOT
BRANCH  19  20
ATOM      3  O   UNL     1      23.623   3.592  22.179  0.00  0.00    -0.377 OA
ATOM      7  N   UNL     1      21.429   5.330  21.935  0.00  0.00    -0.311 N 
ATOM      8  N   UNL     1      20.526   7.422  22.575  0.00  0.00    -0.240 NA
ATOM     20  C   UNL     1      18.378   6.993  20.838  0.00  0.00    +0.027 A 
ATOM     21  C   UNL     1      22.210   4.952  20.752  0.00  0.00    +0.134 C 
ATOM     22  C   UNL     1      22.132   5.198  23.218  0.00  0.00    +0.134 C 
ATOM     23  C   UNL     1      20.426   6.299  21.828  0.00  0.00    +0.122 A 
ATOM     24  C   UNL     1      19.382   6.040  20.955  0.00  0.00    +0.055 A 
ATOM     25  C   UNL     1      22.857   3.589  20.975  0.00  0.00    +0.178 C 
ATOM     26  C   UNL     1      22.783   3.822  23.310  0.00  0.00    +0.178 C 
ATOM     27  C   UNL     1      18.446   8.162  21.591  0.00  0.00    +0.031 A 
ATOM     28  C   UNL     1      19.531   8.327  22.436  0.00  0.00    +0.113 A 
ENDBRANCH  19  20
BRANCH  16  10
ATOM      4  N   UNL     1      13.430   8.453  19.374  0.00  0.00    -0.288 NA
ATOM     10  C   UNL     1      14.033   7.364  18.580  0.00  0.00    +0.146 C 
ATOM     11  C   UNL     1      12.517   9.163  18.479  0.00  0.00    +0.085 C 
ATOM     12  C   UNL     1      14.014   7.883  17.129  0.00  0.00    +0.030 C 
ATOM     13  C   UNL     1      13.328   9.239  17.200  0.00  0.00    +0.017 C 
BRANCH   4   9
ATOM      1  O   UNL     1      10.318   7.237  21.916  0.00  0.00    -0.380 OA
ATOM      9  C   UNL     1      12.759   7.980  20.582  0.00  0.00    +0.062 C 
ATOM     14  C   UNL     1      12.066   6.636  20.338  0.00  0.00    +0.047 C 
ATOM     15  C   UNL     1      11.739   9.015  21.064  0.00  0.00    +0.047 C 
ATOM     17  C   UNL     1      11.260   6.224  21.566  0.00  0.00    +0.161 C 
ATOM     18  C   UNL     1      10.952   8.472  22.252  0.00  0.00    +0.161 C 
ENDBRANCH   4   9
ENDBRANCH  16  10
TORSDOF 3
ENDMDL
MODEL 2
REMARK VINA RESULT:      -7.9      1.632      3.231
REMARK  Name = 45783299
REMARK  3 active torsions:
REMARK  status: ('A' for Active; 'I' for Inactive)
REMARK    1  A    between atoms: N_4  and  C_9
REMARK    2  A    between atoms: C_10  and  C_16
REMARK    3  A    between atoms: C_19  and  C_20
REMARK                            x       y       z     vdW  Elec       q    Type
REMARK                         _______ _______ _______ _____ _____    ______ ____
ROOT
ATOM      2  O   UNL     1      14.453   6.885  20.819  0.00  0.00    -0.336 OA
ATOM      5  N   UNL     1      15.611   8.799  20.909  0.00  0.00    -0.190 NA
ATOM      6  N   UNL     1      15.782   6.524  21.075  0.00  0.00    -0.056 NA
ATOM     16  C   UNL     1      14.440   8.241  20.736  0.00  0.00    +0.245 A 
ATOM     19  C   UNL     1      16.403   7.707  21.113  0.00  0.00    +0.202 A 
ENDROOT
BRANCH  19  20
ATOM      3  O   UNL     1      22.550   3.554  21.713  0.00  0.00    -0.377 OA
ATOM      7  N   UNL     1      20.759   5.719  21.710  0.00  0.00    -0.311 N 
ATOM      8  N   UNL     1      20.558   8.075  21.816  0.00  0.00    -0.240 NA
ATOM     20  C   UNL     1      17.811   7.831  21.353  0.00  0.00    +0.027 A 
ATOM     21  C   UNL     1      20.838   4.821  20.553  0.00  0.00    +0.134 C 
ATOM     22  C   UNL     1      21.954   5.745  22.565  0.00  0.00    +0.134 C 
ATOM     23  C   UNL     1      19.967   6.870  21.648  0.00  0.00    +0.122 A 
ATOM     24  C   UNL     1      18.612   6.697  21.417  0.00  0.00    +0.055 A 
ATOM     25  C   UNL     1      21.320   3.445  20.999  0.00  0.00    +0.178 C 
ATOM     26  C   UNL     1      22.375   4.319  22.905  0.00  0.00    +0.178 C 
ATOM     27  C   UNL     1      18.383   9.089  21.521  0.00  0.00    +0.031 A 
ATOM     28  C   UNL     1      19.748   9.156  21.747  0.00  0.00    +0.113 A 
ENDBRANCH  19  20
BRANCH  16  10
ATOM      4  N   UNL     1      12.397   8.281  19.316  0.00  0.00    -0.288 NA
ATOM     10  C   UNL     1      13.099   8.888  20.464  0.00  0.00    +0.146 C 
ATOM     11  C   UNL     1      10.966   8.439  19.574  0.00  0.00    +0.085 C 
ATOM     12  C   UNL     1      12.119   8.741  21.643  0.00  0.00    +0.030 C 
ATOM     13  C   UNL     1      10.874   8.098  21.048  0.00  0.00    +0.017 C 
BRANCH   4   9
ATOM      1  O   UNL     1      13.068   8.563  15.181  0.00  0.00    -0.380 OA
ATOM      9  C   UNL     1      12.790   8.856  18.031  0.00  0.00    +0.062 C 
ATOM     14  C   UNL     1      11.596   8.941  17.077  0.00  0.00    +0.047 C 
ATOM     15  C   UNL     1      13.909   8.025  17.396  0.00  0.00    +0.047 C 
ATOM     17  C   UNL     1      12.050   9.417  15.700  0.00  0.00    +0.161 C 
ATOM     18  C   UNL     1      14.236   8.551  16.003  0.00  0.00    +0.161 C 
ENDBRANCH   4   9
ENDBRANCH  16  10
TORSDOF 3
ENDMDL
MODEL 3
REMARK VINA RESULT:      -7.4      1.706      2.457
REMARK  Name = 45783299
REMARK  3 active torsions:
REMARK  status: ('A' for Active; 'I' for Inactive)
REMARK    1  A    between atoms: N_4  and  C_9
REMARK    2  A    between atoms: C_10  and  C_16
REMARK    3  A    between atoms: C_19  and  C_20
REMARK                            x       y       z     vdW  Elec       q    Type
REMARK                         _______ _______ _______ _____ _____    ______ ____
ROOT
ATOM      2  O   UNL     1      15.964   8.674  20.148  0.00  0.00    -0.336 OA
ATOM      5  N   UNL     1      16.505   6.544  19.720  0.00  0.00    -0.190 NA
ATOM      6  N   UNL     1      17.244   8.482  20.684  0.00  0.00    -0.056 NA
ATOM     16  C   UNL     1      15.603   7.485  19.600  0.00  0.00    +0.245 A 
ATOM     19  C   UNL     1      17.493   7.202  20.391  0.00  0.00    +0.202 A 
ENDROOT
BRANCH  19  20
ATOM      3  O   UNL     1      23.000   7.636  25.379  0.00  0.00    -0.377 OA
ATOM      7  N   UNL     1      21.414   6.883  23.186  0.00  0.00    -0.311 N 
ATOM      8  N   UNL     1      21.105   5.282  21.470  0.00  0.00    -0.240 NA
ATOM     20  C   UNL     1      18.718   6.552  20.757  0.00  0.00    +0.027 A 
ATOM     21  C   UNL     1      20.831   6.964  24.529  0.00  0.00    +0.134 C 
ATOM     22  C   UNL     1      22.871   6.698  23.146  0.00  0.00    +0.134 C 
ATOM     23  C   UNL     1      20.656   6.377  22.124  0.00  0.00    +0.122 A 
ATOM     24  C   UNL     1      19.482   7.042  21.809  0.00  0.00    +0.055 A 
ATOM     25  C   UNL     1      21.612   7.965  25.372  0.00  0.00    +0.178 C 
ATOM     26  C   UNL     1      23.544   7.715  24.062  0.00  0.00    +0.178 C 
ATOM     27  C   UNL     1      19.147   5.426  20.059  0.00  0.00    +0.031 A 
ATOM     28  C   UNL     1      20.336   4.833  20.452  0.00  0.00    +0.113 A 
ENDBRANCH  19  20
BRANCH  16  10
ATOM      4  N   UNL     1      13.308   8.439  19.484  0.00  0.00    -0.288 NA
ATOM     10  C   UNL     1      14.240   7.430  18.944  0.00  0.00    +0.146 C 
ATOM     11  C   UNL     1      12.385   8.774  18.399  0.00  0.00    +0.085 C 
ATOM     12  C   UNL     1      14.297   7.720  17.432  0.00  0.00    +0.030 C 
ATOM     13  C   UNL     1      13.320   8.866  17.209  0.00  0.00    +0.017 C 
BRANCH   4   9
ATOM      1  O   UNL     1      10.155   7.150  21.937  0.00  0.00    -0.380 OA
ATOM      9  C   UNL     1      12.606   7.991  20.684  0.00  0.00    +0.062 C 
ATOM     14  C   UNL     1      12.024   6.587  20.491  0.00  0.00    +0.047 C 
ATOM     15  C   UNL     1      11.490   8.974  21.047  0.00  0.00    +0.047 C 
ATOM     17  C   UNL     1      11.184   6.190  21.700  0.00  0.00    +0.161 C 
ATOM     18  C   UNL     1      10.679   8.446  22.225  0.00  0.00    +0.161 C 
ENDBRANCH   4   9
ENDBRANCH  16  10
TORSDOF 3
ENDMDL
MODEL 4
REMARK VINA RESULT:      -7.3      2.459      3.911
REMARK  Name = 45783299
REMARK  3 active torsions:
REMARK  status: ('A' for Active; 'I' for Inactive)
REMARK    1  A    between atoms: N_4  and  C_9
REMARK    2  A    between atoms: C_10  and  C_16
REMARK    3  A    between atoms: C_19  and  C_20
REMARK                            x       y       z     vdW  Elec       q    Type
REMARK                         _______ _______ _______ _____ _____    ______ ____
ROOT
ATOM      2  O   UNL     1      16.184   5.996  18.784  0.00  0.00    -0.336 OA
ATOM      5  N   UNL     1      16.172   7.772  20.148  0.00  0.00    -0.190 NA
ATOM      6  N   UNL     1      17.422   5.992  19.438  0.00  0.00    -0.056 NA
ATOM     16  C   UNL     1      15.510   7.076  19.259  0.00  0.00    +0.245 A 
ATOM     19  C   UNL     1      17.339   7.069  20.225  0.00  0.00    +0.202 A 
ENDROOT
BRANCH  19  20
ATOM      3  O   UNL     1      20.416  13.179  23.158  0.00  0.00    -0.377 OA
ATOM      7  N   UNL     1      19.900  10.516  22.428  0.00  0.00    -0.311 N 
ATOM      8  N   UNL     1      20.479   8.251  22.802  0.00  0.00    -0.240 NA
ATOM     20  C   UNL     1      18.404   7.470  21.098  0.00  0.00    +0.027 A 
ATOM     21  C   UNL     1      18.842  11.338  23.023  0.00  0.00    +0.134 C 
ATOM     22  C   UNL     1      21.272  10.954  22.718  0.00  0.00    +0.134 C 
ATOM     23  C   UNL     1      19.677   9.155  22.193  0.00  0.00    +0.122 A 
ATOM     24  C   UNL     1      18.638   8.819  21.341  0.00  0.00    +0.055 A 
ATOM     25  C   UNL     1      19.105  12.811  22.728  0.00  0.00    +0.178 C 
ATOM     26  C   UNL     1      21.406  12.446  22.438  0.00  0.00    +0.178 C 
ATOM     27  C   UNL     1      19.208   6.511  21.706  0.00  0.00    +0.031 A 
ATOM     28  C   UNL     1      20.222   6.949  22.542  0.00  0.00    +0.113 A 
ENDBRANCH  19  20
BRANCH  16  10
ATOM      4  N   UNL     1      13.404   8.395  19.391  0.00  0.00    -0.288 NA
ATOM     10  C   UNL     1      14.121   7.304  18.701  0.00  0.00    +0.146 C 
ATOM     11  C   UNL     1      12.490   8.976  18.408  0.00  0.00    +0.085 C 
ATOM     12  C   UNL     1      14.138   7.723  17.219  0.00  0.00    +0.030 C 
ATOM     13  C   UNL     1      13.356   9.027  17.165  0.00  0.00    +0.017 C 
BRANCH   4   9
ATOM      1  O   UNL     1      10.243   7.231  21.896  0.00  0.00    -0.380 OA
ATOM      9  C   UNL     1      12.708   7.955  20.597  0.00  0.00    +0.062 C 
ATOM     14  C   UNL     1      12.033   6.597  20.380  0.00  0.00    +0.047 C 
ATOM     15  C   UNL     1      11.668   8.995  21.021  0.00  0.00    +0.047 C 
ATOM     17  C   UNL     1      11.202   6.216  21.601  0.00  0.00    +0.161 C 
ATOM     18  C   UNL     1      10.857   8.482  22.206  0.00  0.00    +0.161 C 
ENDBRANCH   4   9
ENDBRANCH  16  10
TORSDOF 3
ENDMDL
MODEL 5
REMARK VINA RESULT:      -7.1      2.309      4.021
REMARK  Name = 45783299
REMARK  3 active torsions:
REMARK  status: ('A' for Active; 'I' for Inactive)
REMARK    1  A    between atoms: N_4  and  C_9
REMARK    2  A    between atoms: C_10  and  C_16
REMARK    3  A    between atoms: C_19  and  C_20
REMARK                            x       y       z     vdW  Elec       q    Type
REMARK                         _______ _______ _______ _____ _____    ______ ____
ROOT
ATOM      2  O   UNL     1      16.172   6.125  18.707  0.00  0.00    -0.336 OA
ATOM      5  N   UNL     1      16.964   7.058  20.582  0.00  0.00    -0.190 NA
ATOM      6  N   UNL     1      17.453   5.593  18.894  0.00  0.00    -0.056 NA
ATOM     16  C   UNL     1      15.962   6.978  19.744  0.00  0.00    +0.245 A 
ATOM     19  C   UNL     1      17.856   6.192  20.020  0.00  0.00    +0.202 A 
ENDROOT
BRANCH  19  20
ATOM      3  O   UNL     1      22.280   8.653  25.476  0.00  0.00    -0.377 OA
ATOM      7  N   UNL     1      21.278   7.264  23.248  0.00  0.00    -0.311 N 
ATOM      8  N   UNL     1      21.646   5.467  21.751  0.00  0.00    -0.240 NA
ATOM     20  C   UNL     1      19.141   5.947  20.606  0.00  0.00    +0.027 A 
ATOM     21  C   UNL     1      20.506   7.322  24.493  0.00  0.00    +0.134 C 
ATOM     22  C   UNL     1      22.723   7.485  23.397  0.00  0.00    +0.134 C 
ATOM     23  C   UNL     1      20.839   6.459  22.191  0.00  0.00    +0.122 A 
ATOM     24  C   UNL     1      19.591   6.737  21.658  0.00  0.00    +0.055 A 
ATOM     25  C   UNL     1      20.870   8.584  25.268  0.00  0.00    +0.178 C 
ATOM     26  C   UNL     1      22.969   8.739  24.229  0.00  0.00    +0.178 C 
ATOM     27  C   UNL     1      19.943   4.916  20.126  0.00  0.00    +0.031 A 
ATOM     28  C   UNL     1      21.176   4.719  20.728  0.00  0.00    +0.113 A 
ENDBRANCH  19  20
BRANCH  16  10
ATOM      4  N   UNL     1      13.981   7.744  18.447  0.00  0.00    -0.288 NA
ATOM     10  C   UNL     1      14.626   7.690  19.773  0.00  0.00    +0.146 C 
ATOM     11  C   UNL     1      12.539   7.768  18.688  0.00  0.00    +0.085 C 
ATOM     12  C   UNL     1      13.599   6.986  20.680  0.00  0.00    +0.030 C 
ATOM     13  C   UNL     1      12.388   6.739  19.791  0.00  0.00    +0.017 C 
BRANCH   4   9
ATOM      1  O   UNL     1      13.824  11.410  16.408  0.00  0.00    -0.380 OA
ATOM      9  C   UNL     1      14.422   8.877  17.637  0.00  0.00    +0.062 C 
ATOM     14  C   UNL     1      14.359  10.183  18.436  0.00  0.00    +0.047 C 
ATOM     15  C   UNL     1      13.566   8.994  16.373  0.00  0.00    +0.047 C 
ATOM     17  C   UNL     1      14.694  11.370  17.538  0.00  0.00    +0.161 C 
ATOM     18  C   UNL     1      13.944  10.246  15.590  0.00  0.00    +0.161 C 
ENDBRANCH   4   9
ENDBRANCH  16  10
TORSDOF 3
ENDMDL
MODEL 6
REMARK VINA RESULT:      -7.1     27.469     29.635
REMARK  Name = 45783299
REMARK  3 active torsions:
REMARK  status: ('A' for Active; 'I' for Inactive)
REMARK    1  A    between atoms: N_4  and  C_9
REMARK    2  A    between atoms: C_10  and  C_16
REMARK    3  A    between atoms: C_19  and  C_20
REMARK                            x       y       z     vdW  Elec       q    Type
REMARK                         _______ _______ _______ _____ _____    ______ ____
ROOT
ATOM      2  O   UNL     1      -4.334 -11.442  17.076  0.00  0.00    -0.336 OA
ATOM      5  N   UNL     1      -5.153 -10.056  15.519  0.00  0.00    -0.190 NA
ATOM      6  N   UNL     1      -3.531 -11.613  15.943  0.00  0.00    -0.056 NA
ATOM     16  C   UNL     1      -5.264 -10.509  16.742  0.00  0.00    +0.245 A 
ATOM     19  C   UNL     1      -4.076 -10.762  15.068  0.00  0.00    +0.202 A 
ENDROOT
BRANCH  19  20
ATOM      3  O   UNL     1      -6.351  -9.010   8.201  0.00  0.00    -0.377 OA
ATOM      7  N   UNL     1      -4.780  -9.806  10.390  0.00  0.00    -0.311 N 
ATOM      8  N   UNL     1      -2.584 -10.267  11.141  0.00  0.00    -0.240 NA
ATOM     20  C   UNL     1      -3.571 -10.595  13.736  0.00  0.00    +0.027 A 
ATOM     21  C   UNL     1      -5.568  -8.570  10.454  0.00  0.00    +0.134 C 
ATOM     22  C   UNL     1      -4.456 -10.272   9.035  0.00  0.00    +0.134 C 
ATOM     23  C   UNL     1      -3.898 -10.125  11.428  0.00  0.00    +0.122 A 
ATOM     24  C   UNL     1      -4.436 -10.277  12.695  0.00  0.00    +0.055 A 
ATOM     25  C   UNL     1      -6.771  -8.676   9.523  0.00  0.00    +0.178 C 
ATOM     26  C   UNL     1      -5.718 -10.289   8.180  0.00  0.00    +0.178 C 
ATOM     27  C   UNL     1      -2.212 -10.750  13.480  0.00  0.00    +0.031 A 
ATOM     28  C   UNL     1      -1.773 -10.576  12.178  0.00  0.00    +0.113 A 
ENDBRANCH  19  20
BRANCH  16  10
ATOM      4  N   UNL     1      -7.656 -10.455  17.427  0.00  0.00    -0.288 NA
ATOM     10  C   UNL     1      -6.267 -10.141  17.815  0.00  0.00    +0.146 C 
ATOM     11  C   UNL     1      -8.379 -10.737  18.667  0.00  0.00    +0.085 C 
ATOM     12  C   UNL     1      -6.043 -10.915  19.128  0.00  0.00    +0.030 C 
ATOM     13  C   UNL     1      -7.378 -11.582  19.429  0.00  0.00    +0.017 C 
BRANCH   4   9
ATOM      1  O   UNL     1     -10.678  -8.275  15.492  0.00  0.00    -0.380 OA
ATOM      9  C   UNL     1      -8.291  -9.393  16.650  0.00  0.00    +0.062 C 
ATOM     14  C   UNL     1      -9.338  -8.649  17.484  0.00  0.00    +0.047 C 
ATOM     15  C   UNL     1      -8.941  -9.971  15.390  0.00  0.00    +0.047 C 
ATOM     17  C   UNL     1     -10.083  -7.637  16.621  0.00  0.00    +0.161 C 
ATOM     18  C   UNL     1      -9.707  -8.886  14.642  0.00  0.00    +0.161 C 
ENDBRANCH   4   9
ENDBRANCH  16  10
TORSDOF 3
ENDMDL
MODEL 7
REMARK VINA RESULT:      -7.0      1.661      3.112
REMARK  Name = 45783299
REMARK  3 active torsions:
REMARK  status: ('A' for Active; 'I' for Inactive)
REMARK    1  A    between atoms: N_4  and  C_9
REMARK    2  A    between atoms: C_10  and  C_16
REMARK    3  A    between atoms: C_19  and  C_20
REMARK                            x       y       z     vdW  Elec       q    Type
REMARK                         _______ _______ _______ _____ _____    ______ ____
ROOT
ATOM      2  O   UNL     1      14.625   6.899  20.472  0.00  0.00    -0.336 OA
ATOM      5  N   UNL     1      15.661   8.725  21.251  0.00  0.00    -0.190 NA
ATOM      6  N   UNL     1      15.973   6.548  20.616  0.00  0.00    -0.056 NA
ATOM     16  C   UNL     1      14.528   8.195  20.866  0.00  0.00    +0.245 A 
ATOM     19  C   UNL     1      16.519   7.678  21.080  0.00  0.00    +0.202 A 
ENDROOT
BRANCH  19  20
ATOM      3  O   UNL     1      22.629   3.493  21.825  0.00  0.00    -0.377 OA
ATOM      7  N   UNL     1      20.843   5.662  21.805  0.00  0.00    -0.311 N 
ATOM      8  N   UNL     1      20.642   8.015  21.964  0.00  0.00    -0.240 NA
ATOM     20  C   UNL     1      17.917   7.792  21.381  0.00  0.00    +0.027 A 
ATOM     21  C   UNL     1      20.969   4.795  20.629  0.00  0.00    +0.134 C 
ATOM     22  C   UNL     1      22.001   5.662  22.709  0.00  0.00    +0.134 C 
ATOM     23  C   UNL     1      20.056   6.817  21.740  0.00  0.00    +0.122 A 
ATOM     24  C   UNL     1      18.712   6.653  21.448  0.00  0.00    +0.055 A 
ATOM     25  C   UNL     1      21.429   3.406  21.058  0.00  0.00    +0.178 C 
ATOM     26  C   UNL     1      22.406   4.227  23.028  0.00  0.00    +0.178 C 
ATOM     27  C   UNL     1      18.483   9.043  21.606  0.00  0.00    +0.031 A 
ATOM     28  C   UNL     1      19.838   9.100  21.890  0.00  0.00    +0.113 A 
ENDBRANCH  19  20
BRANCH  16  10
ATOM      4  N   UNL     1      12.437   8.500  19.552  0.00  0.00    -0.288 NA
ATOM     10  C   UNL     1      13.149   8.818  20.805  0.00  0.00    +0.146 C 
ATOM     11  C   UNL     1      11.010   8.506  19.873  0.00  0.00    +0.085 C 
ATOM     12  C   UNL     1      12.219   8.311  21.923  0.00  0.00    +0.030 C 
ATOM     13  C   UNL     1      10.985   7.783  21.205  0.00  0.00    +0.017 C 
BRANCH   4   9
ATOM      1  O   UNL     1      14.673  11.124  17.156  0.00  0.00    -0.380 OA
ATOM      9  C   UNL     1      12.758   9.415  18.459  0.00  0.00    +0.062 C 
ATOM     14  C   UNL     1      13.897   8.864  17.595  0.00  0.00    +0.047 C 
ATOM     15  C   UNL     1      13.138  10.792  19.010  0.00  0.00    +0.047 C 
ATOM     17  C   UNL     1      14.308   9.888  16.543  0.00  0.00    +0.161 C 
ATOM     18  C   UNL     1      13.591  11.710  17.881  0.00  0.00    +0.161 C 
ENDBRANCH   4   9
ENDBRANCH  16  10
TORSDOF 3
ENDMDL
MODEL 8
REMARK VINA RESULT:      -6.8      1.801      3.170
REMARK  Name = 45783299
REMARK  3 active torsions:
REMARK  status: ('A' for Active; 'I' for Inactive)
REMARK    1  A    between atoms: N_4  and  C_9
REMARK    2  A    between atoms: C_10  and  C_16
REMARK    3  A    between atoms: C_19  and  C_20
REMARK                            x       y       z     vdW  Elec       q    Type
REMARK                         _______ _______ _______ _____ _____    ______ ____
ROOT
ATOM      2  O   UNL     1      16.344   6.417  19.364  0.00  0.00    -0.336 OA
ATOM      5  N   UNL     1      16.755   7.688  21.162  0.00  0.00    -0.190 NA
ATOM      6  N   UNL     1      17.650   6.111  19.766  0.00  0.00    -0.056 NA
ATOM     16  C   UNL     1      15.890   7.353  20.239  0.00  0.00    +0.245 A 
ATOM     19  C   UNL     1      17.819   6.900  20.832  0.00  0.00    +0.202 A 
ENDROOT
BRANCH  19  20
ATOM      3  O   UNL     1      23.781   2.701  22.324  0.00  0.00    -0.377 OA
ATOM      7  N   UNL     1      21.886   4.776  22.327  0.00  0.00    -0.311 N 
ATOM      8  N   UNL     1      21.417   6.979  23.054  0.00  0.00    -0.240 NA
ATOM     20  C   UNL     1      19.039   6.926  21.586  0.00  0.00    +0.027 A 
ATOM     21  C   UNL     1      22.450   4.291  21.063  0.00  0.00    +0.134 C 
ATOM     22  C   UNL     1      22.704   4.516  23.519  0.00  0.00    +0.134 C 
ATOM     23  C   UNL     1      21.049   5.897  22.332  0.00  0.00    +0.122 A 
ATOM     24  C   UNL     1      19.881   5.821  21.590  0.00  0.00    +0.055 A 
ATOM     25  C   UNL     1      22.889   2.839  21.218  0.00  0.00    +0.178 C 
ATOM     26  C   UNL     1      23.128   3.052  23.544  0.00  0.00    +0.178 C 
ATOM     27  C   UNL     1      19.384   8.059  22.317  0.00  0.00    +0.031 A 
ATOM     28  C   UNL     1      20.574   8.035  23.027  0.00  0.00    +0.113 A 
ENDBRANCH  19  20
BRANCH  16  10
ATOM      4  N   UNL     1      14.048   7.743  18.611  0.00  0.00    -0.288 NA
ATOM     10  C   UNL     1      14.479   7.856  20.018  0.00  0.00    +0.146 C 
ATOM     11  C   UNL     1      12.597   7.561  18.635  0.00  0.00    +0.085 C 
ATOM     12  C   UNL     1      13.432   7.052  20.813  0.00  0.00    +0.030 C 
ATOM     13  C   UNL     1      12.423   6.579  19.777  0.00  0.00    +0.017 C 
BRANCH   4   9
ATOM      1  O   UNL     1      13.687  11.138  16.169  0.00  0.00    -0.380 OA
ATOM      9  C   UNL     1      14.446   8.886  17.794  0.00  0.00    +0.062 C 
ATOM     14  C   UNL     1      13.935  10.199  18.396  0.00  0.00    +0.047 C 
ATOM     15  C   UNL     1      13.921   8.727  16.364  0.00  0.00    +0.047 C 
ATOM     17  C   UNL     1      14.242  11.366  17.463  0.00  0.00    +0.161 C 
ATOM     18  C   UNL     1      14.229   9.974  15.543  0.00  0.00    +0.161 C 
ENDBRANCH   4   9
ENDBRANCH  16  10
TORSDOF 3
ENDMDL
MODEL 9
REMARK VINA RESULT:      -6.7      4.421      7.618
REMARK  Name = 45783299
REMARK  3 active torsions:
REMARK  status: ('A' for Active; 'I' for Inactive)
REMARK    1  A    between atoms: N_4  and  C_9
REMARK    2  A    between atoms: C_10  and  C_16
REMARK    3  A    between atoms: C_19  and  C_20
REMARK                            x       y       z     vdW  Elec       q    Type
REMARK                         _______ _______ _______ _____ _____    ______ ____
ROOT
ATOM      2  O   UNL     1      12.505  10.088  14.774  0.00  0.00    -0.336 OA
ATOM      5  N   UNL     1      14.096  10.372  16.324  0.00  0.00    -0.190 NA
ATOM      6  N   UNL     1      12.321   9.065  15.712  0.00  0.00    -0.056 NA
ATOM     16  C   UNL     1      13.569  10.811  15.209  0.00  0.00    +0.245 A 
ATOM     19  C   UNL     1      13.297   9.300  16.595  0.00  0.00    +0.202 A 
ENDROOT
BRANCH  19  20
ATOM      3  O   UNL     1      18.343   7.950  21.898  0.00  0.00    -0.377 OA
ATOM      7  N   UNL     1      16.057   7.825  20.268  0.00  0.00    -0.311 N 
ATOM      8  N   UNL     1      13.897   6.890  20.019  0.00  0.00    -0.240 NA
ATOM     20  C   UNL     1      13.501   8.483  17.755  0.00  0.00    +0.027 A 
ATOM     21  C   UNL     1      16.480   9.101  20.855  0.00  0.00    +0.134 C 
ATOM     22  C   UNL     1      16.537   6.625  20.967  0.00  0.00    +0.134 C 
ATOM     23  C   UNL     1      14.846   7.744  19.573  0.00  0.00    +0.122 A 
ATOM     24  C   UNL     1      14.699   8.553  18.457  0.00  0.00    +0.055 A 
ATOM     25  C   UNL     1      17.984   9.081  21.105  0.00  0.00    +0.178 C 
ATOM     26  C   UNL     1      18.038   6.736  21.211  0.00  0.00    +0.178 C 
ATOM     27  C   UNL     1      12.500   7.616  18.184  0.00  0.00    +0.031 A 
ATOM     28  C   UNL     1      12.745   6.849  19.311  0.00  0.00    +0.113 A 
ENDBRANCH  19  20
BRANCH  16  10
ATOM      4  N   UNL     1      15.088  11.678  13.438  0.00  0.00    -0.288 NA
ATOM     10  C   UNL     1      13.976  11.995  14.356  0.00  0.00    +0.146 C 
ATOM     11  C   UNL     1      14.920  12.544  12.271  0.00  0.00    +0.085 C 
ATOM     12  C   UNL     1      12.839  12.484  13.439  0.00  0.00    +0.030 C 
ATOM     13  C   UNL     1      13.425  12.466  12.035  0.00  0.00    +0.017 C 
BRANCH   4   9
ATOM      1  O   UNL     1      18.663  13.513  14.652  0.00  0.00    -0.380 OA
ATOM      9  C   UNL     1      16.404  11.833  14.053  0.00  0.00    +0.062 C 
ATOM     14  C   UNL     1      16.373  12.885  15.166  0.00  0.00    +0.047 C 
ATOM     15  C   UNL     1      17.443  12.218  12.996  0.00  0.00    +0.047 C 
ATOM     17  C   UNL     1      17.779  13.129  15.704  0.00  0.00    +0.161 C 
ATOM     18  C   UNL     1      18.789  12.499  13.654  0.00  0.00    +0.161 C 
ENDBRANCH   4   9
ENDBRANCH  16  10
TORSDOF 3
ENDMDL
MODEL 10
REMARK VINA RESULT:      -6.7      2.514      4.335
REMARK  Name = 45783299
REMARK  3 active torsions:
REMARK  status: ('A' for Active; 'I' for Inactive)
REMARK    1  A    between atoms: N_4  and  C_9
REMARK    2  A    between atoms: C_10  and  C_16
REMARK    3  A    between atoms: C_19  and  C_20
REMARK                            x       y       z     vdW  Elec       q    Type
REMARK                         _______ _______ _______ _____ _____    ______ ____
ROOT
ATOM      2  O   UNL     1      14.420   6.594  19.994  0.00  0.00    -0.336 OA
ATOM      5  N   UNL     1      15.706   8.252  20.775  0.00  0.00    -0.190 NA
ATOM      6  N   UNL     1      15.727   6.093  20.018  0.00  0.00    -0.056 NA
ATOM     16  C   UNL     1      14.496   7.870  20.455  0.00  0.00    +0.245 A 
ATOM     19  C   UNL     1      16.427   7.130  20.490  0.00  0.00    +0.202 A 
ENDROOT
BRANCH  19  20
ATOM      3  O   UNL     1      22.007  11.087  23.424  0.00  0.00    -0.377 OA
ATOM      7  N   UNL     1      20.531   9.112  22.076  0.00  0.00    -0.311 N 
ATOM      8  N   UNL     1      20.614   6.970  21.073  0.00  0.00    -0.240 NA
ATOM     20  C   UNL     1      17.846   7.076  20.687  0.00  0.00    +0.027 A 
ATOM     21  C   UNL     1      20.162   9.512  23.438  0.00  0.00    +0.134 C 
ATOM     22  C   UNL     1      21.925   9.383  21.700  0.00  0.00    +0.134 C 
ATOM     23  C   UNL     1      19.879   8.036  21.464  0.00  0.00    +0.122 A 
ATOM     24  C   UNL     1      18.508   8.137  21.295  0.00  0.00    +0.055 A 
ATOM     25  C   UNL     1      20.613  10.946  23.695  0.00  0.00    +0.178 C 
ATOM     26  C   UNL     1      22.282  10.824  22.048  0.00  0.00    +0.178 C 
ATOM     27  C   UNL     1      18.568   5.961  20.272  0.00  0.00    +0.031 A 
ATOM     28  C   UNL     1      19.937   5.957  20.487  0.00  0.00    +0.113 A 
ENDBRANCH  19  20
BRANCH  16  10
ATOM      4  N   UNL     1      12.336   8.422  19.348  0.00  0.00    -0.288 NA
ATOM     10  C   UNL     1      13.194   8.640  20.529  0.00  0.00    +0.146 C 
ATOM     11  C   UNL     1      10.955   8.578  19.804  0.00  0.00    +0.085 C 
ATOM     12  C   UNL     1      12.323   8.219  21.728  0.00  0.00    +0.030 C 
ATOM     13  C   UNL     1      10.977   7.839  21.128  0.00  0.00    +0.017 C 
BRANCH   4   9
ATOM      1  O   UNL     1      14.634  10.625  16.611  0.00  0.00    -0.380 OA
ATOM      9  C   UNL     1      12.652   9.314  18.235  0.00  0.00    +0.062 C 
ATOM     14  C   UNL     1      13.437   8.579  17.144  0.00  0.00    +0.047 C 
ATOM     15  C   UNL     1      13.450  10.523  18.730  0.00  0.00    +0.047 C 
ATOM     17  C   UNL     1      13.872   9.554  16.055  0.00  0.00    +0.161 C 
ATOM     18  C   UNL     1      13.884  11.390  17.555  0.00  0.00    +0.161 C 
ENDBRANCH   4   9
ENDBRANCH  16  10
TORSDOF 3
ENDMDL
