MODEL 1
REMARK VINA RESULT:      -7.7      0.000      0.000
REMARK  Name = 40780134
REMARK  8 active torsions:
REMARK  status: ('A' for Active; 'I' for Inactive)
REMARK    1  A    between atoms: O_2  and  C_32
REMARK    2  A    between atoms: O_2  and  C_33
REMARK    3  A    between atoms: N_4  and  C_19
REMARK    4  A    between atoms: N_5  and  C_16
REMARK    5  A    between atoms: N_7  and  C_24
REMARK    6  A    between atoms: C_9  and  C_15
REMARK    7  A    between atoms: C_10  and  C_16
REMARK    8  A    between atoms: C_18  and  C_21
REMARK                            x       y       z     vdW  Elec       q    Type
REMARK                         _______ _______ _______ _____ _____    ______ ____
ROOT
ATOM      3  N   UNL     1      11.828  12.249  25.366  0.00  0.00    -0.297 NA
ATOM      8  C   UNL     1      11.061  13.106  23.029  0.00  0.00    +0.002 C 
ATOM      9  C   UNL     1      10.927  11.560  23.112  0.00  0.00    +0.055 C 
ATOM     10  C   UNL     1      12.858  13.156  24.794  0.00  0.00    +0.074 C 
ATOM     11  C   UNL     1      12.520  13.508  23.328  0.00  0.00    +0.024 C 
ATOM     12  C   UNL     1      10.188  13.690  24.159  0.00  0.00    +0.019 C 
ATOM     13  C   UNL     1      11.588  11.109  24.447  0.00  0.00    +0.094 C 
ATOM     14  C   UNL     1      10.566  13.017  25.491  0.00  0.00    +0.085 C 
ENDROOT
BRANCH   9  15
ATOM      4  N   UNL     1      11.111   9.408  21.780  0.00  0.00    -0.270 N 
ATOM      6  N   UNL     1      11.621   8.860  20.665  0.00  0.00    -0.171 NA
ATOM     15  C   UNL     1      11.401  10.732  21.925  0.00  0.00    +0.044 A 
ATOM     17  C   UNL     1      12.153  11.075  20.829  0.00  0.00    +0.053 A 
ATOM     18  C   UNL     1      12.257   9.882  20.088  0.00  0.00    +0.093 A 
ATOM     19  C   UNL     1      10.340   8.584  22.682  0.00  0.00    +0.172 C 
BRANCH  18  21
ATOM     21  C   UNL     1      12.953   9.702  18.841  0.00  0.00    +0.002 A 
ATOM     22  C   UNL     1      13.859  10.667  18.402  0.00  0.00    +0.010 A 
ATOM     23  C   UNL     1      12.721   8.562  18.070  0.00  0.00    +0.010 A 
ATOM     25  C   UNL     1      14.533  10.493  17.192  0.00  0.00    +0.001 A 
ATOM     26  C   UNL     1      13.395   8.387  16.861  0.00  0.00    +0.001 A 
ATOM     27  C   UNL     1      14.301   9.353  16.422  0.00  0.00    +0.000 A 
ENDBRANCH  18  21
ENDBRANCH   9  15
BRANCH  10  16
ATOM     16  C   UNL     1      14.273  12.591  24.932  0.00  0.00    +0.124 C 
BRANCH  16   5
ATOM      1  O   UNL     1      15.115  11.588  22.384  0.00  0.00    -0.253 OA
ATOM      5  N   UNL     1      14.318  11.220  24.525  0.00  0.00    -0.298 N 
ATOM      7  N   UNL     1      14.681   9.409  23.141  0.00  0.00    -0.269 N 
ATOM     20  C   UNL     1      14.744  10.801  23.252  0.00  0.00    +0.304 C 
ATOM     34  H   UNL     1      14.022  10.512  25.190  0.00  0.00    +0.150 HD
ATOM     35  H   UNL     1      14.350   8.902  23.957  0.00  0.00    +0.156 HD
BRANCH   7  24
ATOM     24  C   UNL     1      15.023   8.610  22.024  0.00  0.00    +0.035 A 
ATOM     28  C   UNL     1      14.374   7.395  21.811  0.00  0.00    +0.027 A 
ATOM     29  C   UNL     1      16.008   9.041  21.136  0.00  0.00    +0.027 A 
ATOM     30  C   UNL     1      14.710   6.608  20.709  0.00  0.00    +0.047 A 
ATOM     31  C   UNL     1      16.346   8.254  20.035  0.00  0.00    +0.047 A 
ATOM     32  C   UNL     1      15.696   7.039  19.821  0.00  0.00    +0.120 A 
BRANCH  32   2
ATOM      2  O   UNL     1      16.023   6.270  18.745  0.00  0.00    -0.495 OA
ATOM     33  C   UNL     1      17.333   5.703  18.729  0.00  0.00    +0.277 C 
ENDBRANCH  32   2
ENDBRANCH   7  24
ENDBRANCH  16   5
ENDBRANCH  10  16
TORSDOF 6
ENDMDL
MODEL 2
REMARK VINA RESULT:      -7.5     27.328     30.086
REMARK  Name = 40780134
REMARK  8 active torsions:
REMARK  status: ('A' for Active; 'I' for Inactive)
REMARK    1  A    between atoms: O_2  and  C_32
REMARK    2  A    between atoms: O_2  and  C_33
REMARK    3  A    between atoms: N_4  and  C_19
REMARK    4  A    between atoms: N_5  and  C_16
REMARK    5  A    between atoms: N_7  and  C_24
REMARK    6  A    between atoms: C_9  and  C_15
REMARK    7  A    between atoms: C_10  and  C_16
REMARK    8  A    between atoms: C_18  and  C_21
REMARK                            x       y       z     vdW  Elec       q    Type
REMARK                         _______ _______ _______ _____ _____    ______ ____
ROOT
ATOM      3  N   UNL     1      -6.155 -10.424   9.459  0.00  0.00    -0.297 NA
ATOM      8  C   UNL     1      -4.175  -9.053  10.448  0.00  0.00    +0.002 C 
ATOM      9  C   UNL     1      -4.170 -10.501  11.013  0.00  0.00    +0.055 C 
ATOM     10  C   UNL     1      -6.650  -9.125   9.984  0.00  0.00    +0.074 C 
ATOM     11  C   UNL     1      -5.533  -8.390  10.758  0.00  0.00    +0.024 C 
ATOM     12  C   UNL     1      -4.068  -9.173   8.914  0.00  0.00    +0.019 C 
ATOM     13  C   UNL     1      -5.483 -11.187  10.540  0.00  0.00    +0.094 C 
ATOM     14  C   UNL     1      -5.154 -10.137   8.404  0.00  0.00    +0.085 C 
ENDROOT
BRANCH   9  15
ATOM      4  N   UNL     1      -2.702 -10.518  13.083  0.00  0.00    -0.270 N 
ATOM      6  N   UNL     1      -2.695 -10.733  14.409  0.00  0.00    -0.171 NA
ATOM     15  C   UNL     1      -3.924 -10.690  12.503  0.00  0.00    +0.044 A 
ATOM     17  C   UNL     1      -4.777 -11.041  13.521  0.00  0.00    +0.053 A 
ATOM     18  C   UNL     1      -3.965 -11.052  14.671  0.00  0.00    +0.093 A 
ATOM     19  C   UNL     1      -1.472 -10.145  12.422  0.00  0.00    +0.172 C 
BRANCH  18  21
ATOM     21  C   UNL     1      -4.379 -11.363  16.014  0.00  0.00    +0.002 A 
ATOM     22  C   UNL     1      -4.578 -12.691  16.393  0.00  0.00    +0.010 A 
ATOM     23  C   UNL     1      -4.584 -10.337  16.937  0.00  0.00    +0.010 A 
ATOM     25  C   UNL     1      -4.981 -12.992  17.694  0.00  0.00    +0.001 A 
ATOM     26  C   UNL     1      -4.985 -10.638  18.239  0.00  0.00    +0.001 A 
ATOM     27  C   UNL     1      -5.185 -11.966  18.617  0.00  0.00    +0.000 A 
ENDBRANCH  18  21
ENDBRANCH   9  15
BRANCH  10  16
ATOM     16  C   UNL     1      -7.918  -9.282  10.826  0.00  0.00    +0.124 C 
BRANCH  16   5
ATOM      1  O   UNL     1      -9.026 -10.826  12.971  0.00  0.00    -0.253 OA
ATOM      5  N   UNL     1      -7.626  -9.143  12.220  0.00  0.00    -0.298 N 
ATOM      7  N   UNL     1      -7.735  -9.578  14.484  0.00  0.00    -0.269 N 
ATOM     20  C   UNL     1      -8.210  -9.941  13.220  0.00  0.00    +0.304 C 
ATOM     34  H   UNL     1      -6.962  -8.428  12.502  0.00  0.00    +0.150 HD
ATOM     35  H   UNL     1      -7.059  -8.820  14.516  0.00  0.00    +0.156 HD
BRANCH   7  24
ATOM     24  C   UNL     1      -8.080 -10.140  15.736  0.00  0.00    +0.035 A 
ATOM     28  C   UNL     1      -8.171 -11.524  15.878  0.00  0.00    +0.027 A 
ATOM     29  C   UNL     1      -8.328  -9.309  16.828  0.00  0.00    +0.027 A 
ATOM     30  C   UNL     1      -8.510 -12.078  17.112  0.00  0.00    +0.047 A 
ATOM     31  C   UNL     1      -8.668  -9.862  18.062  0.00  0.00    +0.047 A 
ATOM     32  C   UNL     1      -8.758 -11.246  18.204  0.00  0.00    +0.120 A 
BRANCH  32   2
ATOM      2  O   UNL     1      -9.088 -11.788  19.409  0.00  0.00    -0.495 OA
ATOM     33  C   UNL     1     -10.218 -11.233  20.082  0.00  0.00    +0.277 C 
ENDBRANCH  32   2
ENDBRANCH   7  24
ENDBRANCH  16   5
ENDBRANCH  10  16
TORSDOF 6
ENDMDL
MODEL 3
REMARK VINA RESULT:      -7.2      3.847      6.294
REMARK  Name = 40780134
REMARK  8 active torsions:
REMARK  status: ('A' for Active; 'I' for Inactive)
REMARK    1  A    between atoms: O_2  and  C_32
REMARK    2  A    between atoms: O_2  and  C_33
REMARK    3  A    between atoms: N_4  and  C_19
REMARK    4  A    between atoms: N_5  and  C_16
REMARK    5  A    between atoms: N_7  and  C_24
REMARK    6  A    between atoms: C_9  and  C_15
REMARK    7  A    between atoms: C_10  and  C_16
REMARK    8  A    between atoms: C_18  and  C_21
REMARK                            x       y       z     vdW  Elec       q    Type
REMARK                         _______ _______ _______ _____ _____    ______ ____
ROOT
ATOM      3  N   UNL     1      12.582   7.053  19.767  0.00  0.00    -0.297 NA
ATOM      8  C   UNL     1      12.870   9.641  19.769  0.00  0.00    +0.002 C 
ATOM      9  C   UNL     1      12.371   9.151  18.382  0.00  0.00    +0.055 C 
ATOM     10  C   UNL     1      13.921   7.414  20.300  0.00  0.00    +0.074 C 
ATOM     11  C   UNL     1      14.191   8.924  20.117  0.00  0.00    +0.024 C 
ATOM     12  C   UNL     1      11.821   9.189  20.806  0.00  0.00    +0.019 C 
ATOM     13  C   UNL     1      12.417   7.596  18.395  0.00  0.00    +0.094 C 
ATOM     14  C   UNL     1      11.561   7.681  20.639  0.00  0.00    +0.085 C 
ENDROOT
BRANCH   9  15
ATOM      4  N   UNL     1      12.415   9.736  15.913  0.00  0.00    -0.270 N 
ATOM      6  N   UNL     1      13.154  10.300  14.943  0.00  0.00    -0.171 NA
ATOM     15  C   UNL     1      13.020   9.737  17.136  0.00  0.00    +0.044 A 
ATOM     17  C   UNL     1      14.238  10.344  16.953  0.00  0.00    +0.053 A 
ATOM     18  C   UNL     1      14.266  10.669  15.583  0.00  0.00    +0.093 A 
ATOM     19  C   UNL     1      11.112   9.203  15.589  0.00  0.00    +0.172 C 
BRANCH  18  21
ATOM     21  C   UNL     1      15.335  11.324  14.876  0.00  0.00    +0.002 A 
ATOM     22  C   UNL     1      15.277  11.454  13.489  0.00  0.00    +0.010 A 
ATOM     23  C   UNL     1      16.430  11.828  15.578  0.00  0.00    +0.010 A 
ATOM     25  C   UNL     1      16.314  12.087  12.803  0.00  0.00    +0.001 A 
ATOM     26  C   UNL     1      17.467  12.463  14.893  0.00  0.00    +0.001 A 
ATOM     27  C   UNL     1      17.409  12.592  13.505  0.00  0.00    +0.000 A 
ENDBRANCH  18  21
ENDBRANCH   9  15
BRANCH  10  16
ATOM     16  C   UNL     1      15.038   6.558  19.699  0.00  0.00    +0.124 C 
BRANCH  16   5
ATOM      1  O   UNL     1      17.671   5.824  18.838  0.00  0.00    -0.253 OA
ATOM      5  N   UNL     1      16.254   6.716  20.436  0.00  0.00    -0.298 N 
ATOM      7  N   UNL     1      18.516   6.605  20.884  0.00  0.00    -0.269 N 
ATOM     20  C   UNL     1      17.515   6.331  19.947  0.00  0.00    +0.304 C 
ATOM     34  H   UNL     1      16.203   7.125  21.364  0.00  0.00    +0.150 HD
ATOM     35  H   UNL     1      18.217   7.028  21.759  0.00  0.00    +0.156 HD
BRANCH   7  24
ATOM     24  C   UNL     1      19.905   6.365  20.767  0.00  0.00    +0.035 A 
ATOM     28  C   UNL     1      20.805   7.427  20.839  0.00  0.00    +0.027 A 
ATOM     29  C   UNL     1      20.374   5.064  20.582  0.00  0.00    +0.027 A 
ATOM     30  C   UNL     1      22.175   7.190  20.725  0.00  0.00    +0.047 A 
ATOM     31  C   UNL     1      21.744   4.827  20.467  0.00  0.00    +0.047 A 
ATOM     32  C   UNL     1      22.644   5.890  20.539  0.00  0.00    +0.120 A 
BRANCH  32   2
ATOM      2  O   UNL     1      23.981   5.659  20.429  0.00  0.00    -0.495 OA
ATOM     33  C   UNL     1      24.385   4.328  20.107  0.00  0.00    +0.277 C 
ENDBRANCH  32   2
ENDBRANCH   7  24
ENDBRANCH  16   5
ENDBRANCH  10  16
TORSDOF 6
ENDMDL
MODEL 4
REMARK VINA RESULT:      -7.2     27.129     29.721
REMARK  Name = 40780134
REMARK  8 active torsions:
REMARK  status: ('A' for Active; 'I' for Inactive)
REMARK    1  A    between atoms: O_2  and  C_32
REMARK    2  A    between atoms: O_2  and  C_33
REMARK    3  A    between atoms: N_4  and  C_19
REMARK    4  A    between atoms: N_5  and  C_16
REMARK    5  A    between atoms: N_7  and  C_24
REMARK    6  A    between atoms: C_9  and  C_15
REMARK    7  A    between atoms: C_10  and  C_16
REMARK    8  A    between atoms: C_18  and  C_21
REMARK                            x       y       z     vdW  Elec       q    Type
REMARK                         _______ _______ _______ _____ _____    ______ ____
ROOT
ATOM      3  N   UNL     1      -6.401 -10.368  17.923  0.00  0.00    -0.297 NA
ATOM      8  C   UNL     1      -4.530 -12.057  17.268  0.00  0.00    +0.002 C 
ATOM      9  C   UNL     1      -4.258 -10.668  16.626  0.00  0.00    +0.055 C 
ATOM     10  C   UNL     1      -7.007 -11.627  17.416  0.00  0.00    +0.074 C 
ATOM     11  C   UNL     1      -5.922 -12.557  16.831  0.00  0.00    +0.024 C 
ATOM     12  C   UNL     1      -4.584 -11.838  18.795  0.00  0.00    +0.019 C 
ATOM     13  C   UNL     1      -5.509  -9.782  16.892  0.00  0.00    +0.094 C 
ATOM     14  C   UNL     1      -5.578 -10.706  19.109  0.00  0.00    +0.085 C 
ENDROOT
BRANCH   9  15
ATOM      4  N   UNL     1      -2.509 -10.628  14.787  0.00  0.00    -0.270 N 
ATOM      6  N   UNL     1      -2.332 -10.584  13.456  0.00  0.00    -0.171 NA
ATOM     15  C   UNL     1      -3.819 -10.624  15.169  0.00  0.00    +0.044 A 
ATOM     17  C   UNL     1      -4.549 -10.573  14.007  0.00  0.00    +0.053 A 
ATOM     18  C   UNL     1      -3.581 -10.550  12.985  0.00  0.00    +0.093 A 
ATOM     19  C   UNL     1      -1.353 -10.672  15.652  0.00  0.00    +0.172 C 
BRANCH  18  21
ATOM     21  C   UNL     1      -3.827 -10.496  11.568  0.00  0.00    +0.002 A 
ATOM     22  C   UNL     1      -3.634  -9.303  10.872  0.00  0.00    +0.010 A 
ATOM     23  C   UNL     1      -4.261 -11.635  10.890  0.00  0.00    +0.010 A 
ATOM     25  C   UNL     1      -3.874  -9.249   9.498  0.00  0.00    +0.001 A 
ATOM     26  C   UNL     1      -4.500 -11.582   9.516  0.00  0.00    +0.001 A 
ATOM     27  C   UNL     1      -4.307 -10.389   8.821  0.00  0.00    +0.000 A 
ENDBRANCH  18  21
ENDBRANCH   9  15
BRANCH  10  16
ATOM     16  C   UNL     1      -8.136 -11.368  16.415  0.00  0.00    +0.124 C 
BRANCH  16   5
ATOM      1  O   UNL     1      -8.939  -9.879  14.103  0.00  0.00    -0.253 OA
ATOM      5  N   UNL     1      -7.682 -11.563  15.073  0.00  0.00    -0.298 N 
ATOM      7  N   UNL     1      -7.507 -11.207  12.799  0.00  0.00    -0.269 N 
ATOM     20  C   UNL     1      -8.122 -10.790  13.983  0.00  0.00    +0.304 C 
ATOM     34  H   UNL     1      -7.008 -12.301  14.897  0.00  0.00    +0.150 HD
ATOM     35  H   UNL     1      -6.852 -11.980  12.874  0.00  0.00    +0.156 HD
BRANCH   7  24
ATOM     24  C   UNL     1      -7.686 -10.683  11.497  0.00  0.00    +0.035 A 
ATOM     28  C   UNL     1      -8.178 -11.498  10.479  0.00  0.00    +0.027 A 
ATOM     29  C   UNL     1      -7.369  -9.351  11.233  0.00  0.00    +0.027 A 
ATOM     30  C   UNL     1      -8.356 -10.981   9.195  0.00  0.00    +0.047 A 
ATOM     31  C   UNL     1      -7.546  -8.833   9.950  0.00  0.00    +0.047 A 
ATOM     32  C   UNL     1      -8.039  -9.648   8.931  0.00  0.00    +0.120 A 
BRANCH  32   2
ATOM      2  O   UNL     1      -8.214  -9.144   7.679  0.00  0.00    -0.495 OA
ATOM     33  C   UNL     1      -7.095  -9.207   6.794  0.00  0.00    +0.277 C 
ENDBRANCH  32   2
ENDBRANCH   7  24
ENDBRANCH  16   5
ENDBRANCH  10  16
TORSDOF 6
ENDMDL
MODEL 5
REMARK VINA RESULT:      -7.2      3.160      4.997
REMARK  Name = 40780134
REMARK  8 active torsions:
REMARK  status: ('A' for Active; 'I' for Inactive)
REMARK    1  A    between atoms: O_2  and  C_32
REMARK    2  A    between atoms: O_2  and  C_33
REMARK    3  A    between atoms: N_4  and  C_19
REMARK    4  A    between atoms: N_5  and  C_16
REMARK    5  A    between atoms: N_7  and  C_24
REMARK    6  A    between atoms: C_9  and  C_15
REMARK    7  A    between atoms: C_10  and  C_16
REMARK    8  A    between atoms: C_18  and  C_21
REMARK                            x       y       z     vdW  Elec       q    Type
REMARK                         _______ _______ _______ _____ _____    ______ ____
ROOT
ATOM      3  N   UNL     1      13.115   7.507  21.315  0.00  0.00    -0.297 NA
ATOM      8  C   UNL     1      11.280   8.947  20.156  0.00  0.00    +0.002 C 
ATOM      9  C   UNL     1      12.168   8.240  19.094  0.00  0.00    +0.055 C 
ATOM     10  C   UNL     1      13.106   8.878  21.890  0.00  0.00    +0.074 C 
ATOM     11  C   UNL     1      12.173   9.803  21.078  0.00  0.00    +0.024 C 
ATOM     12  C   UNL     1      10.659   7.836  21.028  0.00  0.00    +0.019 C 
ATOM     13  C   UNL     1      13.351   7.571  19.851  0.00  0.00    +0.094 C 
ATOM     14  C   UNL     1      11.777   6.911  21.542  0.00  0.00    +0.085 C 
ENDROOT
BRANCH   9  15
ATOM      4  N   UNL     1      11.909   9.161  16.744  0.00  0.00    -0.270 N 
ATOM      6  N   UNL     1      12.496   9.920  15.803  0.00  0.00    -0.171 NA
ATOM     15  C   UNL     1      12.635   9.050  17.893  0.00  0.00    +0.044 A 
ATOM     17  C   UNL     1      13.776   9.787  17.690  0.00  0.00    +0.053 A 
ATOM     18  C   UNL     1      13.636  10.299  16.386  0.00  0.00    +0.093 A 
ATOM     19  C   UNL     1      10.626   8.559  16.466  0.00  0.00    +0.172 C 
BRANCH  18  21
ATOM     21  C   UNL     1      14.570  11.142  15.688  0.00  0.00    +0.002 A 
ATOM     22  C   UNL     1      14.585  12.515  15.928  0.00  0.00    +0.010 A 
ATOM     23  C   UNL     1      15.460  10.585  14.768  0.00  0.00    +0.010 A 
ATOM     25  C   UNL     1      15.490  13.333  15.250  0.00  0.00    +0.001 A 
ATOM     26  C   UNL     1      16.366  11.402  14.091  0.00  0.00    +0.001 A 
ATOM     27  C   UNL     1      16.380  12.776  14.331  0.00  0.00    +0.000 A 
ENDBRANCH  18  21
ENDBRANCH   9  15
BRANCH  10  16
ATOM     16  C   UNL     1      14.514   9.463  22.022  0.00  0.00    +0.124 C 
BRANCH  16   5
ATOM      1  O   UNL     1      17.012   9.127  20.658  0.00  0.00    -0.253 OA
ATOM      5  N   UNL     1      15.478   8.428  22.243  0.00  0.00    -0.298 N 
ATOM      7  N   UNL     1      17.425   7.220  21.963  0.00  0.00    -0.269 N 
ATOM     20  C   UNL     1      16.687   8.327  21.532  0.00  0.00    +0.304 C 
ATOM     34  H   UNL     1      15.276   7.728  22.950  0.00  0.00    +0.150 HD
ATOM     35  H   UNL     1      17.011   6.657  22.701  0.00  0.00    +0.156 HD
BRANCH   7  24
ATOM     24  C   UNL     1      18.686   6.782  21.496  0.00  0.00    +0.035 A 
ATOM     28  C   UNL     1      18.762   5.825  20.486  0.00  0.00    +0.027 A 
ATOM     29  C   UNL     1      19.854   7.310  22.047  0.00  0.00    +0.027 A 
ATOM     30  C   UNL     1      20.006   5.394  20.024  0.00  0.00    +0.047 A 
ATOM     31  C   UNL     1      21.098   6.879  21.586  0.00  0.00    +0.047 A 
ATOM     32  C   UNL     1      21.174   5.922  20.575  0.00  0.00    +0.120 A 
BRANCH  32   2
ATOM      2  O   UNL     1      22.388   5.502  20.123  0.00  0.00    -0.495 OA
ATOM     33  C   UNL     1      23.039   4.477  20.874  0.00  0.00    +0.277 C 
ENDBRANCH  32   2
ENDBRANCH   7  24
ENDBRANCH  16   5
ENDBRANCH  10  16
TORSDOF 6
ENDMDL
MODEL 6
REMARK VINA RESULT:      -7.1     27.198     30.294
REMARK  Name = 40780134
REMARK  8 active torsions:
REMARK  status: ('A' for Active; 'I' for Inactive)
REMARK    1  A    between atoms: O_2  and  C_32
REMARK    2  A    between atoms: O_2  and  C_33
REMARK    3  A    between atoms: N_4  and  C_19
REMARK    4  A    between atoms: N_5  and  C_16
REMARK    5  A    between atoms: N_7  and  C_24
REMARK    6  A    between atoms: C_9  and  C_15
REMARK    7  A    between atoms: C_10  and  C_16
REMARK    8  A    between atoms: C_18  and  C_21
REMARK                            x       y       z     vdW  Elec       q    Type
REMARK                         _______ _______ _______ _____ _____    ______ ____
ROOT
ATOM      3  N   UNL     1     -18.153   4.662  23.881  0.00  0.00    -0.297 NA
ATOM      8  C   UNL     1     -17.806   2.081  23.842  0.00  0.00    +0.002 C 
ATOM      9  C   UNL     1     -18.389   2.530  25.210  0.00  0.00    +0.055 C 
ATOM     10  C   UNL     1     -16.780   4.341  23.413  0.00  0.00    +0.074 C 
ATOM     11  C   UNL     1     -16.485   2.834  23.579  0.00  0.00    +0.024 C 
ATOM     12  C   UNL     1     -18.809   2.532  22.760  0.00  0.00    +0.019 C 
ATOM     13  C   UNL     1     -18.377   4.086  25.231  0.00  0.00    +0.094 C 
ATOM     14  C   UNL     1     -19.112   4.030  22.944  0.00  0.00    +0.085 C 
ENDROOT
BRANCH   9  15
ATOM      4  N   UNL     1     -18.256   0.782  27.044  0.00  0.00    -0.270 N 
ATOM      6  N   UNL     1     -17.596   0.422  28.158  0.00  0.00    -0.171 NA
ATOM     15  C   UNL     1     -17.793   1.932  26.477  0.00  0.00    +0.044 A 
ATOM     17  C   UNL     1     -16.759   2.355  27.275  0.00  0.00    +0.053 A 
ATOM     18  C   UNL     1     -16.683   1.387  28.294  0.00  0.00    +0.093 A 
ATOM     19  C   UNL     1     -19.345  -0.042  26.572  0.00  0.00    +0.172 C 
BRANCH  18  21
ATOM     21  C   UNL     1     -15.756   1.367  29.395  0.00  0.00    +0.002 A 
ATOM     22  C   UNL     1     -14.881   2.435  29.589  0.00  0.00    +0.010 A 
ATOM     23  C   UNL     1     -15.731   0.278  30.267  0.00  0.00    +0.010 A 
ATOM     25  C   UNL     1     -13.981   2.415  30.656  0.00  0.00    +0.001 A 
ATOM     26  C   UNL     1     -14.833   0.259  31.335  0.00  0.00    +0.001 A 
ATOM     27  C   UNL     1     -13.957   1.327  31.528  0.00  0.00    +0.000 A 
ENDBRANCH  18  21
ENDBRANCH   9  15
BRANCH  10  16
ATOM     16  C   UNL     1     -15.716   5.208  24.090  0.00  0.00    +0.124 C 
BRANCH  16   5
ATOM      1  O   UNL     1     -13.779   5.007  21.988  0.00  0.00    -0.253 OA
ATOM      5  N   UNL     1     -15.285   6.259  23.220  0.00  0.00    -0.298 N 
ATOM      7  N   UNL     1     -14.107   7.284  21.520  0.00  0.00    -0.269 N 
ATOM     20  C   UNL     1     -14.326   6.086  22.206  0.00  0.00    +0.304 C 
ATOM     34  H   UNL     1     -15.692   7.181  23.344  0.00  0.00    +0.150 HD
ATOM     35  H   UNL     1     -14.645   8.090  21.828  0.00  0.00    +0.156 HD
BRANCH   7  24
ATOM     24  C   UNL     1     -13.223   7.518  20.440  0.00  0.00    +0.035 A 
ATOM     28  C   UNL     1     -13.730   7.803  19.173  0.00  0.00    +0.027 A 
ATOM     29  C   UNL     1     -11.845   7.464  20.645  0.00  0.00    +0.027 A 
ATOM     30  C   UNL     1     -12.858   8.035  18.109  0.00  0.00    +0.047 A 
ATOM     31  C   UNL     1     -10.973   7.695  19.581  0.00  0.00    +0.047 A 
ATOM     32  C   UNL     1     -11.479   7.981  18.314  0.00  0.00    +0.120 A 
BRANCH  32   2
ATOM      2  O   UNL     1     -10.629   8.209  17.275  0.00  0.00    -0.495 OA
ATOM     33  C   UNL     1     -10.063   9.516  17.176  0.00  0.00    +0.277 C 
ENDBRANCH  32   2
ENDBRANCH   7  24
ENDBRANCH  16   5
ENDBRANCH  10  16
TORSDOF 6
ENDMDL
MODEL 7
REMARK VINA RESULT:      -7.0     15.716     20.082
REMARK  Name = 40780134
REMARK  8 active torsions:
REMARK  status: ('A' for Active; 'I' for Inactive)
REMARK    1  A    between atoms: O_2  and  C_32
REMARK    2  A    between atoms: O_2  and  C_33
REMARK    3  A    between atoms: N_4  and  C_19
REMARK    4  A    between atoms: N_5  and  C_16
REMARK    5  A    between atoms: N_7  and  C_24
REMARK    6  A    between atoms: C_9  and  C_15
REMARK    7  A    between atoms: C_10  and  C_16
REMARK    8  A    between atoms: C_18  and  C_21
REMARK                            x       y       z     vdW  Elec       q    Type
REMARK                         _______ _______ _______ _____ _____    ______ ____
ROOT
ATOM      3  N   UNL     1      14.027   5.043  -1.006  0.00  0.00    -0.297 NA
ATOM      8  C   UNL     1      12.427   3.421   0.255  0.00  0.00    +0.002 C 
ATOM      9  C   UNL     1      11.744   4.800   0.040  0.00  0.00    +0.055 C 
ATOM     10  C   UNL     1      14.735   4.423   0.144  0.00  0.00    +0.074 C 
ATOM     11  C   UNL     1      13.750   3.621   1.023  0.00  0.00    +0.024 C 
ATOM     12  C   UNL     1      12.790   2.881  -1.144  0.00  0.00    +0.019 C 
ATOM     13  C   UNL     1      12.821   5.767  -0.530  0.00  0.00    +0.094 C 
ATOM     14  C   UNL     1      13.586   3.954  -1.910  0.00  0.00    +0.085 C 
ENDROOT
BRANCH   9  15
ATOM      4  N   UNL     1      10.112   6.456   1.058  0.00  0.00    -0.270 N 
ATOM      6  N   UNL     1       9.537   6.849   2.206  0.00  0.00    -0.171 NA
ATOM     15  C   UNL     1      10.977   5.412   1.204  0.00  0.00    +0.044 A 
ATOM     17  C   UNL     1      10.968   5.101   2.542  0.00  0.00    +0.053 A 
ATOM     18  C   UNL     1      10.063   6.018   3.109  0.00  0.00    +0.093 A 
ATOM     19  C   UNL     1       9.780   7.142  -0.169  0.00  0.00    +0.172 C 
BRANCH  18  21
ATOM     21  C   UNL     1       9.695   6.117   4.497  0.00  0.00    +0.002 A 
ATOM     22  C   UNL     1      10.170   5.179   5.413  0.00  0.00    +0.010 A 
ATOM     23  C   UNL     1       8.859   7.149   4.926  0.00  0.00    +0.010 A 
ATOM     25  C   UNL     1       9.812   5.274   6.759  0.00  0.00    +0.001 A 
ATOM     26  C   UNL     1       8.502   7.244   6.271  0.00  0.00    +0.001 A 
ATOM     27  C   UNL     1       8.978   6.306   7.187  0.00  0.00    +0.000 A 
ENDBRANCH  18  21
ENDBRANCH   9  15
BRANCH  10  16
ATOM     16  C   UNL     1      15.526   5.446   0.962  0.00  0.00    +0.124 C 
BRANCH  16   5
ATOM      1  O   UNL     1      14.053   7.689   1.967  0.00  0.00    -0.253 OA
ATOM      5  N   UNL     1      14.972   5.588   2.274  0.00  0.00    -0.298 N 
ATOM      7  N   UNL     1      13.838   6.578   4.024  0.00  0.00    -0.269 N 
ATOM     20  C   UNL     1      14.258   6.723   2.698  0.00  0.00    +0.304 C 
ATOM     34  H   UNL     1      15.105   4.829   2.935  0.00  0.00    +0.150 HD
ATOM     35  H   UNL     1      14.092   5.711   4.490  0.00  0.00    +0.156 HD
BRANCH   7  24
ATOM     24  C   UNL     1      13.099   7.496   4.805  0.00  0.00    +0.035 A 
ATOM     28  C   UNL     1      12.424   8.550   4.192  0.00  0.00    +0.027 A 
ATOM     29  C   UNL     1      13.044   7.345   6.191  0.00  0.00    +0.027 A 
ATOM     30  C   UNL     1      11.693   9.454   4.963  0.00  0.00    +0.047 A 
ATOM     31  C   UNL     1      12.314   8.249   6.962  0.00  0.00    +0.047 A 
ATOM     32  C   UNL     1      11.638   9.303   6.348  0.00  0.00    +0.120 A 
BRANCH  32   2
ATOM      2  O   UNL     1      10.923  10.185   7.100  0.00  0.00    -0.495 OA
ATOM     33  C   UNL     1       9.830  10.844   6.461  0.00  0.00    +0.277 C 
ENDBRANCH  32   2
ENDBRANCH   7  24
ENDBRANCH  16   5
ENDBRANCH  10  16
TORSDOF 6
ENDMDL
MODEL 8
REMARK VINA RESULT:      -7.0     27.084     29.935
REMARK  Name = 40780134
REMARK  8 active torsions:
REMARK  status: ('A' for Active; 'I' for Inactive)
REMARK    1  A    between atoms: O_2  and  C_32
REMARK    2  A    between atoms: O_2  and  C_33
REMARK    3  A    between atoms: N_4  and  C_19
REMARK    4  A    between atoms: N_5  and  C_16
REMARK    5  A    between atoms: N_7  and  C_24
REMARK    6  A    between atoms: C_9  and  C_15
REMARK    7  A    between atoms: C_10  and  C_16
REMARK    8  A    between atoms: C_18  and  C_21
REMARK                            x       y       z     vdW  Elec       q    Type
REMARK                         _______ _______ _______ _____ _____    ______ ____
ROOT
ATOM      3  N   UNL     1      -6.510 -10.698  18.066  0.00  0.00    -0.297 NA
ATOM      8  C   UNL     1      -4.388 -12.106  17.521  0.00  0.00    +0.002 C 
ATOM      9  C   UNL     1      -4.323 -10.726  16.809  0.00  0.00    +0.055 C 
ATOM     10  C   UNL     1      -6.904 -12.059  17.620  0.00  0.00    +0.074 C 
ATOM     11  C   UNL     1      -5.678 -12.838  17.096  0.00  0.00    +0.024 C 
ATOM     12  C   UNL     1      -4.504 -11.821  19.033  0.00  0.00    +0.019 C 
ATOM     13  C   UNL     1      -5.700 -10.033  17.014  0.00  0.00    +0.094 C 
ATOM     14  C   UNL     1      -5.667 -10.843  19.276  0.00  0.00    +0.085 C 
ENDROOT
BRANCH   9  15
ATOM      4  N   UNL     1      -2.558 -10.598  14.990  0.00  0.00    -0.270 N 
ATOM      6  N   UNL     1      -2.366 -10.577  13.660  0.00  0.00    -0.171 NA
ATOM     15  C   UNL     1      -3.868 -10.687  15.356  0.00  0.00    +0.044 A 
ATOM     17  C   UNL     1      -4.585 -10.728  14.185  0.00  0.00    +0.053 A 
ATOM     18  C   UNL     1      -3.608 -10.657  13.174  0.00  0.00    +0.093 A 
ATOM     19  C   UNL     1      -1.414 -10.525  15.868  0.00  0.00    +0.172 C 
BRANCH  18  21
ATOM     21  C   UNL     1      -3.838 -10.661  11.753  0.00  0.00    +0.002 A 
ATOM     22  C   UNL     1      -3.458  -9.564  10.981  0.00  0.00    +0.010 A 
ATOM     23  C   UNL     1      -4.444 -11.763  11.148  0.00  0.00    +0.010 A 
ATOM     25  C   UNL     1      -3.683  -9.568   9.604  0.00  0.00    +0.001 A 
ATOM     26  C   UNL     1      -4.668 -11.768   9.770  0.00  0.00    +0.001 A 
ATOM     27  C   UNL     1      -4.287 -10.670   8.999  0.00  0.00    +0.000 A 
ENDBRANCH  18  21
ENDBRANCH   9  15
BRANCH  10  16
ATOM     16  C   UNL     1      -8.041 -12.030  16.595  0.00  0.00    +0.124 C 
BRANCH  16   5
ATOM      1  O   UNL     1      -9.214 -10.140  14.789  0.00  0.00    -0.253 OA
ATOM      5  N   UNL     1      -8.995 -11.016  16.920  0.00  0.00    -0.298 N 
ATOM      7  N   UNL     1     -10.436  -9.243  16.583  0.00  0.00    -0.269 N 
ATOM     20  C   UNL     1      -9.530 -10.120  15.977  0.00  0.00    +0.304 C 
ATOM     34  H   UNL     1      -9.301 -10.937  17.885  0.00  0.00    +0.150 HD
ATOM     35  H   UNL     1     -10.585  -9.362  17.581  0.00  0.00    +0.156 HD
BRANCH   7  24
ATOM     24  C   UNL     1     -11.177  -8.204  15.974  0.00  0.00    +0.035 A 
ATOM     28  C   UNL     1     -10.600  -6.948  15.795  0.00  0.00    +0.027 A 
ATOM     29  C   UNL     1     -12.486  -8.438  15.552  0.00  0.00    +0.027 A 
ATOM     30  C   UNL     1     -11.332  -5.923  15.194  0.00  0.00    +0.047 A 
ATOM     31  C   UNL     1     -13.218  -7.413  14.952  0.00  0.00    +0.047 A 
ATOM     32  C   UNL     1     -12.640  -6.157  14.772  0.00  0.00    +0.120 A 
BRANCH  32   2
ATOM      2  O   UNL     1     -13.353  -5.156  14.184  0.00  0.00    -0.495 OA
ATOM     33  C   UNL     1     -12.653  -4.314  13.269  0.00  0.00    +0.277 C 
ENDBRANCH  32   2
ENDBRANCH   7  24
ENDBRANCH  16   5
ENDBRANCH  10  16
TORSDOF 6
ENDMDL
MODEL 9
REMARK VINA RESULT:      -6.7      3.704      7.561
REMARK  Name = 40780134
REMARK  8 active torsions:
REMARK  status: ('A' for Active; 'I' for Inactive)
REMARK    1  A    between atoms: O_2  and  C_32
REMARK    2  A    between atoms: O_2  and  C_33
REMARK    3  A    between atoms: N_4  and  C_19
REMARK    4  A    between atoms: N_5  and  C_16
REMARK    5  A    between atoms: N_7  and  C_24
REMARK    6  A    between atoms: C_9  and  C_15
REMARK    7  A    between atoms: C_10  and  C_16
REMARK    8  A    between atoms: C_18  and  C_21
REMARK                            x       y       z     vdW  Elec       q    Type
REMARK                         _______ _______ _______ _____ _____    ______ ____
ROOT
ATOM      3  N   UNL     1      12.022   9.297  19.824  0.00  0.00    -0.297 NA
ATOM      8  C   UNL     1      12.836   7.585  21.609  0.00  0.00    +0.002 C 
ATOM      9  C   UNL     1      13.845   8.759  21.482  0.00  0.00    +0.055 C 
ATOM     10  C   UNL     1      11.981   7.921  19.264  0.00  0.00    +0.074 C 
ATOM     11  C   UNL     1      12.652   6.919  20.229  0.00  0.00    +0.024 C 
ATOM     12  C   UNL     1      11.478   8.205  21.999  0.00  0.00    +0.019 C 
ATOM     13  C   UNL     1      13.400   9.624  20.268  0.00  0.00    +0.094 C 
ATOM     14  C   UNL     1      11.133   9.332  21.009  0.00  0.00    +0.085 C 
ENDROOT
BRANCH   9  15
ATOM      4  N   UNL     1      16.302   9.336  21.748  0.00  0.00    -0.270 N 
ATOM      6  N   UNL     1      17.550   8.848  21.651  0.00  0.00    -0.171 NA
ATOM     15  C   UNL     1      15.331   8.429  21.441  0.00  0.00    +0.044 A 
ATOM     17  C   UNL     1      15.989   7.267  21.121  0.00  0.00    +0.053 A 
ATOM     18  C   UNL     1      17.353   7.584  21.267  0.00  0.00    +0.093 A 
ATOM     19  C   UNL     1      16.111  10.711  22.147  0.00  0.00    +0.172 C 
BRANCH  18  21
ATOM     21  C   UNL     1      18.469   6.704  21.046  0.00  0.00    +0.002 A 
ATOM     22  C   UNL     1      19.612   6.814  21.837  0.00  0.00    +0.010 A 
ATOM     23  C   UNL     1      18.410   5.740  20.039  0.00  0.00    +0.010 A 
ATOM     25  C   UNL     1      20.696   5.961  21.622  0.00  0.00    +0.001 A 
ATOM     26  C   UNL     1      19.492   4.886  19.824  0.00  0.00    +0.001 A 
ATOM     27  C   UNL     1      20.636   4.998  20.616  0.00  0.00    +0.000 A 
ENDBRANCH  18  21
ENDBRANCH   9  15
BRANCH  10  16
ATOM     16  C   UNL     1      12.581   7.846  17.857  0.00  0.00    +0.124 C 
BRANCH  16   5
ATOM      1  O   UNL     1      13.566   8.491  15.245  0.00  0.00    -0.253 OA
ATOM      5  N   UNL     1      12.785   9.156  17.319  0.00  0.00    -0.298 N 
ATOM      7  N   UNL     1      13.368  10.769  15.775  0.00  0.00    -0.269 N 
ATOM     20  C   UNL     1      13.273   9.396  16.023  0.00  0.00    +0.304 C 
ATOM     34  H   UNL     1      12.567   9.955  17.907  0.00  0.00    +0.150 HD
ATOM     35  H   UNL     1      13.084  11.388  16.529  0.00  0.00    +0.156 HD
BRANCH   7  24
ATOM     24  C   UNL     1      13.813  11.410  14.595  0.00  0.00    +0.035 A 
ATOM     28  C   UNL     1      15.176  11.484  14.313  0.00  0.00    +0.027 A 
ATOM     29  C   UNL     1      12.886  11.966  13.713  0.00  0.00    +0.027 A 
ATOM     30  C   UNL     1      15.615  12.115  13.149  0.00  0.00    +0.047 A 
ATOM     31  C   UNL     1      13.325  12.598  12.549  0.00  0.00    +0.047 A 
ATOM     32  C   UNL     1      14.688  12.671  12.267  0.00  0.00    +0.120 A 
BRANCH  32   2
ATOM      2  O   UNL     1      15.117  13.285  11.130  0.00  0.00    -0.495 OA
ATOM     33  C   UNL     1      14.179  14.119  10.450  0.00  0.00    +0.277 C 
ENDBRANCH  32   2
ENDBRANCH   7  24
ENDBRANCH  16   5
ENDBRANCH  10  16
TORSDOF 6
ENDMDL
MODEL 10
REMARK VINA RESULT:      -6.6     26.231     29.316
REMARK  Name = 40780134
REMARK  8 active torsions:
REMARK  status: ('A' for Active; 'I' for Inactive)
REMARK    1  A    between atoms: O_2  and  C_32
REMARK    2  A    between atoms: O_2  and  C_33
REMARK    3  A    between atoms: N_4  and  C_19
REMARK    4  A    between atoms: N_5  and  C_16
REMARK    5  A    between atoms: N_7  and  C_24
REMARK    6  A    between atoms: C_9  and  C_15
REMARK    7  A    between atoms: C_10  and  C_16
REMARK    8  A    between atoms: C_18  and  C_21
REMARK                            x       y       z     vdW  Elec       q    Type
REMARK                         _______ _______ _______ _____ _____    ______ ____
ROOT
ATOM      3  N   UNL     1     -16.379   5.890  22.983  0.00  0.00    -0.297 NA
ATOM      8  C   UNL     1     -17.415   3.599  23.662  0.00  0.00    +0.002 C 
ATOM      9  C   UNL     1     -17.521   4.612  24.836  0.00  0.00    +0.055 C 
ATOM     10  C   UNL     1     -15.432   4.790  22.666  0.00  0.00    +0.074 C 
ATOM     11  C   UNL     1     -15.937   3.451  23.248  0.00  0.00    +0.024 C 
ATOM     12  C   UNL     1     -18.162   4.224  22.465  0.00  0.00    +0.019 C 
ATOM     13  C   UNL     1     -16.708   5.876  24.431  0.00  0.00    +0.094 C 
ATOM     14  C   UNL     1     -17.628   5.647  22.223  0.00  0.00    +0.085 C 
ENDROOT
BRANCH   9  15
ATOM      4  N   UNL     1     -17.886   4.487  27.344  0.00  0.00    -0.270 N 
ATOM      6  N   UNL     1     -17.419   3.954  28.485  0.00  0.00    -0.171 NA
ATOM     15  C   UNL     1     -17.174   4.128  26.237  0.00  0.00    +0.044 A 
ATOM     17  C   UNL     1     -16.172   3.303  26.685  0.00  0.00    +0.053 A 
ATOM     18  C   UNL     1     -16.372   3.232  28.077  0.00  0.00    +0.093 A 
ATOM     19  C   UNL     1     -19.042   5.352  27.390  0.00  0.00    +0.172 C 
BRANCH  18  21
ATOM     21  C   UNL     1     -15.581   2.489  29.023  0.00  0.00    +0.002 A 
ATOM     22  C   UNL     1     -14.601   3.137  29.773  0.00  0.00    +0.010 A 
ATOM     23  C   UNL     1     -15.794   1.120  29.187  0.00  0.00    +0.010 A 
ATOM     25  C   UNL     1     -13.834   2.417  30.689  0.00  0.00    +0.001 A 
ATOM     26  C   UNL     1     -15.028   0.399  30.104  0.00  0.00    +0.001 A 
ATOM     27  C   UNL     1     -14.047   1.048  30.855  0.00  0.00    +0.000 A 
ENDBRANCH  18  21
ENDBRANCH   9  15
BRANCH  10  16
ATOM     16  C   UNL     1     -14.003   5.104  23.116  0.00  0.00    +0.124 C 
BRANCH  16   5
ATOM      1  O   UNL     1     -13.469   7.611  21.836  0.00  0.00    -0.253 OA
ATOM      5  N   UNL     1     -13.150   5.324  21.989  0.00  0.00    -0.298 N 
ATOM      7  N   UNL     1     -12.056   6.496  20.328  0.00  0.00    -0.269 N 
ATOM     20  C   UNL     1     -12.935   6.588  21.412  0.00  0.00    +0.304 C 
ATOM     34  H   UNL     1     -12.677   4.523  21.582  0.00  0.00    +0.150 HD
ATOM     35  H   UNL     1     -11.702   5.570  20.107  0.00  0.00    +0.156 HD
BRANCH   7  24
ATOM     24  C   UNL     1     -11.594   7.540  19.493  0.00  0.00    +0.035 A 
ATOM     28  C   UNL     1     -10.698   8.486  19.990  0.00  0.00    +0.027 A 
ATOM     29  C   UNL     1     -12.035   7.622  18.173  0.00  0.00    +0.027 A 
ATOM     30  C   UNL     1     -10.241   9.515  19.166  0.00  0.00    +0.047 A 
ATOM     31  C   UNL     1     -11.579   8.652  17.349  0.00  0.00    +0.047 A 
ATOM     32  C   UNL     1     -10.682   9.597  17.845  0.00  0.00    +0.120 A 
BRANCH  32   2
ATOM      2  O   UNL     1     -10.235  10.601  17.041  0.00  0.00    -0.495 OA
ATOM     33  C   UNL     1     -10.960  10.836  15.834  0.00  0.00    +0.277 C 
ENDBRANCH  32   2
ENDBRANCH   7  24
ENDBRANCH  16   5
ENDBRANCH  10  16
TORSDOF 6
ENDMDL
