MODEL 1
REMARK VINA RESULT:      -6.9      0.000      0.000
REMARK  Name = 26743428
REMARK  11 active torsions:
REMARK  status: ('A' for Active; 'I' for Inactive)
REMARK    1  A    between atoms: S_1  and  C_23
REMARK    2  A    between atoms: S_1  and  C_30
REMARK    3  A    between atoms: O_6  and  C_31
REMARK    4  A    between atoms: N_8  and  C_13
REMARK    5  A    between atoms: N_9  and  C_21
REMARK    6  A    between atoms: C_11  and  C_14
REMARK    7  A    between atoms: C_17  and  C_19
REMARK    8  A    between atoms: C_18  and  C_20
REMARK    9  A    between atoms: C_22  and  C_23
REMARK   10  A    between atoms: C_28  and  C_29
REMARK   11  A    between atoms: C_30  and  C_31
REMARK                            x       y       z     vdW  Elec       q    Type
REMARK                         _______ _______ _______ _____ _____    ______ ____
ROOT
ATOM      9  N   UNL     1      20.704   6.164  21.329  0.00  0.00    -0.236 N 
ATOM     10  N   UNL     1      20.854   7.274  22.073  0.00  0.00    -0.171 NA
ATOM     14  C   UNL     1      18.776   7.172  21.129  0.00  0.00    +0.003 A 
ATOM     17  C   UNL     1      19.478   6.057  20.742  0.00  0.00    +0.046 A 
ATOM     18  C   UNL     1      19.673   7.885  21.947  0.00  0.00    +0.064 A 
ATOM     19  C   UNL     1      19.089   4.923  19.879  0.00  0.00    +0.066 C 
ATOM     20  C   UNL     1      19.445   9.167  22.636  0.00  0.00    +0.068 C 
ENDROOT
BRANCH   9  21
ATOM     21  C   UNL     1      21.759   5.257  21.219  0.00  0.00    +0.066 A 
ATOM     24  C   UNL     1      21.763   4.095  21.991  0.00  0.00    +0.028 A 
ATOM     25  C   UNL     1      22.810   5.515  20.339  0.00  0.00    +0.028 A 
ATOM     26  C   UNL     1      22.820   3.191  21.882  0.00  0.00    +0.014 A 
ATOM     27  C   UNL     1      23.866   4.610  20.231  0.00  0.00    +0.014 A 
ATOM     28  C   UNL     1      23.871   3.449  21.003  0.00  0.00    +0.055 A 
BRANCH  28  29
ATOM      2  F   UNL     1      24.580   1.183  20.874  0.00  0.00    -0.166 F 
ATOM      3  F   UNL     1      25.743   2.638  19.753  0.00  0.00    -0.166 F 
ATOM      4  F   UNL     1      25.898   2.564  21.915  0.00  0.00    -0.166 F 
ATOM     29  C   UNL     1      25.000   2.481  20.888  0.00  0.00    +0.417 C 
ENDBRANCH  28  29
ENDBRANCH   9  21
BRANCH  14  11
ATOM     11  C   UNL     1      17.360   7.548  20.758  0.00  0.00    +0.047 C 
ATOM     12  C   UNL     1      16.295   6.829  21.612  0.00  0.00    +0.039 C 
ATOM     13  C   UNL     1      15.147   7.831  21.780  0.00  0.00    +0.097 C 
ATOM     15  C   UNL     1      17.020   8.995  20.969  0.00  0.00    -0.021 C 
ATOM     16  C   UNL     1      15.812   9.143  21.522  0.00  0.00    -0.009 C 
BRANCH  13   8
ATOM      5  O   UNL     1      12.333   8.422  22.118  0.00  0.00    -0.275 OA
ATOM      8  N   UNL     1      14.094   7.638  20.818  0.00  0.00    -0.308 N 
ATOM     22  C   UNL     1      12.764   7.951  21.067  0.00  0.00    +0.223 C 
ATOM     32  H   UNL     1      14.335   7.211  19.928  0.00  0.00    +0.149 HD
BRANCH  22  23
ATOM     23  C   UNL     1      11.851   7.639  19.904  0.00  0.00    +0.165 C 
BRANCH  23   1
ATOM      1  S   UNL     1      12.811   7.696  18.372  0.00  0.00    -0.140 S 
BRANCH   1  30
ATOM     30  C   UNL     1      12.051   9.160  17.633  0.00  0.00    +0.189 C 
BRANCH  30  31
ATOM      7  O   UNL     1      11.937   9.043  15.227  0.00  0.00    -0.250 OA
ATOM     31  C   UNL     1      11.434   8.790  16.314  0.00  0.00    +0.315 C 
BRANCH  31   6
ATOM      6  O   UNL     1      10.257   8.127  16.455  0.00  0.00    -0.480 OA
ATOM     33  H   UNL     1       9.636   8.605  17.044  0.00  0.00    +0.295 HD
ENDBRANCH  31   6
ENDBRANCH  30  31
ENDBRANCH   1  30
ENDBRANCH  23   1
ENDBRANCH  22  23
ENDBRANCH  13   8
ENDBRANCH  14  11
TORSDOF 9
ENDMDL
MODEL 2
REMARK VINA RESULT:      -6.8      7.116     10.609
REMARK  Name = 26743428
REMARK  11 active torsions:
REMARK  status: ('A' for Active; 'I' for Inactive)
REMARK    1  A    between atoms: S_1  and  C_23
REMARK    2  A    between atoms: S_1  and  C_30
REMARK    3  A    between atoms: O_6  and  C_31
REMARK    4  A    between atoms: N_8  and  C_13
REMARK    5  A    between atoms: N_9  and  C_21
REMARK    6  A    between atoms: C_11  and  C_14
REMARK    7  A    between atoms: C_17  and  C_19
REMARK    8  A    between atoms: C_18  and  C_20
REMARK    9  A    between atoms: C_22  and  C_23
REMARK   10  A    between atoms: C_28  and  C_29
REMARK   11  A    between atoms: C_30  and  C_31
REMARK                            x       y       z     vdW  Elec       q    Type
REMARK                         _______ _______ _______ _____ _____    ______ ____
ROOT
ATOM      9  N   UNL     1      16.816   8.138  21.125  0.00  0.00    -0.236 N 
ATOM     10  N   UNL     1      17.482   9.114  21.766  0.00  0.00    -0.171 NA
ATOM     14  C   UNL     1      18.886   7.443  21.091  0.00  0.00    +0.003 A 
ATOM     17  C   UNL     1      17.611   7.115  20.701  0.00  0.00    +0.046 A 
ATOM     18  C   UNL     1      18.747   8.684  21.741  0.00  0.00    +0.064 A 
ATOM     19  C   UNL     1      17.097   5.934  19.977  0.00  0.00    +0.066 C 
ATOM     20  C   UNL     1      19.802   9.503  22.362  0.00  0.00    +0.068 C 
ENDROOT
BRANCH   9  21
ATOM     21  C   UNL     1      15.435   8.242  20.952  0.00  0.00    +0.066 A 
ATOM     24  C   UNL     1      14.918   8.846  19.807  0.00  0.00    +0.028 A 
ATOM     25  C   UNL     1      14.572   7.742  21.928  0.00  0.00    +0.028 A 
ATOM     26  C   UNL     1      13.537   8.952  19.637  0.00  0.00    +0.014 A 
ATOM     27  C   UNL     1      13.191   7.848  21.758  0.00  0.00    +0.014 A 
ATOM     28  C   UNL     1      12.675   8.453  20.613  0.00  0.00    +0.055 A 
BRANCH  28  29
ATOM      2  F   UNL     1      10.670   9.640  21.087  0.00  0.00    -0.166 F 
ATOM      3  F   UNL     1      10.817   8.711  19.127  0.00  0.00    -0.166 F 
ATOM      4  F   UNL     1      10.506   7.481  20.886  0.00  0.00    -0.166 F 
ATOM     29  C   UNL     1      11.199   8.567  20.430  0.00  0.00    +0.417 C 
ENDBRANCH  28  29
ENDBRANCH   9  21
BRANCH  14  11
ATOM     11  C   UNL     1      20.153   6.649  20.870  0.00  0.00    +0.047 C 
ATOM     12  C   UNL     1      20.796   6.151  22.182  0.00  0.00    +0.039 C 
ATOM     13  C   UNL     1      21.416   4.787  21.853  0.00  0.00    +0.097 C 
ATOM     15  C   UNL     1      19.968   5.375  20.097  0.00  0.00    -0.021 C 
ATOM     16  C   UNL     1      20.662   4.366  20.635  0.00  0.00    -0.009 C 
BRANCH  13   8
ATOM      5  O   UNL     1      23.637   4.828  23.709  0.00  0.00    -0.275 OA
ATOM      8  N   UNL     1      22.816   4.875  21.534  0.00  0.00    -0.308 N 
ATOM     22  C   UNL     1      23.820   4.889  22.495  0.00  0.00    +0.223 C 
ATOM     32  H   UNL     1      23.077   4.975  20.557  0.00  0.00    +0.149 HD
BRANCH  22  23
ATOM     23  C   UNL     1      25.207   5.005  21.906  0.00  0.00    +0.165 C 
BRANCH  23   1
ATOM      1  S   UNL     1      25.180   4.372  20.212  0.00  0.00    -0.140 S 
BRANCH   1  30
ATOM     30  C   UNL     1      25.711   2.677  20.550  0.00  0.00    +0.189 C 
BRANCH  30  31
ATOM      7  O   UNL     1      24.474   0.895  21.603  0.00  0.00    -0.250 OA
ATOM     31  C   UNL     1      24.505   1.817  20.797  0.00  0.00    +0.315 C 
BRANCH  31   6
ATOM      6  O   UNL     1      23.439   2.178  20.038  0.00  0.00    -0.480 OA
ATOM     33  H   UNL     1      22.860   1.414  19.833  0.00  0.00    +0.295 HD
ENDBRANCH  31   6
ENDBRANCH  30  31
ENDBRANCH   1  30
ENDBRANCH  23   1
ENDBRANCH  22  23
ENDBRANCH  13   8
ENDBRANCH  14  11
TORSDOF 9
ENDMDL
MODEL 3
REMARK VINA RESULT:      -6.8      2.663      3.377
REMARK  Name = 26743428
REMARK  11 active torsions:
REMARK  status: ('A' for Active; 'I' for Inactive)
REMARK    1  A    between atoms: S_1  and  C_23
REMARK    2  A    between atoms: S_1  and  C_30
REMARK    3  A    between atoms: O_6  and  C_31
REMARK    4  A    between atoms: N_8  and  C_13
REMARK    5  A    between atoms: N_9  and  C_21
REMARK    6  A    between atoms: C_11  and  C_14
REMARK    7  A    between atoms: C_17  and  C_19
REMARK    8  A    between atoms: C_18  and  C_20
REMARK    9  A    between atoms: C_22  and  C_23
REMARK   10  A    between atoms: C_28  and  C_29
REMARK   11  A    between atoms: C_30  and  C_31
REMARK                            x       y       z     vdW  Elec       q    Type
REMARK                         _______ _______ _______ _____ _____    ______ ____
ROOT
ATOM      9  N   UNL     1      19.628   6.353  20.604  0.00  0.00    -0.236 N 
ATOM     10  N   UNL     1      19.108   5.585  19.631  0.00  0.00    -0.171 NA
ATOM     14  C   UNL     1      17.605   7.140  20.367  0.00  0.00    +0.003 A 
ATOM     17  C   UNL     1      18.768   7.298  21.079  0.00  0.00    +0.046 A 
ATOM     18  C   UNL     1      17.871   6.071  19.491  0.00  0.00    +0.064 A 
ATOM     19  C   UNL     1      19.122   8.252  22.150  0.00  0.00    +0.066 C 
ATOM     20  C   UNL     1      16.968   5.473  18.492  0.00  0.00    +0.068 C 
ENDROOT
BRANCH   9  21
ATOM     21  C   UNL     1      20.939   6.134  21.032  0.00  0.00    +0.066 A 
ATOM     24  C   UNL     1      21.195   5.227  22.060  0.00  0.00    +0.028 A 
ATOM     25  C   UNL     1      21.991   6.825  20.431  0.00  0.00    +0.028 A 
ATOM     26  C   UNL     1      22.505   5.012  22.488  0.00  0.00    +0.014 A 
ATOM     27  C   UNL     1      23.301   6.609  20.860  0.00  0.00    +0.014 A 
ATOM     28  C   UNL     1      23.558   5.702  21.889  0.00  0.00    +0.055 A 
BRANCH  28  29
ATOM      2  F   UNL     1      25.104   5.644  23.693  0.00  0.00    -0.166 F 
ATOM      3  F   UNL     1      25.419   4.212  22.088  0.00  0.00    -0.166 F 
ATOM      4  F   UNL     1      25.868   6.310  21.770  0.00  0.00    -0.166 F 
ATOM     29  C   UNL     1      24.957   5.471  22.348  0.00  0.00    +0.417 C 
ENDBRANCH  28  29
ENDBRANCH   9  21
BRANCH  14  11
ATOM     11  C   UNL     1      16.325   7.934  20.498  0.00  0.00    +0.047 C 
ATOM     12  C   UNL     1      15.584   7.681  21.827  0.00  0.00    +0.039 C 
ATOM     13  C   UNL     1      14.936   9.018  22.207  0.00  0.00    +0.097 C 
ATOM     15  C   UNL     1      16.511   9.424  20.511  0.00  0.00    -0.021 C 
ATOM     16  C   UNL     1      15.749  10.009  21.441  0.00  0.00    -0.009 C 
BRANCH  13   8
ATOM      5  O   UNL     1      12.943  10.902  23.133  0.00  0.00    -0.275 OA
ATOM      8  N   UNL     1      13.563   9.109  21.789  0.00  0.00    -0.308 N 
ATOM     22  C   UNL     1      12.671  10.050  22.289  0.00  0.00    +0.223 C 
ATOM     32  H   UNL     1      13.220   8.421  21.124  0.00  0.00    +0.149 HD
BRANCH  22  23
ATOM     23  C   UNL     1      11.284   9.928  21.703  0.00  0.00    +0.165 C 
BRANCH  23   1
ATOM      1  S   UNL     1      11.239   8.498  20.595  0.00  0.00    -0.140 S 
BRANCH   1  30
ATOM     30  C   UNL     1      10.599   7.274  21.762  0.00  0.00    +0.189 C 
BRANCH  30  31
ATOM      7  O   UNL     1      10.735   4.869  21.662  0.00  0.00    -0.250 OA
ATOM     31  C   UNL     1      11.280   5.957  21.526  0.00  0.00    +0.315 C 
BRANCH  31   6
ATOM      6  O   UNL     1      12.571   6.098  21.131  0.00  0.00    -0.480 OA
ATOM     33  H   UNL     1      13.187   6.123  21.893  0.00  0.00    +0.295 HD
ENDBRANCH  31   6
ENDBRANCH  30  31
ENDBRANCH   1  30
ENDBRANCH  23   1
ENDBRANCH  22  23
ENDBRANCH  13   8
ENDBRANCH  14  11
TORSDOF 9
ENDMDL
MODEL 4
REMARK VINA RESULT:      -6.8      1.643      2.266
REMARK  Name = 26743428
REMARK  11 active torsions:
REMARK  status: ('A' for Active; 'I' for Inactive)
REMARK    1  A    between atoms: S_1  and  C_23
REMARK    2  A    between atoms: S_1  and  C_30
REMARK    3  A    between atoms: O_6  and  C_31
REMARK    4  A    between atoms: N_8  and  C_13
REMARK    5  A    between atoms: N_9  and  C_21
REMARK    6  A    between atoms: C_11  and  C_14
REMARK    7  A    between atoms: C_17  and  C_19
REMARK    8  A    between atoms: C_18  and  C_20
REMARK    9  A    between atoms: C_22  and  C_23
REMARK   10  A    between atoms: C_28  and  C_29
REMARK   11  A    between atoms: C_30  and  C_31
REMARK                            x       y       z     vdW  Elec       q    Type
REMARK                         _______ _______ _______ _____ _____    ______ ____
ROOT
ATOM      9  N   UNL     1      21.716   5.062  22.468  0.00  0.00    -0.236 N 
ATOM     10  N   UNL     1      21.619   5.892  23.522  0.00  0.00    -0.171 NA
ATOM     14  C   UNL     1      20.130   6.444  21.879  0.00  0.00    +0.003 A 
ATOM     17  C   UNL     1      20.848   5.351  21.458  0.00  0.00    +0.046 A 
ATOM     18  C   UNL     1      20.648   6.733  23.156  0.00  0.00    +0.064 A 
ATOM     19  C   UNL     1      20.778   4.576  20.203  0.00  0.00    +0.066 C 
ATOM     20  C   UNL     1      20.243   7.814  24.072  0.00  0.00    +0.068 C 
ENDROOT
BRANCH   9  21
ATOM     21  C   UNL     1      22.651   4.026  22.489  0.00  0.00    +0.066 A 
ATOM     24  C   UNL     1      23.811   4.117  21.721  0.00  0.00    +0.028 A 
ATOM     25  C   UNL     1      22.421   2.898  23.276  0.00  0.00    +0.028 A 
ATOM     26  C   UNL     1      24.742   3.079  21.740  0.00  0.00    +0.014 A 
ATOM     27  C   UNL     1      23.354   1.860  23.295  0.00  0.00    +0.014 A 
ATOM     28  C   UNL     1      24.514   1.951  22.526  0.00  0.00    +0.055 A 
BRANCH  28  29
ATOM      2  F   UNL     1      26.784   1.276  22.320  0.00  0.00    -0.166 F 
ATOM      3  F   UNL     1      25.558   0.168  23.732  0.00  0.00    -0.166 F 
ATOM      4  F   UNL     1      25.278  -0.119  21.601  0.00  0.00    -0.166 F 
ATOM     29  C   UNL     1      25.510   0.842  22.545  0.00  0.00    +0.417 C 
ENDBRANCH  28  29
ENDBRANCH   9  21
BRANCH  14  11
ATOM     11  C   UNL     1      19.033   7.172  21.136  0.00  0.00    +0.047 C 
ATOM     12  C   UNL     1      17.631   6.582  21.390  0.00  0.00    +0.039 C 
ATOM     13  C   UNL     1      16.666   7.774  21.370  0.00  0.00    +0.097 C 
ATOM     15  C   UNL     1      18.856   8.609  21.531  0.00  0.00    -0.021 C 
ATOM     16  C   UNL     1      17.564   8.933  21.653  0.00  0.00    -0.009 C 
BRANCH  13   8
ATOM      5  O   UNL     1      14.062   6.827  20.531  0.00  0.00    -0.275 OA
ATOM      8  N   UNL     1      16.042   7.963  20.087  0.00  0.00    -0.308 N 
ATOM     22  C   UNL     1      14.782   7.470  19.770  0.00  0.00    +0.223 C 
ATOM     32  H   UNL     1      16.571   8.445  19.366  0.00  0.00    +0.149 HD
BRANCH  22  23
ATOM     23  C   UNL     1      14.358   7.786  18.354  0.00  0.00    +0.165 C 
BRANCH  23   1
ATOM      1  S   UNL     1      12.592   7.434  18.178  0.00  0.00    -0.140 S 
BRANCH   1  30
ATOM     30  C   UNL     1      12.065   9.031  17.514  0.00  0.00    +0.189 C 
BRANCH  30  31
ATOM      7  O   UNL     1      11.811   9.203  15.123  0.00  0.00    -0.250 OA
ATOM     31  C   UNL     1      11.370   8.820  16.199  0.00  0.00    +0.315 C 
BRANCH  31   6
ATOM      6  O   UNL     1      10.200   8.144  16.327  0.00  0.00    -0.480 OA
ATOM     33  H   UNL     1      10.275   7.220  16.008  0.00  0.00    +0.295 HD
ENDBRANCH  31   6
ENDBRANCH  30  31
ENDBRANCH   1  30
ENDBRANCH  23   1
ENDBRANCH  22  23
ENDBRANCH  13   8
ENDBRANCH  14  11
TORSDOF 9
ENDMDL
MODEL 5
REMARK VINA RESULT:      -6.6     29.150     31.062
REMARK  Name = 26743428
REMARK  11 active torsions:
REMARK  status: ('A' for Active; 'I' for Inactive)
REMARK    1  A    between atoms: S_1  and  C_23
REMARK    2  A    between atoms: S_1  and  C_30
REMARK    3  A    between atoms: O_6  and  C_31
REMARK    4  A    between atoms: N_8  and  C_13
REMARK    5  A    between atoms: N_9  and  C_21
REMARK    6  A    between atoms: C_11  and  C_14
REMARK    7  A    between atoms: C_17  and  C_19
REMARK    8  A    between atoms: C_18  and  C_20
REMARK    9  A    between atoms: C_22  and  C_23
REMARK   10  A    between atoms: C_28  and  C_29
REMARK   11  A    between atoms: C_30  and  C_31
REMARK                            x       y       z     vdW  Elec       q    Type
REMARK                         _______ _______ _______ _____ _____    ______ ____
ROOT
ATOM      9  N   UNL     1      -4.791 -10.646  13.859  0.00  0.00    -0.236 N 
ATOM     10  N   UNL     1      -3.536 -10.484  13.404  0.00  0.00    -0.171 NA
ATOM     14  C   UNL     1      -5.060 -10.412  11.703  0.00  0.00    +0.003 A 
ATOM     17  C   UNL     1      -5.740 -10.612  12.880  0.00  0.00    +0.046 A 
ATOM     18  C   UNL     1      -3.707 -10.341  12.087  0.00  0.00    +0.064 A 
ATOM     19  C   UNL     1      -7.185 -10.770  13.144  0.00  0.00    +0.066 C 
ATOM     20  C   UNL     1      -2.532 -10.137  11.223  0.00  0.00    +0.068 C 
ENDROOT
BRANCH   9  21
ATOM     21  C   UNL     1      -5.015 -10.828  15.224  0.00  0.00    +0.066 A 
ATOM     24  C   UNL     1      -5.375  -9.744  16.023  0.00  0.00    +0.028 A 
ATOM     25  C   UNL     1      -4.875 -12.096  15.789  0.00  0.00    +0.028 A 
ATOM     26  C   UNL     1      -5.594  -9.927  17.389  0.00  0.00    +0.014 A 
ATOM     27  C   UNL     1      -5.095 -12.279  17.154  0.00  0.00    +0.014 A 
ATOM     28  C   UNL     1      -5.454 -11.194  17.954  0.00  0.00    +0.055 A 
BRANCH  28  29
ATOM      2  F   UNL     1      -6.177 -10.268  20.021  0.00  0.00    -0.166 F 
ATOM      3  F   UNL     1      -6.586 -12.378  19.698  0.00  0.00    -0.166 F 
ATOM      4  F   UNL     1      -4.561 -11.720  20.110  0.00  0.00    -0.166 F 
ATOM     29  C   UNL     1      -5.689 -11.388  19.413  0.00  0.00    +0.417 C 
ENDBRANCH  28  29
ENDBRANCH   9  21
BRANCH  14  11
ATOM     11  C   UNL     1      -5.636 -10.297  10.311  0.00  0.00    +0.047 C 
ATOM     12  C   UNL     1      -4.997  -9.166   9.479  0.00  0.00    +0.039 C 
ATOM     13  C   UNL     1      -4.970  -9.675   8.032  0.00  0.00    +0.097 C 
ATOM     15  C   UNL     1      -5.418 -11.501   9.441  0.00  0.00    -0.021 C 
ATOM     16  C   UNL     1      -5.059 -11.156   8.200  0.00  0.00    -0.009 C 
BRANCH  13   8
ATOM      5  O   UNL     1      -5.731 -10.521   5.370  0.00  0.00    -0.275 OA
ATOM      8  N   UNL     1      -6.096  -9.218   7.261  0.00  0.00    -0.308 N 
ATOM     22  C   UNL     1      -6.386  -9.681   5.984  0.00  0.00    +0.223 C 
ATOM     32  H   UNL     1      -6.680  -8.488   7.658  0.00  0.00    +0.149 HD
BRANCH  22  23
ATOM     23  C   UNL     1      -7.611  -9.033   5.380  0.00  0.00    +0.165 C 
BRANCH  23   1
ATOM      1  S   UNL     1      -8.874  -8.856   6.662  0.00  0.00    -0.140 S 
BRANCH   1  30
ATOM     30  C   UNL     1      -9.138  -7.072   6.534  0.00  0.00    +0.189 C 
BRANCH  30  31
ATOM      7  O   UNL     1      -9.330  -5.912   8.639  0.00  0.00    -0.250 OA
ATOM     31  C   UNL     1      -8.616  -6.401   7.773  0.00  0.00    +0.315 C 
BRANCH  31   6
ATOM      6  O   UNL     1      -7.261  -6.404   7.839  0.00  0.00    -0.480 OA
ATOM     33  H   UNL     1      -6.869  -5.638   7.368  0.00  0.00    +0.295 HD
ENDBRANCH  31   6
ENDBRANCH  30  31
ENDBRANCH   1  30
ENDBRANCH  23   1
ENDBRANCH  22  23
ENDBRANCH  13   8
ENDBRANCH  14  11
TORSDOF 9
ENDMDL
MODEL 6
REMARK VINA RESULT:      -6.6     30.485     33.986
REMARK  Name = 26743428
REMARK  11 active torsions:
REMARK  status: ('A' for Active; 'I' for Inactive)
REMARK    1  A    between atoms: S_1  and  C_23
REMARK    2  A    between atoms: S_1  and  C_30
REMARK    3  A    between atoms: O_6  and  C_31
REMARK    4  A    between atoms: N_8  and  C_13
REMARK    5  A    between atoms: N_9  and  C_21
REMARK    6  A    between atoms: C_11  and  C_14
REMARK    7  A    between atoms: C_17  and  C_19
REMARK    8  A    between atoms: C_18  and  C_20
REMARK    9  A    between atoms: C_22  and  C_23
REMARK   10  A    between atoms: C_28  and  C_29
REMARK   11  A    between atoms: C_30  and  C_31
REMARK                            x       y       z     vdW  Elec       q    Type
REMARK                         _______ _______ _______ _____ _____    ______ ____
ROOT
ATOM      9  N   UNL     1     -14.438   6.615  22.280  0.00  0.00    -0.236 N 
ATOM     10  N   UNL     1     -15.694   7.092  22.335  0.00  0.00    -0.171 NA
ATOM     14  C   UNL     1     -15.483   5.146  23.513  0.00  0.00    +0.003 A 
ATOM     17  C   UNL     1     -14.260   5.452  22.968  0.00  0.00    +0.046 A 
ATOM     18  C   UNL     1     -16.328   6.190  23.090  0.00  0.00    +0.064 A 
ATOM     19  C   UNL     1     -12.965   4.745  23.046  0.00  0.00    +0.066 C 
ATOM     20  C   UNL     1     -17.760   6.370  23.384  0.00  0.00    +0.068 C 
ENDROOT
BRANCH   9  21
ATOM     21  C   UNL     1     -13.466   7.309  21.559  0.00  0.00    +0.066 A 
ATOM     24  C   UNL     1     -13.452   8.704  21.571  0.00  0.00    +0.028 A 
ATOM     25  C   UNL     1     -12.509   6.607  20.826  0.00  0.00    +0.028 A 
ATOM     26  C   UNL     1     -12.481   9.396  20.847  0.00  0.00    +0.014 A 
ATOM     27  C   UNL     1     -11.538   7.301  20.103  0.00  0.00    +0.014 A 
ATOM     28  C   UNL     1     -11.525   8.695  20.113  0.00  0.00    +0.055 A 
BRANCH  28  29
ATOM      2  F   UNL     1     -10.672  10.789  19.377  0.00  0.00    -0.166 F 
ATOM      3  F   UNL     1      -9.215   9.230  19.791  0.00  0.00    -0.166 F 
ATOM      4  F   UNL     1     -10.453   9.108  18.015  0.00  0.00    -0.166 F 
ATOM     29  C   UNL     1     -10.488   9.438  19.341  0.00  0.00    +0.417 C 
ENDBRANCH  28  29
ENDBRANCH   9  21
BRANCH  14  11
ATOM     11  C   UNL     1     -15.841   3.955  24.373  0.00  0.00    +0.047 C 
ATOM     12  C   UNL     1     -16.528   4.344  25.698  0.00  0.00    +0.039 C 
ATOM     13  C   UNL     1     -17.539   3.228  25.989  0.00  0.00    +0.097 C 
ATOM     15  C   UNL     1     -16.835   3.014  23.757  0.00  0.00    -0.021 C 
ATOM     16  C   UNL     1     -17.756   2.618  24.643  0.00  0.00    -0.009 C 
BRANCH  13   8
ATOM      5  O   UNL     1     -18.581   2.488  28.586  0.00  0.00    -0.275 OA
ATOM      8  N   UNL     1     -17.020   2.227  26.883  0.00  0.00    -0.308 N 
ATOM     22  C   UNL     1     -17.587   1.936  28.118  0.00  0.00    +0.223 C 
ATOM     32  H   UNL     1     -16.170   1.740  26.611  0.00  0.00    +0.149 HD
BRANCH  22  23
ATOM     23  C   UNL     1     -16.846   0.859  28.874  0.00  0.00    +0.165 C 
BRANCH  23   1
ATOM      1  S   UNL     1     -15.860   1.630  30.180  0.00  0.00    -0.140 S 
BRANCH   1  30
ATOM     30  C   UNL     1     -14.952   0.167  30.731  0.00  0.00    +0.189 C 
BRANCH  30  31
ATOM      7  O   UNL     1     -12.961  -0.865  29.846  0.00  0.00    -0.250 OA
ATOM     31  C   UNL     1     -13.592   0.154  30.093  0.00  0.00    +0.315 C 
BRANCH  31   6
ATOM      6  O   UNL     1     -13.138   1.400  29.804  0.00  0.00    -0.480 OA
ATOM     33  H   UNL     1     -12.171   1.480  29.949  0.00  0.00    +0.295 HD
ENDBRANCH  31   6
ENDBRANCH  30  31
ENDBRANCH   1  30
ENDBRANCH  23   1
ENDBRANCH  22  23
ENDBRANCH  13   8
ENDBRANCH  14  11
TORSDOF 9
ENDMDL
MODEL 7
REMARK VINA RESULT:      -6.6     25.818     30.788
REMARK  Name = 26743428
REMARK  11 active torsions:
REMARK  status: ('A' for Active; 'I' for Inactive)
REMARK    1  A    between atoms: S_1  and  C_23
REMARK    2  A    between atoms: S_1  and  C_30
REMARK    3  A    between atoms: O_6  and  C_31
REMARK    4  A    between atoms: N_8  and  C_13
REMARK    5  A    between atoms: N_9  and  C_21
REMARK    6  A    between atoms: C_11  and  C_14
REMARK    7  A    between atoms: C_17  and  C_19
REMARK    8  A    between atoms: C_18  and  C_20
REMARK    9  A    between atoms: C_22  and  C_23
REMARK   10  A    between atoms: C_28  and  C_29
REMARK   11  A    between atoms: C_30  and  C_31
REMARK                            x       y       z     vdW  Elec       q    Type
REMARK                         _______ _______ _______ _____ _____    ______ ____
ROOT
ATOM      9  N   UNL     1       1.851   3.133  -6.179  0.00  0.00    -0.236 N 
ATOM     10  N   UNL     1       2.868   3.306  -7.042  0.00  0.00    -0.171 NA
ATOM     14  C   UNL     1       2.912   4.863  -5.370  0.00  0.00    +0.003 A 
ATOM     17  C   UNL     1       1.832   4.040  -5.161  0.00  0.00    +0.046 A 
ATOM     18  C   UNL     1       3.512   4.364  -6.542  0.00  0.00    +0.064 A 
ATOM     19  C   UNL     1       0.807   4.045  -4.098  0.00  0.00    +0.066 C 
ATOM     20  C   UNL     1       4.714   4.870  -7.229  0.00  0.00    +0.068 C 
ENDROOT
BRANCH   9  21
ATOM     21  C   UNL     1       0.941   2.095  -6.382  0.00  0.00    +0.066 A 
ATOM     24  C   UNL     1       0.008   2.176  -7.415  0.00  0.00    +0.028 A 
ATOM     25  C   UNL     1       0.963   0.977  -5.547  0.00  0.00    +0.028 A 
ATOM     26  C   UNL     1      -0.903   1.139  -7.614  0.00  0.00    +0.014 A 
ATOM     27  C   UNL     1       0.051  -0.060  -5.748  0.00  0.00    +0.014 A 
ATOM     28  C   UNL     1      -0.882   0.022  -6.781  0.00  0.00    +0.055 A 
BRANCH  28  29
ATOM      2  F   UNL     1      -2.024  -1.861  -5.885  0.00  0.00    -0.166 F 
ATOM      3  F   UNL     1      -3.109  -0.657  -7.333  0.00  0.00    -0.166 F 
ATOM      4  F   UNL     1      -1.495  -1.948  -7.992  0.00  0.00    -0.166 F 
ATOM     29  C   UNL     1      -1.857  -1.086  -6.995  0.00  0.00    +0.417 C 
ENDBRANCH  28  29
ENDBRANCH   9  21
BRANCH  14  11
ATOM     11  C   UNL     1       3.353   6.040  -4.531  0.00  0.00    +0.047 C 
ATOM     12  C   UNL     1       4.875   6.070  -4.276  0.00  0.00    +0.039 C 
ATOM     13  C   UNL     1       5.266   7.552  -4.249  0.00  0.00    +0.097 C 
ATOM     15  C   UNL     1       3.105   7.383  -5.155  0.00  0.00    -0.021 C 
ATOM     16  C   UNL     1       4.148   8.204  -4.995  0.00  0.00    -0.009 C 
BRANCH  13   8
ATOM      5  O   UNL     1       7.474   8.959  -3.013  0.00  0.00    -0.275 OA
ATOM      8  N   UNL     1       5.320   8.089  -2.915  0.00  0.00    -0.308 N 
ATOM     22  C   UNL     1       6.427   8.753  -2.401  0.00  0.00    +0.223 C 
ATOM     32  H   UNL     1       4.520   7.935  -2.307  0.00  0.00    +0.149 HD
BRANCH  22  23
ATOM     23  C   UNL     1       6.240   9.205  -0.972  0.00  0.00    +0.165 C 
BRANCH  23   1
ATOM      1  S   UNL     1       4.492   9.058  -0.533  0.00  0.00    -0.140 S 
BRANCH   1  30
ATOM     30  C   UNL     1       4.356  10.518   0.524  0.00  0.00    +0.189 C 
BRANCH  30  31
ATOM      7  O   UNL     1       4.822   9.911   2.811  0.00  0.00    -0.250 OA
ATOM     31  C   UNL     1       4.001  10.092   1.920  0.00  0.00    +0.315 C 
BRANCH  31   6
ATOM      6  O   UNL     1       2.664   9.940   2.098  0.00  0.00    -0.480 OA
ATOM     33  H   UNL     1       2.442   9.703   3.023  0.00  0.00    +0.295 HD
ENDBRANCH  31   6
ENDBRANCH  30  31
ENDBRANCH   1  30
ENDBRANCH  23   1
ENDBRANCH  22  23
ENDBRANCH  13   8
ENDBRANCH  14  11
TORSDOF 9
ENDMDL
MODEL 8
REMARK VINA RESULT:      -6.4     29.393     32.654
REMARK  Name = 26743428
REMARK  11 active torsions:
REMARK  status: ('A' for Active; 'I' for Inactive)
REMARK    1  A    between atoms: S_1  and  C_23
REMARK    2  A    between atoms: S_1  and  C_30
REMARK    3  A    between atoms: O_6  and  C_31
REMARK    4  A    between atoms: N_8  and  C_13
REMARK    5  A    between atoms: N_9  and  C_21
REMARK    6  A    between atoms: C_11  and  C_14
REMARK    7  A    between atoms: C_17  and  C_19
REMARK    8  A    between atoms: C_18  and  C_20
REMARK    9  A    between atoms: C_22  and  C_23
REMARK   10  A    between atoms: C_28  and  C_29
REMARK   11  A    between atoms: C_30  and  C_31
REMARK                            x       y       z     vdW  Elec       q    Type
REMARK                         _______ _______ _______ _____ _____    ______ ____
ROOT
ATOM      9  N   UNL     1      -8.948 -10.919  18.960  0.00  0.00    -0.236 N 
ATOM     10  N   UNL     1      -7.995 -11.009  19.904  0.00  0.00    -0.171 NA
ATOM     14  C   UNL     1      -7.102 -11.060  17.802  0.00  0.00    +0.003 A 
ATOM     17  C   UNL     1      -8.466 -10.946  17.686  0.00  0.00    +0.046 A 
ATOM     18  C   UNL     1      -6.869 -11.094  19.190  0.00  0.00    +0.064 A 
ATOM     19  C   UNL     1      -9.328 -10.863  16.490  0.00  0.00    +0.066 C 
ATOM     20  C   UNL     1      -5.577 -11.210  19.888  0.00  0.00    +0.068 C 
ENDROOT
BRANCH   9  21
ATOM     21  C   UNL     1     -10.288 -10.813  19.338  0.00  0.00    +0.066 A 
ATOM     24  C   UNL     1     -11.041  -9.711  18.935  0.00  0.00    +0.028 A 
ATOM     25  C   UNL     1     -10.871 -11.810  20.121  0.00  0.00    +0.028 A 
ATOM     26  C   UNL     1     -12.379  -9.605  19.316  0.00  0.00    +0.014 A 
ATOM     27  C   UNL     1     -12.209 -11.702  20.502  0.00  0.00    +0.014 A 
ATOM     28  C   UNL     1     -12.962 -10.600  20.099  0.00  0.00    +0.055 A 
BRANCH  28  29
ATOM      2  F   UNL     1     -14.814  -9.189  20.584  0.00  0.00    -0.166 F 
ATOM      3  F   UNL     1     -15.258 -11.099  19.647  0.00  0.00    -0.166 F 
ATOM      4  F   UNL     1     -14.659 -11.031  21.730  0.00  0.00    -0.166 F 
ATOM     29  C   UNL     1     -14.392 -10.484  20.506  0.00  0.00    +0.417 C 
ENDBRANCH  28  29
ENDBRANCH   9  21
BRANCH  14  11
ATOM     11  C   UNL     1      -6.082 -11.133  16.689  0.00  0.00    +0.047 C 
ATOM     12  C   UNL     1      -4.883 -10.184  16.898  0.00  0.00    +0.039 C 
ATOM     13  C   UNL     1      -3.665 -10.915  16.318  0.00  0.00    +0.097 C 
ATOM     15  C   UNL     1      -5.414 -12.469  16.538  0.00  0.00    -0.021 C 
ATOM     16  C   UNL     1      -4.098 -12.344  16.332  0.00  0.00    -0.009 C 
BRANCH  13   8
ATOM      5  O   UNL     1      -1.255 -11.466  14.813  0.00  0.00    -0.275 OA
ATOM      8  N   UNL     1      -3.374 -10.522  14.965  0.00  0.00    -0.308 N 
ATOM     22  C   UNL     1      -2.184 -10.832  14.318  0.00  0.00    +0.223 C 
ATOM     32  H   UNL     1      -4.060  -9.953  14.475  0.00  0.00    +0.149 HD
BRANCH  22  23
ATOM     23  C   UNL     1      -2.115 -10.292  12.908  0.00  0.00    +0.165 C 
BRANCH  23   1
ATOM      1  S   UNL     1      -3.752 -10.417  12.150  0.00  0.00    -0.140 S 
BRANCH   1  30
ATOM     30  C   UNL     1      -3.323  -9.847  10.488  0.00  0.00    +0.189 C 
BRANCH  30  31
ATOM      7  O   UNL     1      -5.063  -8.208  10.804  0.00  0.00    -0.250 OA
ATOM     31  C   UNL     1      -4.317  -8.812  10.044  0.00  0.00    +0.315 C 
BRANCH  31   6
ATOM      6  O   UNL     1      -4.291  -8.603   8.703  0.00  0.00    -0.480 OA
ATOM     33  H   UNL     1      -3.809  -7.782   8.470  0.00  0.00    +0.295 HD
ENDBRANCH  31   6
ENDBRANCH  30  31
ENDBRANCH   1  30
ENDBRANCH  23   1
ENDBRANCH  22  23
ENDBRANCH  13   8
ENDBRANCH  14  11
TORSDOF 9
ENDMDL
MODEL 9
REMARK VINA RESULT:      -6.4      2.759      4.365
REMARK  Name = 26743428
REMARK  11 active torsions:
REMARK  status: ('A' for Active; 'I' for Inactive)
REMARK    1  A    between atoms: S_1  and  C_23
REMARK    2  A    between atoms: S_1  and  C_30
REMARK    3  A    between atoms: O_6  and  C_31
REMARK    4  A    between atoms: N_8  and  C_13
REMARK    5  A    between atoms: N_9  and  C_21
REMARK    6  A    between atoms: C_11  and  C_14
REMARK    7  A    between atoms: C_17  and  C_19
REMARK    8  A    between atoms: C_18  and  C_20
REMARK    9  A    between atoms: C_22  and  C_23
REMARK   10  A    between atoms: C_28  and  C_29
REMARK   11  A    between atoms: C_30  and  C_31
REMARK                            x       y       z     vdW  Elec       q    Type
REMARK                         _______ _______ _______ _____ _____    ______ ____
ROOT
ATOM      9  N   UNL     1      19.523   6.009  20.516  0.00  0.00    -0.236 N 
ATOM     10  N   UNL     1      18.767   5.582  19.490  0.00  0.00    -0.171 NA
ATOM     14  C   UNL     1      17.637   7.074  20.800  0.00  0.00    +0.003 A 
ATOM     17  C   UNL     1      18.893   6.903  21.330  0.00  0.00    +0.046 A 
ATOM     18  C   UNL     1      17.616   6.237  19.669  0.00  0.00    +0.064 A 
ATOM     19  C   UNL     1      19.528   7.505  22.520  0.00  0.00    +0.066 C 
ATOM     20  C   UNL     1      16.509   6.026  18.720  0.00  0.00    +0.068 C 
ENDROOT
BRANCH   9  21
ATOM     21  C   UNL     1      20.826   5.530  20.662  0.00  0.00    +0.066 A 
ATOM     24  C   UNL     1      21.910   6.386  20.476  0.00  0.00    +0.028 A 
ATOM     25  C   UNL     1      21.041   4.191  20.992  0.00  0.00    +0.028 A 
ATOM     26  C   UNL     1      23.211   5.904  20.619  0.00  0.00    +0.014 A 
ATOM     27  C   UNL     1      22.343   3.710  21.135  0.00  0.00    +0.014 A 
ATOM     28  C   UNL     1      23.428   4.567  20.948  0.00  0.00    +0.055 A 
BRANCH  28  29
ATOM      2  F   UNL     1      25.606   4.340  20.023  0.00  0.00    -0.166 F 
ATOM      3  F   UNL     1      25.478   4.566  22.181  0.00  0.00    -0.166 F 
ATOM      4  F   UNL     1      24.888   2.697  21.254  0.00  0.00    -0.166 F 
ATOM     29  C   UNL     1      24.819   4.053  21.100  0.00  0.00    +0.417 C 
ENDBRANCH  28  29
ENDBRANCH   9  21
BRANCH  14  11
ATOM     11  C   UNL     1      16.529   7.962  21.318  0.00  0.00    +0.047 C 
ATOM     12  C   UNL     1      15.915   8.867  20.230  0.00  0.00    +0.039 C 
ATOM     13  C   UNL     1      14.427   8.991  20.579  0.00  0.00    +0.097 C 
ATOM     15  C   UNL     1      15.329   7.226  21.840  0.00  0.00    -0.021 C 
ATOM     16  C   UNL     1      14.187   7.793  21.438  0.00  0.00    -0.009 C 
BRANCH  13   8
ATOM      5  O   UNL     1      13.509  11.536  19.549  0.00  0.00    -0.275 OA
ATOM      8  N   UNL     1      14.130  10.180  21.333  0.00  0.00    -0.308 N 
ATOM     22  C   UNL     1      13.692  11.364  20.753  0.00  0.00    +0.223 C 
ATOM     32  H   UNL     1      14.291  10.161  22.336  0.00  0.00    +0.149 HD
BRANCH  22  23
ATOM     23  C   UNL     1      13.466  12.471  21.756  0.00  0.00    +0.165 C 
BRANCH  23   1
ATOM      1  S   UNL     1      13.302  11.745  23.405  0.00  0.00    -0.140 S 
BRANCH   1  30
ATOM     30  C   UNL     1      11.500  11.600  23.455  0.00  0.00    +0.189 C 
BRANCH  30  31
ATOM      7  O   UNL     1      10.500  12.502  25.455  0.00  0.00    -0.250 OA
ATOM     31  C   UNL     1      11.043  11.564  24.886  0.00  0.00    +0.315 C 
BRANCH  31   6
ATOM      6  O   UNL     1      11.283  10.369  25.483  0.00  0.00    -0.480 OA
ATOM     33  H   UNL     1      10.705  10.226  26.262  0.00  0.00    +0.295 HD
ENDBRANCH  31   6
ENDBRANCH  30  31
ENDBRANCH   1  30
ENDBRANCH  23   1
ENDBRANCH  22  23
ENDBRANCH  13   8
ENDBRANCH  14  11
TORSDOF 9
ENDMDL
MODEL 10
REMARK VINA RESULT:      -6.3     29.047     32.507
REMARK  Name = 26743428
REMARK  11 active torsions:
REMARK  status: ('A' for Active; 'I' for Inactive)
REMARK    1  A    between atoms: S_1  and  C_23
REMARK    2  A    between atoms: S_1  and  C_30
REMARK    3  A    between atoms: O_6  and  C_31
REMARK    4  A    between atoms: N_8  and  C_13
REMARK    5  A    between atoms: N_9  and  C_21
REMARK    6  A    between atoms: C_11  and  C_14
REMARK    7  A    between atoms: C_17  and  C_19
REMARK    8  A    between atoms: C_18  and  C_20
REMARK    9  A    between atoms: C_22  and  C_23
REMARK   10  A    between atoms: C_28  and  C_29
REMARK   11  A    between atoms: C_30  and  C_31
REMARK                            x       y       z     vdW  Elec       q    Type
REMARK                         _______ _______ _______ _____ _____    ______ ____
ROOT
ATOM      9  N   UNL     1      -7.036 -10.266  17.066  0.00  0.00    -0.236 N 
ATOM     10  N   UNL     1      -7.700  -9.123  16.821  0.00  0.00    -0.171 NA
ATOM     14  C   UNL     1      -8.932 -10.548  18.113  0.00  0.00    +0.003 A 
ATOM     17  C   UNL     1      -7.731 -11.152  17.834  0.00  0.00    +0.046 A 
ATOM     18  C   UNL     1      -8.858  -9.301  17.463  0.00  0.00    +0.064 A 
ATOM     19  C   UNL     1      -7.201 -12.473  18.229  0.00  0.00    +0.066 C 
ATOM     20  C   UNL     1      -9.876  -8.238  17.427  0.00  0.00    +0.068 C 
ENDROOT
BRANCH   9  21
ATOM     21  C   UNL     1      -5.756 -10.448  16.542  0.00  0.00    +0.066 A 
ATOM     24  C   UNL     1      -4.666 -10.604  17.399  0.00  0.00    +0.028 A 
ATOM     25  C   UNL     1      -5.566 -10.471  15.160  0.00  0.00    +0.028 A 
ATOM     26  C   UNL     1      -3.387 -10.783  16.873  0.00  0.00    +0.014 A 
ATOM     27  C   UNL     1      -4.286 -10.650  14.635  0.00  0.00    +0.014 A 
ATOM     28  C   UNL     1      -3.196 -10.805  15.492  0.00  0.00    +0.055 A 
BRANCH  28  29
ATOM      2  F   UNL     1      -1.618 -12.266  14.479  0.00  0.00    -0.166 F 
ATOM      3  F   UNL     1      -1.550 -10.180  13.873  0.00  0.00    -0.166 F 
ATOM      4  F   UNL     1      -0.829 -10.760  15.834  0.00  0.00    -0.166 F 
ATOM     29  C   UNL     1      -1.828 -10.996  14.932  0.00  0.00    +0.417 C 
ENDBRANCH  28  29
ENDBRANCH   9  21
BRANCH  14  11
ATOM     11  C   UNL     1     -10.077 -11.099  18.932  0.00  0.00    +0.047 C 
ATOM     12  C   UNL     1     -10.595 -10.112  19.997  0.00  0.00    +0.039 C 
ATOM     13  C   UNL     1     -12.107 -10.353  20.092  0.00  0.00    +0.097 C 
ATOM     15  C   UNL     1     -11.318 -11.408  18.146  0.00  0.00    -0.021 C 
ATOM     16  C   UNL     1     -12.421 -11.003  18.785  0.00  0.00    -0.009 C 
BRANCH  13   8
ATOM      5  O   UNL     1     -14.739 -10.787  21.217  0.00  0.00    -0.275 OA
ATOM      8  N   UNL     1     -12.461 -11.249  21.162  0.00  0.00    -0.308 N 
ATOM     22  C   UNL     1     -13.757 -11.393  21.640  0.00  0.00    +0.223 C 
ATOM     32  H   UNL     1     -11.714 -11.768  21.615  0.00  0.00    +0.149 HD
BRANCH  22  23
ATOM     23  C   UNL     1     -13.865 -12.382  22.778  0.00  0.00    +0.165 C 
BRANCH  23   1
ATOM      1  S   UNL     1     -13.655 -14.055  22.124  0.00  0.00    -0.140 S 
BRANCH   1  30
ATOM     30  C   UNL     1     -12.208 -14.543  23.093  0.00  0.00    +0.189 C 
BRANCH  30  31
ATOM      7  O   UNL     1     -10.924 -13.699  21.235  0.00  0.00    -0.250 OA
ATOM     31  C   UNL     1     -10.969 -14.360  22.264  0.00  0.00    +0.315 C 
BRANCH  31   6
ATOM      6  O   UNL     1      -9.890 -14.998  22.787  0.00  0.00    -0.480 OA
ATOM     33  H   UNL     1     -10.117 -15.896  23.109  0.00  0.00    +0.295 HD
ENDBRANCH  31   6
ENDBRANCH  30  31
ENDBRANCH   1  30
ENDBRANCH  23   1
ENDBRANCH  22  23
ENDBRANCH  13   8
ENDBRANCH  14  11
TORSDOF 9
ENDMDL
