MODEL 1
REMARK VINA RESULT:      -8.0      0.000      0.000
REMARK  Name = 11884110
REMARK  9 active torsions:
REMARK  status: ('A' for Active; 'I' for Inactive)
REMARK    1  A    between atoms: S_2  and  N_9
REMARK    2  A    between atoms: S_2  and  C_17
REMARK    3  A    between atoms: O_5  and  C_14
REMARK    4  A    between atoms: O_5  and  C_18
REMARK    5  A    between atoms: N_9  and  C_13
REMARK    6  A    between atoms: N_10  and  C_21
REMARK    7  A    between atoms: C_27  and  C_28
REMARK    8  A    between atoms: C_28  and  C_31
REMARK    9  A    between atoms: C_28  and  C_32
REMARK                            x       y       z     vdW  Elec       q    Type
REMARK                         _______ _______ _______ _____ _____    ______ ____
ROOT
ATOM      3  O   UNL     1      16.339   8.314  20.937  0.00  0.00    -0.369 OA
ATOM      4  O   UNL     1      15.992   5.877  19.092  0.00  0.00    -0.368 OA
ATOM     11  C   UNL     1      15.365   6.233  20.343  0.00  0.00    +0.171 C 
ATOM     12  C   UNL     1      16.427   6.902  21.192  0.00  0.00    +0.191 C 
ATOM     13  C   UNL     1      14.343   7.319  20.116  0.00  0.00    +0.133 C 
ATOM     14  C   UNL     1      17.706   6.315  20.642  0.00  0.00    +0.235 C 
ATOM     15  C   UNL     1      15.184   8.581  20.127  0.00  0.00    +0.183 C 
ATOM     16  C   UNL     1      17.390   6.189  19.169  0.00  0.00    +0.207 C 
ENDROOT
BRANCH  13   9
ATOM      9  N   UNL     1      13.378   7.349  21.240  0.00  0.00    -0.182 NA
ATOM     33  H   UNL     1      13.680   6.954  22.139  0.00  0.00    +0.148 HD
BRANCH   9   2
ATOM      2  S   UNL     1      11.734   7.644  20.935  0.00  0.00    +0.059 S 
ATOM      6  O   UNL     1      10.926   6.735  21.725  0.00  0.00    -0.153 OA
ATOM      7  O   UNL     1      11.535   7.739  19.501  0.00  0.00    -0.153 OA
BRANCH   2  17
ATOM      1 CL   UNL     1      10.994  13.404  23.262  0.00  0.00    -0.084 Cl
ATOM     17  C   UNL     1      11.526   9.272  21.592  0.00  0.00    +0.105 A 
ATOM     19  C   UNL     1      10.957   9.426  22.844  0.00  0.00    +0.030 A 
ATOM     20  C   UNL     1      11.934  10.361  20.843  0.00  0.00    +0.030 A 
ATOM     22  C   UNL     1      10.792  10.711  23.363  0.00  0.00    +0.022 A 
ATOM     23  C   UNL     1      11.769  11.645  21.362  0.00  0.00    +0.022 A 
ATOM     24  C   UNL     1      11.198  11.820  22.621  0.00  0.00    +0.041 A 
ENDBRANCH   2  17
ENDBRANCH   9   2
ENDBRANCH  13   9
BRANCH  14   5
ATOM      5  O   UNL     1      18.840   7.118  20.875  0.00  0.00    -0.442 OA
BRANCH   5  18
ATOM      8  O   UNL     1      20.340   6.720  22.554  0.00  0.00    -0.226 OA
ATOM     10  N   UNL     1      20.489   5.629  20.489  0.00  0.00    -0.251 N 
ATOM     18  C   UNL     1      19.946   6.496  21.416  0.00  0.00    +0.405 C 
ATOM     34  H   UNL     1      20.015   5.579  19.590  0.00  0.00    +0.158 HD
BRANCH  10  21
ATOM     21  C   UNL     1      21.623   4.797  20.633  0.00  0.00    +0.036 A 
ATOM     25  C   UNL     1      22.864   5.265  20.234  0.00  0.00    +0.024 A 
ATOM     26  C   UNL     1      21.470   3.529  21.172  0.00  0.00    +0.024 A 
ATOM     27  C   UNL     1      23.846   3.166  20.918  0.00  0.00    -0.045 A 
ATOM     29  C   UNL     1      23.983   4.444  20.377  0.00  0.00    +0.006 A 
ATOM     30  C   UNL     1      22.589   2.708  21.316  0.00  0.00    +0.006 A 
BRANCH  27  28
ATOM     28  C   UNL     1      25.042   2.289  21.071  0.00  0.00    +0.013 C 
ATOM     31  C   UNL     1      26.080   2.874  22.047  0.00  0.00    +0.012 C 
ATOM     32  C   UNL     1      24.669   0.857  21.500  0.00  0.00    +0.012 C 
ENDBRANCH  27  28
ENDBRANCH  10  21
ENDBRANCH   5  18
ENDBRANCH  14   5
TORSDOF 7
ENDMDL
MODEL 2
REMARK VINA RESULT:      -7.5     28.861     33.141
REMARK  Name = 11884110
REMARK  9 active torsions:
REMARK  status: ('A' for Active; 'I' for Inactive)
REMARK    1  A    between atoms: S_2  and  N_9
REMARK    2  A    between atoms: S_2  and  C_17
REMARK    3  A    between atoms: O_5  and  C_14
REMARK    4  A    between atoms: O_5  and  C_18
REMARK    5  A    between atoms: N_9  and  C_13
REMARK    6  A    between atoms: N_10  and  C_21
REMARK    7  A    between atoms: C_27  and  C_28
REMARK    8  A    between atoms: C_28  and  C_31
REMARK    9  A    between atoms: C_28  and  C_32
REMARK                            x       y       z     vdW  Elec       q    Type
REMARK                         _______ _______ _______ _____ _____    ______ ____
ROOT
ATOM      3  O   UNL     1     -10.933  -7.834  17.544  0.00  0.00    -0.369 OA
ATOM      4  O   UNL     1     -10.141  -9.034  14.824  0.00  0.00    -0.368 OA
ATOM     11  C   UNL     1      -9.354  -8.646  15.970  0.00  0.00    +0.171 C 
ATOM     12  C   UNL     1      -9.996  -7.399  16.544  0.00  0.00    +0.191 C 
ATOM     13  C   UNL     1      -9.503  -9.671  17.067  0.00  0.00    +0.133 C 
ATOM     14  C   UNL     1     -10.696  -6.808  15.343  0.00  0.00    +0.235 C 
ATOM     15  C   UNL     1     -10.788  -9.247  17.752  0.00  0.00    +0.183 C 
ATOM     16  C   UNL     1     -11.154  -8.043  14.601  0.00  0.00    +0.207 C 
ENDROOT
BRANCH  13   9
ATOM      9  N   UNL     1      -8.370  -9.564  18.017  0.00  0.00    -0.182 NA
ATOM     33  H   UNL     1      -7.885  -8.661  18.082  0.00  0.00    +0.148 HD
BRANCH   9   2
ATOM      2  S   UNL     1      -7.663 -10.972  18.650  0.00  0.00    +0.059 S 
ATOM      6  O   UNL     1      -8.359 -12.135  18.134  0.00  0.00    -0.153 OA
ATOM      7  O   UNL     1      -7.484 -10.803  20.079  0.00  0.00    -0.153 OA
BRANCH   2  17
ATOM      1 CL   UNL     1      -1.967 -10.835  16.067  0.00  0.00    -0.084 Cl
ATOM     17  C   UNL     1      -6.054 -10.933  17.921  0.00  0.00    +0.105 A 
ATOM     19  C   UNL     1      -5.896 -10.378  16.662  0.00  0.00    +0.030 A 
ATOM     20  C   UNL     1      -4.981 -11.458  18.620  0.00  0.00    +0.030 A 
ATOM     22  C   UNL     1      -4.625 -10.347  16.086  0.00  0.00    +0.022 A 
ATOM     23  C   UNL     1      -3.712 -11.427  18.044  0.00  0.00    +0.022 A 
ATOM     24  C   UNL     1      -3.533 -10.873  16.778  0.00  0.00    +0.041 A 
ENDBRANCH   2  17
ENDBRANCH   9   2
ENDBRANCH  13   9
BRANCH  14   5
ATOM      5  O   UNL     1     -11.770  -5.960  15.679  0.00  0.00    -0.442 OA
BRANCH   5  18
ATOM      8  O   UNL     1     -13.736  -6.446  14.618  0.00  0.00    -0.226 OA
ATOM     10  N   UNL     1     -12.363  -4.687  13.913  0.00  0.00    -0.251 N 
ATOM     18  C   UNL     1     -12.730  -5.754  14.710  0.00  0.00    +0.405 C 
ATOM     34  H   UNL     1     -11.484  -4.233  14.149  0.00  0.00    +0.158 HD
BRANCH  10  21
ATOM     21  C   UNL     1     -13.060  -4.144  12.810  0.00  0.00    +0.036 A 
ATOM     25  C   UNL     1     -14.324  -3.610  13.000  0.00  0.00    +0.024 A 
ATOM     26  C   UNL     1     -12.463  -4.155  11.559  0.00  0.00    +0.024 A 
ATOM     27  C   UNL     1     -14.424  -3.077  10.646  0.00  0.00    -0.045 A 
ATOM     29  C   UNL     1     -15.010  -3.073  11.911  0.00  0.00    +0.006 A 
ATOM     30  C   UNL     1     -13.150  -3.618  10.469  0.00  0.00    +0.006 A 
BRANCH  27  28
ATOM     28  C   UNL     1     -15.158  -2.503   9.481  0.00  0.00    +0.013 C 
ATOM     31  C   UNL     1     -15.810  -1.147   9.807  0.00  0.00    +0.012 C 
ATOM     32  C   UNL     1     -14.266  -2.369   8.232  0.00  0.00    +0.012 C 
ENDBRANCH  27  28
ENDBRANCH  10  21
ENDBRANCH   5  18
ENDBRANCH  14   5
TORSDOF 7
ENDMDL
MODEL 3
REMARK VINA RESULT:      -7.3     27.422     31.081
REMARK  Name = 11884110
REMARK  9 active torsions:
REMARK  status: ('A' for Active; 'I' for Inactive)
REMARK    1  A    between atoms: S_2  and  N_9
REMARK    2  A    between atoms: S_2  and  C_17
REMARK    3  A    between atoms: O_5  and  C_14
REMARK    4  A    between atoms: O_5  and  C_18
REMARK    5  A    between atoms: N_9  and  C_13
REMARK    6  A    between atoms: N_10  and  C_21
REMARK    7  A    between atoms: C_27  and  C_28
REMARK    8  A    between atoms: C_28  and  C_31
REMARK    9  A    between atoms: C_28  and  C_32
REMARK                            x       y       z     vdW  Elec       q    Type
REMARK                         _______ _______ _______ _____ _____    ______ ____
ROOT
ATOM      3  O   UNL     1      -3.148 -10.396  16.801  0.00  0.00    -0.369 OA
ATOM      4  O   UNL     1      -4.347 -12.987  15.656  0.00  0.00    -0.368 OA
ATOM     11  C   UNL     1      -4.242 -11.654  15.112  0.00  0.00    +0.171 C 
ATOM     12  C   UNL     1      -4.448 -10.692  16.265  0.00  0.00    +0.191 C 
ATOM     13  C   UNL     1      -2.825 -11.390  14.667  0.00  0.00    +0.133 C 
ATOM     14  C   UNL     1      -5.277 -11.507  17.229  0.00  0.00    +0.235 C 
ATOM     15  C   UNL     1      -2.141 -10.968  15.952  0.00  0.00    +0.183 C 
ATOM     16  C   UNL     1      -4.711 -12.896  17.041  0.00  0.00    +0.207 C 
ENDROOT
BRANCH  13   9
ATOM      9  N   UNL     1      -2.800 -10.271  13.695  0.00  0.00    -0.182 NA
ATOM     33  H   UNL     1      -3.287  -9.404  13.952  0.00  0.00    +0.148 HD
BRANCH   9   2
ATOM      2  S   UNL     1      -2.347 -10.561  12.085  0.00  0.00    +0.059 S 
ATOM      6  O   UNL     1      -2.379 -11.988  11.824  0.00  0.00    -0.153 OA
ATOM      7  O   UNL     1      -1.153  -9.792  11.789  0.00  0.00    -0.153 OA
BRANCH   2  17
ATOM      1 CL   UNL     1      -7.049  -7.915   8.918  0.00  0.00    -0.084 Cl
ATOM     17  C   UNL     1      -3.676  -9.814  11.190  0.00  0.00    +0.105 A 
ATOM     19  C   UNL     1      -3.437  -9.309   9.924  0.00  0.00    +0.030 A 
ATOM     20  C   UNL     1      -4.930  -9.747  11.772  0.00  0.00    +0.030 A 
ATOM     22  C   UNL     1      -4.486  -8.719   9.218  0.00  0.00    +0.022 A 
ATOM     23  C   UNL     1      -5.977  -9.157  11.066  0.00  0.00    +0.022 A 
ATOM     24  C   UNL     1      -5.756  -8.643   9.789  0.00  0.00    +0.041 A 
ENDBRANCH   2  17
ENDBRANCH   9   2
ENDBRANCH  13   9
BRANCH  14   5
ATOM      5  O   UNL     1      -5.178 -11.070  18.565  0.00  0.00    -0.442 OA
BRANCH   5  18
ATOM      8  O   UNL     1      -6.386 -10.289  20.342  0.00  0.00    -0.226 OA
ATOM     10  N   UNL     1      -7.425 -11.015  18.374  0.00  0.00    -0.251 N 
ATOM     18  C   UNL     1      -6.356 -10.745  19.206  0.00  0.00    +0.405 C 
ATOM     34  H   UNL     1      -7.196 -11.394  17.459  0.00  0.00    +0.158 HD
BRANCH  10  21
ATOM     21  C   UNL     1      -8.802 -10.829  18.637  0.00  0.00    +0.036 A 
ATOM     25  C   UNL     1      -9.482  -9.803  18.003  0.00  0.00    +0.024 A 
ATOM     26  C   UNL     1      -9.444 -11.679  19.525  0.00  0.00    +0.024 A 
ATOM     27  C   UNL     1     -11.501 -10.466  19.152  0.00  0.00    -0.045 A 
ATOM     29  C   UNL     1     -10.840  -9.620  18.262  0.00  0.00    +0.006 A 
ATOM     30  C   UNL     1     -10.802 -11.496  19.784  0.00  0.00    +0.006 A 
BRANCH  27  28
ATOM     28  C   UNL     1     -12.953 -10.271  19.429  0.00  0.00    +0.013 C 
ATOM     31  C   UNL     1     -13.205  -9.524  20.753  0.00  0.00    +0.012 C 
ATOM     32  C   UNL     1     -13.681  -9.553  18.277  0.00  0.00    +0.012 C 
ENDBRANCH  27  28
ENDBRANCH  10  21
ENDBRANCH   5  18
ENDBRANCH  14   5
TORSDOF 7
ENDMDL
MODEL 4
REMARK VINA RESULT:      -7.2     27.556     31.232
REMARK  Name = 11884110
REMARK  9 active torsions:
REMARK  status: ('A' for Active; 'I' for Inactive)
REMARK    1  A    between atoms: S_2  and  N_9
REMARK    2  A    between atoms: S_2  and  C_17
REMARK    3  A    between atoms: O_5  and  C_14
REMARK    4  A    between atoms: O_5  and  C_18
REMARK    5  A    between atoms: N_9  and  C_13
REMARK    6  A    between atoms: N_10  and  C_21
REMARK    7  A    between atoms: C_27  and  C_28
REMARK    8  A    between atoms: C_28  and  C_31
REMARK    9  A    between atoms: C_28  and  C_32
REMARK                            x       y       z     vdW  Elec       q    Type
REMARK                         _______ _______ _______ _____ _____    ______ ____
ROOT
ATOM      3  O   UNL     1      -6.571 -11.854  16.466  0.00  0.00    -0.369 OA
ATOM      4  O   UNL     1      -4.675 -10.685  18.589  0.00  0.00    -0.368 OA
ATOM     11  C   UNL     1      -4.471 -11.675  17.558  0.00  0.00    +0.171 C 
ATOM     12  C   UNL     1      -5.751 -12.482  17.465  0.00  0.00    +0.191 C 
ATOM     13  C   UNL     1      -4.366 -11.003  16.212  0.00  0.00    +0.133 C 
ATOM     14  C   UNL     1      -6.339 -12.327  18.848  0.00  0.00    +0.235 C 
ATOM     15  C   UNL     1      -5.818 -10.821  15.812  0.00  0.00    +0.183 C 
ATOM     16  C   UNL     1      -5.954 -10.908  19.200  0.00  0.00    +0.207 C 
ENDROOT
BRANCH  13   9
ATOM      9  N   UNL     1      -3.690 -11.903  15.248  0.00  0.00    -0.182 NA
ATOM     33  H   UNL     1      -4.009 -12.878  15.200  0.00  0.00    +0.148 HD
BRANCH   9   2
ATOM      2  S   UNL     1      -2.203 -11.448  14.568  0.00  0.00    +0.059 S 
ATOM      6  O   UNL     1      -1.427 -12.635  14.263  0.00  0.00    -0.153 OA
ATOM      7  O   UNL     1      -1.627 -10.386  15.371  0.00  0.00    -0.153 OA
BRANCH   2  17
ATOM      1 CL   UNL     1      -3.989  -8.870   9.154  0.00  0.00    -0.084 Cl
ATOM     17  C   UNL     1      -2.708 -10.720  13.038  0.00  0.00    +0.105 A 
ATOM     19  C   UNL     1      -1.747 -10.202  12.187  0.00  0.00    +0.030 A 
ATOM     20  C   UNL     1      -4.054 -10.680  12.720  0.00  0.00    +0.030 A 
ATOM     22  C   UNL     1      -2.145  -9.628  10.980  0.00  0.00    +0.022 A 
ATOM     23  C   UNL     1      -4.452 -10.106  11.513  0.00  0.00    +0.022 A 
ATOM     24  C   UNL     1      -3.498  -9.579  10.643  0.00  0.00    +0.041 A 
ENDBRANCH   2  17
ENDBRANCH   9   2
ENDBRANCH  13   9
BRANCH  14   5
ATOM      5  O   UNL     1      -7.733 -12.526  18.893  0.00  0.00    -0.442 OA
BRANCH   5  18
ATOM      8  O   UNL     1      -8.803 -10.872  20.053  0.00  0.00    -0.226 OA
ATOM     10  N   UNL     1      -8.910 -11.001  17.718  0.00  0.00    -0.251 N 
ATOM     18  C   UNL     1      -8.522 -11.398  18.983  0.00  0.00    +0.405 C 
ATOM     34  H   UNL     1      -8.572 -11.570  16.946  0.00  0.00    +0.158 HD
BRANCH  10  21
ATOM     21  C   UNL     1      -9.719  -9.898  17.361  0.00  0.00    +0.036 A 
ATOM     25  C   UNL     1      -9.124  -8.758  16.847  0.00  0.00    +0.024 A 
ATOM     26  C   UNL     1     -11.092  -9.980  17.533  0.00  0.00    +0.024 A 
ATOM     27  C   UNL     1     -11.306  -7.737  16.660  0.00  0.00    -0.045 A 
ATOM     29  C   UNL     1      -9.923  -7.670  16.494  0.00  0.00    +0.006 A 
ATOM     30  C   UNL     1     -11.891  -8.892  17.180  0.00  0.00    +0.006 A 
BRANCH  27  28
ATOM     28  C   UNL     1     -12.160  -6.574  16.283  0.00  0.00    +0.013 C 
ATOM     31  C   UNL     1     -11.569  -5.763  15.114  0.00  0.00    +0.012 C 
ATOM     32  C   UNL     1     -13.607  -6.990  15.952  0.00  0.00    +0.012 C 
ENDBRANCH  27  28
ENDBRANCH  10  21
ENDBRANCH   5  18
ENDBRANCH  14   5
TORSDOF 7
ENDMDL
MODEL 5
REMARK VINA RESULT:      -7.2     27.790     31.979
REMARK  Name = 11884110
REMARK  9 active torsions:
REMARK  status: ('A' for Active; 'I' for Inactive)
REMARK    1  A    between atoms: S_2  and  N_9
REMARK    2  A    between atoms: S_2  and  C_17
REMARK    3  A    between atoms: O_5  and  C_14
REMARK    4  A    between atoms: O_5  and  C_18
REMARK    5  A    between atoms: N_9  and  C_13
REMARK    6  A    between atoms: N_10  and  C_21
REMARK    7  A    between atoms: C_27  and  C_28
REMARK    8  A    between atoms: C_28  and  C_31
REMARK    9  A    between atoms: C_28  and  C_32
REMARK                            x       y       z     vdW  Elec       q    Type
REMARK                         _______ _______ _______ _____ _____    ______ ____
ROOT
ATOM      3  O   UNL     1      -5.601 -10.110  16.544  0.00  0.00    -0.369 OA
ATOM      4  O   UNL     1      -4.459 -11.680  18.931  0.00  0.00    -0.368 OA
ATOM     11  C   UNL     1      -4.589 -12.016  17.533  0.00  0.00    +0.171 C 
ATOM     12  C   UNL     1      -5.899 -11.419  17.057  0.00  0.00    +0.191 C 
ATOM     13  C   UNL     1      -3.543 -11.285  16.729  0.00  0.00    +0.133 C 
ATOM     14  C   UNL     1      -6.709 -11.349  18.330  0.00  0.00    +0.235 C 
ATOM     15  C   UNL     1      -4.177  -9.925  16.507  0.00  0.00    +0.183 C 
ATOM     16  C   UNL     1      -5.654 -11.013  19.360  0.00  0.00    +0.207 C 
ENDROOT
BRANCH  13   9
ATOM      9  N   UNL     1      -3.340 -11.962  15.426  0.00  0.00    -0.182 NA
ATOM     33  H   UNL     1      -3.934 -12.772  15.212  0.00  0.00    +0.148 HD
BRANCH   9   2
ATOM      2  S   UNL     1      -1.930 -11.664  14.529  0.00  0.00    +0.059 S 
ATOM      6  O   UNL     1      -1.350 -12.925  14.108  0.00  0.00    -0.153 OA
ATOM      7  O   UNL     1      -1.122 -10.690  15.239  0.00  0.00    -0.153 OA
BRANCH   2  17
ATOM      1 CL   UNL     1      -4.203  -8.799   9.454  0.00  0.00    -0.084 Cl
ATOM     17  C   UNL     1      -2.572 -10.854  13.095  0.00  0.00    +0.105 A 
ATOM     19  C   UNL     1      -3.943 -10.781  12.918  0.00  0.00    +0.030 A 
ATOM     20  C   UNL     1      -1.693 -10.309  12.176  0.00  0.00    +0.030 A 
ATOM     22  C   UNL     1      -4.449 -10.142  11.786  0.00  0.00    +0.022 A 
ATOM     23  C   UNL     1      -2.199  -9.670  11.045  0.00  0.00    +0.022 A 
ATOM     24  C   UNL     1      -3.577  -9.587  10.849  0.00  0.00    +0.041 A 
ENDBRANCH   2  17
ENDBRANCH   9   2
ENDBRANCH  13   9
BRANCH  14   5
ATOM      5  O   UNL     1      -7.737 -10.386  18.289  0.00  0.00    -0.442 OA
BRANCH   5  18
ATOM      8  O   UNL     1      -9.319 -12.007  18.601  0.00  0.00    -0.226 OA
ATOM     10  N   UNL     1      -9.825  -9.735  18.839  0.00  0.00    -0.251 N 
ATOM     18  C   UNL     1      -9.012 -10.821  18.584  0.00  0.00    +0.405 C 
ATOM     34  H   UNL     1      -9.385  -8.820  18.777  0.00  0.00    +0.158 HD
BRANCH  10  21
ATOM     21  C   UNL     1     -11.197  -9.734  19.180  0.00  0.00    +0.036 A 
ATOM     25  C   UNL     1     -12.144  -9.546  18.186  0.00  0.00    +0.024 A 
ATOM     26  C   UNL     1     -11.569  -9.922  20.502  0.00  0.00    +0.024 A 
ATOM     27  C   UNL     1     -13.887  -9.734  19.848  0.00  0.00    -0.045 A 
ATOM     29  C   UNL     1     -13.498  -9.546  18.523  0.00  0.00    +0.006 A 
ATOM     30  C   UNL     1     -12.922  -9.922  20.839  0.00  0.00    +0.006 A 
BRANCH  27  28
ATOM     28  C   UNL     1     -15.334  -9.734  20.208  0.00  0.00    +0.013 C 
ATOM     31  C   UNL     1     -15.765 -11.032  20.915  0.00  0.00    +0.012 C 
ATOM     32  C   UNL     1     -15.728  -8.516  21.066  0.00  0.00    +0.012 C 
ENDBRANCH  27  28
ENDBRANCH  10  21
ENDBRANCH   5  18
ENDBRANCH  14   5
TORSDOF 7
ENDMDL
MODEL 6
REMARK VINA RESULT:      -7.2     27.749     30.525
REMARK  Name = 11884110
REMARK  9 active torsions:
REMARK  status: ('A' for Active; 'I' for Inactive)
REMARK    1  A    between atoms: S_2  and  N_9
REMARK    2  A    between atoms: S_2  and  C_17
REMARK    3  A    between atoms: O_5  and  C_14
REMARK    4  A    between atoms: O_5  and  C_18
REMARK    5  A    between atoms: N_9  and  C_13
REMARK    6  A    between atoms: N_10  and  C_21
REMARK    7  A    between atoms: C_27  and  C_28
REMARK    8  A    between atoms: C_28  and  C_31
REMARK    9  A    between atoms: C_28  and  C_32
REMARK                            x       y       z     vdW  Elec       q    Type
REMARK                         _______ _______ _______ _____ _____    ______ ____
ROOT
ATOM      3  O   UNL     1      -7.702 -13.130  18.456  0.00  0.00    -0.369 OA
ATOM      4  O   UNL     1      -7.022 -10.611  20.086  0.00  0.00    -0.368 OA
ATOM     11  C   UNL     1      -7.968 -10.841  19.020  0.00  0.00    +0.171 C 
ATOM     12  C   UNL     1      -7.315 -11.807  18.052  0.00  0.00    +0.191 C 
ATOM     13  C   UNL     1      -9.160 -11.602  19.546  0.00  0.00    +0.133 C 
ATOM     14  C   UNL     1      -5.843 -11.559  18.284  0.00  0.00    +0.235 C 
ATOM     15  C   UNL     1      -8.687 -13.043  19.496  0.00  0.00    +0.183 C 
ATOM     16  C   UNL     1      -5.797 -11.289  19.771  0.00  0.00    +0.207 C 
ENDROOT
BRANCH  13   9
ATOM      9  N   UNL     1     -10.317 -11.423  18.637  0.00  0.00    -0.182 NA
ATOM     33  H   UNL     1     -10.187 -11.660  17.647  0.00  0.00    +0.148 HD
BRANCH   9   2
ATOM      2  S   UNL     1     -11.644 -10.488  19.135  0.00  0.00    +0.059 S 
ATOM      6  O   UNL     1     -11.372  -9.921  20.442  0.00  0.00    -0.153 OA
ATOM      7  O   UNL     1     -12.860 -11.245  18.906  0.00  0.00    -0.153 OA
BRANCH   2  17
ATOM      1 CL   UNL     1     -11.583  -5.826  14.964  0.00  0.00    -0.084 Cl
ATOM     17  C   UNL     1     -11.627  -9.171  17.956  0.00  0.00    +0.105 A 
ATOM     19  C   UNL     1     -10.457  -8.460  17.756  0.00  0.00    +0.030 A 
ATOM     20  C   UNL     1     -12.783  -8.876  17.256  0.00  0.00    +0.030 A 
ATOM     22  C   UNL     1     -10.444  -7.420  16.825  0.00  0.00    +0.022 A 
ATOM     23  C   UNL     1     -12.770  -7.836  16.326  0.00  0.00    +0.022 A 
ATOM     24  C   UNL     1     -11.600  -7.108  16.111  0.00  0.00    +0.041 A 
ENDBRANCH   2  17
ENDBRANCH   9   2
ENDBRANCH  13   9
BRANCH  14   5
ATOM      5  O   UNL     1      -5.025 -12.646  17.916  0.00  0.00    -0.442 OA
BRANCH   5  18
ATOM      8  O   UNL     1      -4.642 -13.737  15.944  0.00  0.00    -0.226 OA
ATOM     10  N   UNL     1      -4.198 -11.452  16.191  0.00  0.00    -0.251 N 
ATOM     18  C   UNL     1      -4.616 -12.703  16.600  0.00  0.00    +0.405 C 
ATOM     34  H   UNL     1      -4.252 -10.711  16.886  0.00  0.00    +0.158 HD
BRANCH  10  21
ATOM     21  C   UNL     1      -3.704 -11.071  14.922  0.00  0.00    +0.036 A 
ATOM     25  C   UNL     1      -2.372 -10.712  14.792  0.00  0.00    +0.024 A 
ATOM     26  C   UNL     1      -4.562 -11.062  13.834  0.00  0.00    +0.024 A 
ATOM     27  C   UNL     1      -2.735 -10.323  12.435  0.00  0.00    -0.045 A 
ATOM     29  C   UNL     1      -1.885 -10.336  13.540  0.00  0.00    +0.006 A 
ATOM     30  C   UNL     1      -4.075 -10.687  12.582  0.00  0.00    +0.006 A 
BRANCH  27  28
ATOM     28  C   UNL     1      -2.215  -9.922  11.097  0.00  0.00    +0.013 C 
ATOM     31  C   UNL     1      -3.265  -9.171  10.257  0.00  0.00    +0.012 C 
ATOM     32  C   UNL     1      -0.926  -9.083  11.194  0.00  0.00    +0.012 C 
ENDBRANCH  27  28
ENDBRANCH  10  21
ENDBRANCH   5  18
ENDBRANCH  14   5
TORSDOF 7
ENDMDL
MODEL 7
REMARK VINA RESULT:      -7.0     27.928     31.266
REMARK  Name = 11884110
REMARK  9 active torsions:
REMARK  status: ('A' for Active; 'I' for Inactive)
REMARK    1  A    between atoms: S_2  and  N_9
REMARK    2  A    between atoms: S_2  and  C_17
REMARK    3  A    between atoms: O_5  and  C_14
REMARK    4  A    between atoms: O_5  and  C_18
REMARK    5  A    between atoms: N_9  and  C_13
REMARK    6  A    between atoms: N_10  and  C_21
REMARK    7  A    between atoms: C_27  and  C_28
REMARK    8  A    between atoms: C_28  and  C_31
REMARK    9  A    between atoms: C_28  and  C_32
REMARK                            x       y       z     vdW  Elec       q    Type
REMARK                         _______ _______ _______ _____ _____    ______ ____
ROOT
ATOM      3  O   UNL     1      -5.751 -10.186  17.176  0.00  0.00    -0.369 OA
ATOM      4  O   UNL     1      -4.494 -12.323  18.998  0.00  0.00    -0.368 OA
ATOM     11  C   UNL     1      -4.859 -12.343  17.601  0.00  0.00    +0.171 C 
ATOM     12  C   UNL     1      -6.136 -11.539  17.468  0.00  0.00    +0.191 C 
ATOM     13  C   UNL     1      -3.851 -11.562  16.795  0.00  0.00    +0.133 C 
ATOM     14  C   UNL     1      -6.746 -11.661  18.845  0.00  0.00    +0.235 C 
ATOM     15  C   UNL     1      -4.334 -10.133  16.945  0.00  0.00    +0.183 C 
ATOM     16  C   UNL     1      -5.525 -11.650  19.736  0.00  0.00    +0.207 C 
ENDROOT
BRANCH  13   9
ATOM      9  N   UNL     1      -3.919 -11.967  15.371  0.00  0.00    -0.182 NA
ATOM     33  H   UNL     1      -4.760 -12.465  15.056  0.00  0.00    +0.148 HD
BRANCH   9   2
ATOM      2  S   UNL     1      -2.509 -11.969  14.426  0.00  0.00    +0.059 S 
ATOM      6  O   UNL     1      -2.225 -13.322  13.985  0.00  0.00    -0.153 OA
ATOM      7  O   UNL     1      -1.489 -11.194  15.106  0.00  0.00    -0.153 OA
BRANCH   2  17
ATOM      1 CL   UNL     1      -4.289  -8.648   9.432  0.00  0.00    -0.084 Cl
ATOM     17  C   UNL     1      -3.012 -11.031  13.014  0.00  0.00    +0.105 A 
ATOM     19  C   UNL     1      -2.058 -10.627  12.097  0.00  0.00    +0.030 A 
ATOM     20  C   UNL     1      -4.351 -10.718  12.853  0.00  0.00    +0.030 A 
ATOM     22  C   UNL     1      -2.455  -9.886  10.983  0.00  0.00    +0.022 A 
ATOM     23  C   UNL     1      -4.747  -9.978  11.740  0.00  0.00    +0.022 A 
ATOM     24  C   UNL     1      -3.800  -9.561  10.805  0.00  0.00    +0.041 A 
ENDBRANCH   2  17
ENDBRANCH   9   2
ENDBRANCH  13   9
BRANCH  14   5
ATOM      5  O   UNL     1      -7.641 -10.618  19.158  0.00  0.00    -0.442 OA
BRANCH   5  18
ATOM      8  O   UNL     1      -9.576 -11.297  18.146  0.00  0.00    -0.226 OA
ATOM     10  N   UNL     1      -8.640  -9.194  17.722  0.00  0.00    -0.251 N 
ATOM     18  C   UNL     1      -8.715 -10.441  18.311  0.00  0.00    +0.405 C 
ATOM     34  H   UNL     1      -7.844  -8.620  17.987  0.00  0.00    +0.158 HD
BRANCH  10  21
ATOM     21  C   UNL     1      -9.535  -8.614  16.794  0.00  0.00    +0.036 A 
ATOM     25  C   UNL     1     -10.328  -7.550  17.190  0.00  0.00    +0.024 A 
ATOM     26  C   UNL     1      -9.600  -9.121  15.505  0.00  0.00    +0.024 A 
ATOM     27  C   UNL     1     -11.288  -7.475  14.974  0.00  0.00    -0.045 A 
ATOM     29  C   UNL     1     -11.211  -6.977  16.274  0.00  0.00    +0.006 A 
ATOM     30  C   UNL     1     -10.482  -8.548  14.589  0.00  0.00    +0.006 A 
BRANCH  27  28
ATOM     28  C   UNL     1     -12.231  -6.863  13.994  0.00  0.00    +0.013 C 
ATOM     31  C   UNL     1     -12.931  -7.915  13.114  0.00  0.00    +0.012 C 
ATOM     32  C   UNL     1     -13.282  -5.964  14.672  0.00  0.00    +0.012 C 
ENDBRANCH  27  28
ENDBRANCH  10  21
ENDBRANCH   5  18
ENDBRANCH  14   5
TORSDOF 7
ENDMDL
MODEL 8
REMARK VINA RESULT:      -7.0     27.334     30.071
REMARK  Name = 11884110
REMARK  9 active torsions:
REMARK  status: ('A' for Active; 'I' for Inactive)
REMARK    1  A    between atoms: S_2  and  N_9
REMARK    2  A    between atoms: S_2  and  C_17
REMARK    3  A    between atoms: O_5  and  C_14
REMARK    4  A    between atoms: O_5  and  C_18
REMARK    5  A    between atoms: N_9  and  C_13
REMARK    6  A    between atoms: N_10  and  C_21
REMARK    7  A    between atoms: C_27  and  C_28
REMARK    8  A    between atoms: C_28  and  C_31
REMARK    9  A    between atoms: C_28  and  C_32
REMARK                            x       y       z     vdW  Elec       q    Type
REMARK                         _______ _______ _______ _____ _____    ______ ____
ROOT
ATOM      3  O   UNL     1      -3.903 -12.170  14.495  0.00  0.00    -0.369 OA
ATOM      4  O   UNL     1      -1.999 -10.883  16.540  0.00  0.00    -0.368 OA
ATOM     11  C   UNL     1      -3.361 -10.580  16.172  0.00  0.00    +0.171 C 
ATOM     12  C   UNL     1      -3.475 -10.810  14.678  0.00  0.00    +0.191 C 
ATOM     13  C   UNL     1      -4.295 -11.603  16.770  0.00  0.00    +0.133 C 
ATOM     14  C   UNL     1      -2.055 -10.604  14.205  0.00  0.00    +0.235 C 
ATOM     15  C   UNL     1      -4.231 -12.742  15.770  0.00  0.00    +0.183 C 
ATOM     16  C   UNL     1      -1.252 -11.176  15.350  0.00  0.00    +0.207 C 
ENDROOT
BRANCH  13   9
ATOM      9  N   UNL     1      -5.673 -11.060  16.824  0.00  0.00    -0.182 NA
ATOM     33  H   UNL     1      -5.969 -10.433  16.066  0.00  0.00    +0.148 HD
BRANCH   9   2
ATOM      2  S   UNL     1      -6.557 -11.145  18.270  0.00  0.00    +0.059 S 
ATOM      6  O   UNL     1      -5.852 -10.420  19.311  0.00  0.00    -0.153 OA
ATOM      7  O   UNL     1      -6.968 -12.519  18.488  0.00  0.00    -0.153 OA
BRANCH   2  17
ATOM      1 CL   UNL     1     -11.715  -7.912  16.826  0.00  0.00    -0.084 Cl
ATOM     17  C   UNL     1      -8.014 -10.231  17.863  0.00  0.00    +0.105 A 
ATOM     19  C   UNL     1      -9.227 -10.616  18.408  0.00  0.00    +0.030 A 
ATOM     20  C   UNL     1      -7.916  -9.149  17.005  0.00  0.00    +0.030 A 
ATOM     22  C   UNL     1     -10.377  -9.894  18.086  0.00  0.00    +0.022 A 
ATOM     23  C   UNL     1      -9.066  -8.429  16.683  0.00  0.00    +0.022 A 
ATOM     24  C   UNL     1     -10.296  -8.801  17.223  0.00  0.00    +0.041 A 
ENDBRANCH   2  17
ENDBRANCH   9   2
ENDBRANCH  13   9
BRANCH  14   5
ATOM      5  O   UNL     1      -1.770 -11.245  12.983  0.00  0.00    -0.442 OA
BRANCH   5  18
ATOM      8  O   UNL     1      -1.515  -9.610  11.406  0.00  0.00    -0.226 OA
ATOM     10  N   UNL     1      -3.246 -11.181  11.278  0.00  0.00    -0.251 N 
ATOM     18  C   UNL     1      -2.130 -10.581  11.829  0.00  0.00    +0.405 C 
ATOM     34  H   UNL     1      -3.617 -11.984  11.779  0.00  0.00    +0.158 HD
BRANCH  10  21
ATOM     21  C   UNL     1      -3.937 -10.818  10.100  0.00  0.00    +0.036 A 
ATOM     25  C   UNL     1      -4.044 -11.733   9.065  0.00  0.00    +0.024 A 
ATOM     26  C   UNL     1      -4.495  -9.552  10.002  0.00  0.00    +0.024 A 
ATOM     27  C   UNL     1      -5.294 -10.106   7.790  0.00  0.00    -0.045 A 
ATOM     29  C   UNL     1      -4.727 -11.375   7.903  0.00  0.00    +0.006 A 
ATOM     30  C   UNL     1      -5.178  -9.194   8.840  0.00  0.00    +0.006 A 
BRANCH  27  28
ATOM     28  C   UNL     1      -6.024  -9.723   6.547  0.00  0.00    +0.013 C 
ATOM     31  C   UNL     1      -5.968 -10.820   5.469  0.00  0.00    +0.012 C 
ATOM     32  C   UNL     1      -7.489  -9.334   6.823  0.00  0.00    +0.012 C 
ENDBRANCH  27  28
ENDBRANCH  10  21
ENDBRANCH   5  18
ENDBRANCH  14   5
TORSDOF 7
ENDMDL
MODEL 9
REMARK VINA RESULT:      -6.9     28.692     31.379
REMARK  Name = 11884110
REMARK  9 active torsions:
REMARK  status: ('A' for Active; 'I' for Inactive)
REMARK    1  A    between atoms: S_2  and  N_9
REMARK    2  A    between atoms: S_2  and  C_17
REMARK    3  A    between atoms: O_5  and  C_14
REMARK    4  A    between atoms: O_5  and  C_18
REMARK    5  A    between atoms: N_9  and  C_13
REMARK    6  A    between atoms: N_10  and  C_21
REMARK    7  A    between atoms: C_27  and  C_28
REMARK    8  A    between atoms: C_28  and  C_31
REMARK    9  A    between atoms: C_28  and  C_32
REMARK                            x       y       z     vdW  Elec       q    Type
REMARK                         _______ _______ _______ _____ _____    ______ ____
ROOT
ATOM      3  O   UNL     1     -10.708  -8.162  14.454  0.00  0.00    -0.369 OA
ATOM      4  O   UNL     1     -11.662  -7.031  17.151  0.00  0.00    -0.368 OA
ATOM     11  C   UNL     1     -11.086  -6.394  15.991  0.00  0.00    +0.171 C 
ATOM     12  C   UNL     1     -10.046  -7.348  15.436  0.00  0.00    +0.191 C 
ATOM     13  C   UNL     1     -12.115  -6.298  14.892  0.00  0.00    +0.133 C 
ATOM     14  C   UNL     1      -9.654  -8.150  16.655  0.00  0.00    +0.235 C 
ATOM     15  C   UNL     1     -12.036  -7.663  14.237  0.00  0.00    +0.183 C 
ATOM     16  C   UNL     1     -10.965  -8.260  17.399  0.00  0.00    +0.207 C 
ENDROOT
BRANCH  13   9
ATOM      9  N   UNL     1     -11.721  -5.251  13.919  0.00  0.00    -0.182 NA
ATOM     33  H   UNL     1     -10.829  -4.766  14.075  0.00  0.00    +0.148 HD
BRANCH   9   2
ATOM      2  S   UNL     1     -12.875  -4.614  12.851  0.00  0.00    +0.059 S 
ATOM      6  O   UNL     1     -12.879  -3.166  12.952  0.00  0.00    -0.153 OA
ATOM      7  O   UNL     1     -14.111  -5.358  13.000  0.00  0.00    -0.153 OA
BRANCH   2  17
ATOM      1 CL   UNL     1     -10.477  -6.153   7.282  0.00  0.00    -0.084 Cl
ATOM     17  C   UNL     1     -12.198  -5.048  11.277  0.00  0.00    +0.105 A 
ATOM     19  C   UNL     1     -12.185  -6.377  10.892  0.00  0.00    +0.030 A 
ATOM     20  C   UNL     1     -11.693  -4.052  10.460  0.00  0.00    +0.030 A 
ATOM     22  C   UNL     1     -11.650  -6.721   9.650  0.00  0.00    +0.022 A 
ATOM     23  C   UNL     1     -11.158  -4.396   9.219  0.00  0.00    +0.022 A 
ATOM     24  C   UNL     1     -11.137  -5.729   8.813  0.00  0.00    +0.041 A 
ENDBRANCH   2  17
ENDBRANCH   9   2
ENDBRANCH  13   9
BRANCH  14   5
ATOM      5  O   UNL     1      -9.111  -9.413  16.346  0.00  0.00    -0.442 OA
BRANCH   5  18
ATOM      8  O   UNL     1      -6.848  -9.195  16.583  0.00  0.00    -0.226 OA
ATOM     10  N   UNL     1      -7.818  -9.769  14.532  0.00  0.00    -0.251 N 
ATOM     18  C   UNL     1      -7.816  -9.438  15.873  0.00  0.00    +0.405 C 
ATOM     34  H   UNL     1      -8.730  -9.938  14.113  0.00  0.00    +0.158 HD
BRANCH  10  21
ATOM     21  C   UNL     1      -6.709  -9.905  13.666  0.00  0.00    +0.036 A 
ATOM     25  C   UNL     1      -5.747 -10.864  13.939  0.00  0.00    +0.024 A 
ATOM     26  C   UNL     1      -6.606  -9.076  12.560  0.00  0.00    +0.024 A 
ATOM     27  C   UNL     1      -4.535 -10.171  11.967  0.00  0.00    -0.045 A 
ATOM     29  C   UNL     1      -4.654 -10.998  13.084  0.00  0.00    +0.006 A 
ATOM     30  C   UNL     1      -5.512  -9.209  11.705  0.00  0.00    +0.006 A 
BRANCH  27  28
ATOM     28  C   UNL     1      -3.366 -10.314  11.053  0.00  0.00    +0.013 C 
ATOM     31  C   UNL     1      -3.355  -9.249   9.940  0.00  0.00    +0.012 C 
ATOM     32  C   UNL     1      -2.023 -10.297  11.807  0.00  0.00    +0.012 C 
ENDBRANCH  27  28
ENDBRANCH  10  21
ENDBRANCH   5  18
ENDBRANCH  14   5
TORSDOF 7
ENDMDL
MODEL 10
REMARK VINA RESULT:      -6.7     30.386     32.288
REMARK  Name = 11884110
REMARK  9 active torsions:
REMARK  status: ('A' for Active; 'I' for Inactive)
REMARK    1  A    between atoms: S_2  and  N_9
REMARK    2  A    between atoms: S_2  and  C_17
REMARK    3  A    between atoms: O_5  and  C_14
REMARK    4  A    between atoms: O_5  and  C_18
REMARK    5  A    between atoms: N_9  and  C_13
REMARK    6  A    between atoms: N_10  and  C_21
REMARK    7  A    between atoms: C_27  and  C_28
REMARK    8  A    between atoms: C_28  and  C_31
REMARK    9  A    between atoms: C_28  and  C_32
REMARK                            x       y       z     vdW  Elec       q    Type
REMARK                         _______ _______ _______ _____ _____    ______ ____
ROOT
ATOM      3  O   UNL     1      -4.979 -12.291   3.417  0.00  0.00    -0.369 OA
ATOM      4  O   UNL     1      -3.804 -14.105   5.606  0.00  0.00    -0.368 OA
ATOM     11  C   UNL     1      -3.917 -12.670   5.505  0.00  0.00    +0.171 C 
ATOM     12  C   UNL     1      -3.689 -12.312   4.049  0.00  0.00    +0.191 C 
ATOM     13  C   UNL     1      -5.341 -12.246   5.765  0.00  0.00    +0.133 C 
ATOM     14  C   UNL     1      -2.844 -13.462   3.557  0.00  0.00    +0.235 C 
ATOM     15  C   UNL     1      -6.002 -12.438   4.414  0.00  0.00    +0.183 C 
ATOM     16  C   UNL     1      -3.415 -14.630   4.328  0.00  0.00    +0.207 C 
ENDROOT
BRANCH  13   9
ATOM      9  N   UNL     1      -5.382 -10.814   6.145  0.00  0.00    -0.182 NA
ATOM     33  H   UNL     1      -4.690 -10.187   5.717  0.00  0.00    +0.148 HD
BRANCH   9   2
ATOM      2  S   UNL     1      -6.255 -10.329   7.518  0.00  0.00    +0.059 S 
ATOM      6  O   UNL     1      -7.211 -11.362   7.872  0.00  0.00    -0.153 OA
ATOM      7  O   UNL     1      -6.695  -8.960   7.332  0.00  0.00    -0.153 OA
BRANCH   2  17
ATOM      1 CL   UNL     1      -1.804 -10.233  11.913  0.00  0.00    -0.084 Cl
ATOM     17  C   UNL     1      -4.998 -10.302   8.760  0.00  0.00    +0.105 A 
ATOM     19  C   UNL     1      -4.338  -9.115   9.027  0.00  0.00    +0.030 A 
ATOM     20  C   UNL     1      -4.695 -11.468   9.441  0.00  0.00    +0.030 A 
ATOM     22  C   UNL     1      -3.346  -9.094  10.008  0.00  0.00    +0.022 A 
ATOM     23  C   UNL     1      -3.703 -11.447  10.421  0.00  0.00    +0.022 A 
ATOM     24  C   UNL     1      -3.028 -10.260  10.704  0.00  0.00    +0.041 A 
ENDBRANCH   2  17
ENDBRANCH   9   2
ENDBRANCH  13   9
BRANCH  14   5
ATOM      5  O   UNL     1      -2.919 -13.659   2.163  0.00  0.00    -0.442 OA
BRANCH   5  18
ATOM      8  O   UNL     1      -2.084 -15.437   0.992  0.00  0.00    -0.226 OA
ATOM     10  N   UNL     1      -0.699 -13.716   1.765  0.00  0.00    -0.251 N 
ATOM     18  C   UNL     1      -1.897 -14.377   1.578  0.00  0.00    +0.405 C 
ATOM     34  H   UNL     1      -0.746 -12.840   2.281  0.00  0.00    +0.158 HD
BRANCH  10  21
ATOM     21  C   UNL     1       0.588 -14.103   1.327  0.00  0.00    +0.036 A 
ATOM     25  C   UNL     1       0.907 -14.004  -0.017  0.00  0.00    +0.024 A 
ATOM     26  C   UNL     1       1.506 -14.576   2.253  0.00  0.00    +0.024 A 
ATOM     27  C   UNL     1       3.112 -14.863   0.470  0.00  0.00    -0.045 A 
ATOM     29  C   UNL     1       2.177 -14.386  -0.448  0.00  0.00    +0.006 A 
ATOM     30  C   UNL     1       2.776 -14.958   1.821  0.00  0.00    +0.006 A 
BRANCH  27  28
ATOM     28  C   UNL     1       4.470 -15.271   0.009  0.00  0.00    +0.013 C 
ATOM     31  C   UNL     1       5.263 -14.099  -0.600  0.00  0.00    +0.012 C 
ATOM     32  C   UNL     1       5.296 -15.936   1.128  0.00  0.00    +0.012 C 
ENDBRANCH  27  28
ENDBRANCH  10  21
ENDBRANCH   5  18
ENDBRANCH  14   5
TORSDOF 7
ENDMDL
