MODEL 1
REMARK VINA RESULT:      -6.8      0.000      0.000
REMARK  Name = 75537035
REMARK  5 active torsions:
REMARK  status: ('A' for Active; 'I' for Inactive)
REMARK    1  A    between atoms: N_7  and  C_17
REMARK    2  A    between atoms: N_9  and  C_24
REMARK    3  A    between atoms: C_17  and  C_19
REMARK    4  A    between atoms: C_18  and  C_20
REMARK    5  A    between atoms: C_28  and  C_29
REMARK                            x       y       z     vdW  Elec       q    Type
REMARK                         _______ _______ _______ _____ _____    ______ ____
ROOT
ATOM      4  O   UNL     1      -4.455 -12.898  18.378  0.00  0.00    -0.252 OA
ATOM      5  O   UNL     1     -10.621 -10.019  19.962  0.00  0.00    -0.270 OA
ATOM      6  N   UNL     1      -6.389 -11.581  18.168  0.00  0.00    -0.278 N 
ATOM      7  N   UNL     1      -5.092 -11.866  16.355  0.00  0.00    -0.276 N 
ATOM      8  N   UNL     1      -9.065 -10.888  18.449  0.00  0.00    -0.294 N 
ATOM     11  C   UNL     1      -6.990 -10.734  17.152  0.00  0.00    +0.112 C 
ATOM     12  C   UNL     1      -6.231 -11.101  15.879  0.00  0.00    +0.134 C 
ATOM     13  C   UNL     1      -8.495 -10.970  17.090  0.00  0.00    +0.132 C 
ATOM     14  C   UNL     1      -6.961 -11.625  19.504  0.00  0.00    +0.128 C 
ATOM     15  C   UNL     1      -8.473 -11.819  19.419  0.00  0.00    +0.127 C 
ATOM     16  C   UNL     1      -5.214 -12.200  17.719  0.00  0.00    +0.306 C 
ATOM     18  C   UNL     1     -10.115 -10.056  18.840  0.00  0.00    +0.247 C 
ENDROOT
BRANCH  18  20
ATOM     20  C   UNL     1     -10.673  -9.130  17.846  0.00  0.00    +0.037 A 
ATOM     21  C   UNL     1      -9.952  -7.999  17.463  0.00  0.00    +0.013 A 
ATOM     22  C   UNL     1     -11.926  -9.381  17.286  0.00  0.00    +0.013 A 
ATOM     26  C   UNL     1     -10.482  -7.119  16.520  0.00  0.00    +0.013 A 
ATOM     27  C   UNL     1     -12.456  -8.501  16.343  0.00  0.00    +0.013 A 
ATOM     28  C   UNL     1     -11.735  -7.370  15.960  0.00  0.00    +0.055 A 
BRANCH  28  29
ATOM      1  F   UNL     1     -11.449  -5.424  14.599  0.00  0.00    -0.166 F 
ATOM      2  F   UNL     1     -13.440  -5.799  15.371  0.00  0.00    -0.166 F 
ATOM      3  F   UNL     1     -12.639  -7.050  13.785  0.00  0.00    -0.166 F 
ATOM     29  C   UNL     1     -12.303  -6.429  14.952  0.00  0.00    +0.417 C 
ENDBRANCH  28  29
ENDBRANCH  18  20
BRANCH   7  17
ATOM     17  C   UNL     1      -4.048 -12.321  15.465  0.00  0.00    +0.183 C 
BRANCH  17  19
ATOM      9  N   UNL     1      -2.536 -10.707  14.273  0.00  0.00    -0.336 N 
ATOM     10  N   UNL     1      -2.110 -11.047  16.425  0.00  0.00    -0.239 NA
ATOM     19  C   UNL     1      -2.892 -11.363  15.417  0.00  0.00    +0.127 A 
ATOM     23  C   UNL     1      -1.458  -9.922  14.569  0.00  0.00    +0.106 A 
ATOM     24  C   UNL     1      -3.171 -10.812  12.979  0.00  0.00    +0.150 C 
ATOM     25  C   UNL     1      -1.213 -10.149  15.902  0.00  0.00    +0.130 A 
ENDBRANCH  17  19
ENDBRANCH   7  17
TORSDOF 4
ENDMDL
MODEL 2
REMARK VINA RESULT:      -6.7      5.538      8.343
REMARK  Name = 75537035
REMARK  5 active torsions:
REMARK  status: ('A' for Active; 'I' for Inactive)
REMARK    1  A    between atoms: N_7  and  C_17
REMARK    2  A    between atoms: N_9  and  C_24
REMARK    3  A    between atoms: C_17  and  C_19
REMARK    4  A    between atoms: C_18  and  C_20
REMARK    5  A    between atoms: C_28  and  C_29
REMARK                            x       y       z     vdW  Elec       q    Type
REMARK                         _______ _______ _______ _____ _____    ______ ____
ROOT
ATOM      4  O   UNL     1      -4.486  -9.732   8.541  0.00  0.00    -0.252 OA
ATOM      5  O   UNL     1      -1.719 -10.518  14.908  0.00  0.00    -0.270 OA
ATOM      6  N   UNL     1      -4.362  -9.932  10.879  0.00  0.00    -0.278 N 
ATOM      7  N   UNL     1      -6.382 -10.072   9.903  0.00  0.00    -0.276 N 
ATOM      8  N   UNL     1      -3.415 -10.833  13.331  0.00  0.00    -0.294 N 
ATOM     11  C   UNL     1      -5.298 -10.020  11.986  0.00  0.00    +0.112 C 
ATOM     12  C   UNL     1      -6.632 -10.328  11.311  0.00  0.00    +0.134 C 
ATOM     13  C   UNL     1      -4.832 -11.069  12.990  0.00  0.00    +0.132 C 
ATOM     14  C   UNL     1      -2.939  -9.798  11.143  0.00  0.00    +0.128 C 
ATOM     15  C   UNL     1      -2.501 -10.829  12.181  0.00  0.00    +0.127 C 
ATOM     16  C   UNL     1      -5.010  -9.888   9.636  0.00  0.00    +0.306 C 
ATOM     18  C   UNL     1      -2.907 -10.670  14.620  0.00  0.00    +0.247 C 
ENDROOT
BRANCH  18  20
ATOM     20  C   UNL     1      -3.853 -10.667  15.744  0.00  0.00    +0.037 A 
ATOM     21  C   UNL     1      -5.042  -9.943  15.653  0.00  0.00    +0.013 A 
ATOM     22  C   UNL     1      -3.561 -11.387  16.902  0.00  0.00    +0.013 A 
ATOM     26  C   UNL     1      -5.939  -9.939  16.720  0.00  0.00    +0.013 A 
ATOM     27  C   UNL     1      -4.459 -11.384  17.969  0.00  0.00    +0.013 A 
ATOM     28  C   UNL     1      -5.648 -10.660  17.879  0.00  0.00    +0.055 A 
BRANCH  28  29
ATOM      1  F   UNL     1      -6.797 -11.884  19.583  0.00  0.00    -0.166 F 
ATOM      2  F   UNL     1      -7.858 -10.221  18.682  0.00  0.00    -0.166 F 
ATOM      3  F   UNL     1      -6.204  -9.844  20.041  0.00  0.00    -0.166 F 
ATOM     29  C   UNL     1      -6.608 -10.655  19.021  0.00  0.00    +0.417 C 
ENDBRANCH  28  29
ENDBRANCH  18  20
BRANCH   7  17
ATOM     17  C   UNL     1      -7.432 -10.144   8.913  0.00  0.00    +0.183 C 
BRANCH  17  19
ATOM      9  N   UNL     1      -7.680  -8.335   7.187  0.00  0.00    -0.336 N 
ATOM     10  N   UNL     1      -8.482  -7.883   9.208  0.00  0.00    -0.239 NA
ATOM     19  C   UNL     1      -7.876  -8.781   8.464  0.00  0.00    +0.127 A 
ATOM     23  C   UNL     1      -8.194  -7.072   7.112  0.00  0.00    +0.106 A 
ATOM     24  C   UNL     1      -7.048  -9.053   6.104  0.00  0.00    +0.150 C 
ATOM     25  C   UNL     1      -8.683  -6.814   8.370  0.00  0.00    +0.130 A 
ENDBRANCH  17  19
ENDBRANCH   7  17
TORSDOF 4
ENDMDL
MODEL 3
REMARK VINA RESULT:      -6.7      4.302      8.321
REMARK  Name = 75537035
REMARK  5 active torsions:
REMARK  status: ('A' for Active; 'I' for Inactive)
REMARK    1  A    between atoms: N_7  and  C_17
REMARK    2  A    between atoms: N_9  and  C_24
REMARK    3  A    between atoms: C_17  and  C_19
REMARK    4  A    between atoms: C_18  and  C_20
REMARK    5  A    between atoms: C_28  and  C_29
REMARK                            x       y       z     vdW  Elec       q    Type
REMARK                         _______ _______ _______ _____ _____    ______ ____
ROOT
ATOM      4  O   UNL     1      -4.110 -11.936  17.828  0.00  0.00    -0.252 OA
ATOM      5  O   UNL     1      -0.995 -10.348  11.779  0.00  0.00    -0.270 OA
ATOM      6  N   UNL     1      -3.837 -11.546  15.528  0.00  0.00    -0.278 N 
ATOM      7  N   UNL     1      -5.926 -11.721  16.339  0.00  0.00    -0.276 N 
ATOM      8  N   UNL     1      -2.830 -10.356  13.227  0.00  0.00    -0.294 N 
ATOM     11  C   UNL     1      -4.692 -11.487  14.354  0.00  0.00    +0.112 C 
ATOM     12  C   UNL     1      -6.100 -11.391  14.935  0.00  0.00    +0.134 C 
ATOM     13  C   UNL     1      -4.286 -10.317  13.465  0.00  0.00    +0.132 C 
ATOM     14  C   UNL     1      -2.393 -11.490  15.374  0.00  0.00    +0.128 C 
ATOM     15  C   UNL     1      -2.010 -10.339  14.447  0.00  0.00    +0.127 C 
ATOM     16  C   UNL     1      -4.566 -11.761  16.706  0.00  0.00    +0.306 C 
ATOM     18  C   UNL     1      -2.210 -10.359  11.977  0.00  0.00    +0.247 C 
ENDROOT
BRANCH  18  20
ATOM     20  C   UNL     1      -3.063 -10.390  10.781  0.00  0.00    +0.037 A 
ATOM     21  C   UNL     1      -3.377  -9.205  10.117  0.00  0.00    +0.013 A 
ATOM     22  C   UNL     1      -3.559 -11.606  10.311  0.00  0.00    +0.013 A 
ATOM     26  C   UNL     1      -4.188  -9.234   8.983  0.00  0.00    +0.013 A 
ATOM     27  C   UNL     1      -4.370 -11.636   9.177  0.00  0.00    +0.013 A 
ATOM     28  C   UNL     1      -4.684 -10.451   8.512  0.00  0.00    +0.055 A 
BRANCH  28  29
ATOM      1  F   UNL     1      -6.579 -11.377   7.384  0.00  0.00    -0.166 F 
ATOM      2  F   UNL     1      -4.882 -10.815   6.156  0.00  0.00    -0.166 F 
ATOM      3  F   UNL     1      -6.136  -9.276   7.041  0.00  0.00    -0.166 F 
ATOM     29  C   UNL     1      -5.552 -10.482   7.299  0.00  0.00    +0.417 C 
ENDBRANCH  28  29
ENDBRANCH  18  20
BRANCH   7  17
ATOM     17  C   UNL     1      -7.048 -11.850  17.241  0.00  0.00    +0.183 C 
BRANCH  17  19
ATOM      9  N   UNL     1      -9.243 -10.776  16.661  0.00  0.00    -0.336 N 
ATOM     10  N   UNL     1      -7.697  -9.443  17.534  0.00  0.00    -0.239 NA
ATOM     19  C   UNL     1      -7.974 -10.671  17.157  0.00  0.00    +0.127 A 
ATOM     23  C   UNL     1      -9.812  -9.535  16.724  0.00  0.00    +0.106 A 
ATOM     24  C   UNL     1      -9.883 -11.969  16.157  0.00  0.00    +0.150 C 
ATOM     25  C   UNL     1      -8.839  -8.729  17.266  0.00  0.00    +0.130 A 
ENDBRANCH  17  19
ENDBRANCH   7  17
TORSDOF 4
ENDMDL
MODEL 4
REMARK VINA RESULT:      -6.6      3.897      8.084
REMARK  Name = 75537035
REMARK  5 active torsions:
REMARK  status: ('A' for Active; 'I' for Inactive)
REMARK    1  A    between atoms: N_7  and  C_17
REMARK    2  A    between atoms: N_9  and  C_24
REMARK    3  A    between atoms: C_17  and  C_19
REMARK    4  A    between atoms: C_18  and  C_20
REMARK    5  A    between atoms: C_28  and  C_29
REMARK                            x       y       z     vdW  Elec       q    Type
REMARK                         _______ _______ _______ _____ _____    ______ ____
ROOT
ATOM      4  O   UNL     1     -10.675 -10.449  19.702  0.00  0.00    -0.252 OA
ATOM      5  O   UNL     1      -4.208 -12.894  18.697  0.00  0.00    -0.270 OA
ATOM      6  N   UNL     1      -8.623 -10.876  18.642  0.00  0.00    -0.278 N 
ATOM      7  N   UNL     1      -9.989  -9.338  17.738  0.00  0.00    -0.276 N 
ATOM      8  N   UNL     1      -5.883 -11.287  18.424  0.00  0.00    -0.294 N 
ATOM     11  C   UNL     1      -7.965 -10.483  17.407  0.00  0.00    +0.112 C 
ATOM     12  C   UNL     1      -8.790  -9.295  16.919  0.00  0.00    +0.134 C 
ATOM     13  C   UNL     1      -6.495 -10.177  17.667  0.00  0.00    +0.132 C 
ATOM     14  C   UNL     1      -8.024 -11.895  19.488  0.00  0.00    +0.128 C 
ATOM     15  C   UNL     1      -6.542 -11.593  19.701  0.00  0.00    +0.127 C 
ATOM     16  C   UNL     1      -9.866 -10.250  18.806  0.00  0.00    +0.306 C 
ATOM     18  C   UNL     1      -4.743 -11.998  18.045  0.00  0.00    +0.247 C 
ENDROOT
BRANCH  18  20
ATOM     20  C   UNL     1      -4.120 -11.671  16.755  0.00  0.00    +0.037 A 
ATOM     21  C   UNL     1      -4.672 -12.157  15.570  0.00  0.00    +0.013 A 
ATOM     22  C   UNL     1      -2.974 -10.877  16.717  0.00  0.00    +0.013 A 
ATOM     26  C   UNL     1      -4.079 -11.848  14.346  0.00  0.00    +0.013 A 
ATOM     27  C   UNL     1      -2.381 -10.567  15.494  0.00  0.00    +0.013 A 
ATOM     28  C   UNL     1      -2.933 -11.052  14.308  0.00  0.00    +0.055 A 
BRANCH  28  29
ATOM      1  F   UNL     1      -3.178 -10.253  12.066  0.00  0.00    -0.166 F 
ATOM      2  F   UNL     1      -1.684 -11.789  12.405  0.00  0.00    -0.166 F 
ATOM      3  F   UNL     1      -1.335  -9.762  13.110  0.00  0.00    -0.166 F 
ATOM     29  C   UNL     1      -2.298 -10.723  12.999  0.00  0.00    +0.417 C 
ENDBRANCH  28  29
ENDBRANCH  18  20
BRANCH   7  17
ATOM     17  C   UNL     1     -11.097  -8.435  17.523  0.00  0.00    +0.183 C 
BRANCH  17  19
ATOM      9  N   UNL     1     -11.389  -7.368  15.268  0.00  0.00    -0.336 N 
ATOM     10  N   UNL     1     -12.159  -9.440  15.483  0.00  0.00    -0.239 NA
ATOM     19  C   UNL     1     -11.559  -8.443  16.094  0.00  0.00    +0.127 A 
ATOM     23  C   UNL     1     -11.915  -7.700  14.051  0.00  0.00    +0.106 A 
ATOM     24  C   UNL     1     -10.771  -6.105  15.601  0.00  0.00    +0.150 C 
ATOM     25  C   UNL     1     -12.384  -8.983  14.208  0.00  0.00    +0.130 A 
ENDBRANCH  17  19
ENDBRANCH   7  17
TORSDOF 4
ENDMDL
MODEL 5
REMARK VINA RESULT:      -6.5      1.376      2.029
REMARK  Name = 75537035
REMARK  5 active torsions:
REMARK  status: ('A' for Active; 'I' for Inactive)
REMARK    1  A    between atoms: N_7  and  C_17
REMARK    2  A    between atoms: N_9  and  C_24
REMARK    3  A    between atoms: C_17  and  C_19
REMARK    4  A    between atoms: C_18  and  C_20
REMARK    5  A    between atoms: C_28  and  C_29
REMARK                            x       y       z     vdW  Elec       q    Type
REMARK                         _______ _______ _______ _____ _____    ______ ____
ROOT
ATOM      4  O   UNL     1      -4.583 -11.460  18.758  0.00  0.00    -0.252 OA
ATOM      5  O   UNL     1     -11.321  -9.633  19.047  0.00  0.00    -0.270 OA
ATOM      6  N   UNL     1      -6.609 -10.417  18.184  0.00  0.00    -0.278 N 
ATOM      7  N   UNL     1      -4.920 -10.355  16.703  0.00  0.00    -0.276 N 
ATOM      8  N   UNL     1      -9.357 -10.137  17.884  0.00  0.00    -0.294 N 
ATOM     11  C   UNL     1      -7.100  -9.577  17.105  0.00  0.00    +0.112 C 
ATOM     12  C   UNL     1      -6.035  -9.720  16.021  0.00  0.00    +0.134 C 
ATOM     13  C   UNL     1      -8.499 -10.017  16.689  0.00  0.00    +0.132 C 
ATOM     14  C   UNL     1      -7.442 -10.658  19.349  0.00  0.00    +0.128 C 
ATOM     15  C   UNL     1      -8.851 -11.056  18.912  0.00  0.00    +0.127 C 
ATOM     16  C   UNL     1      -5.282 -10.821  17.982  0.00  0.00    +0.306 C 
ATOM     18  C   UNL     1     -10.585  -9.499  18.069  0.00  0.00    +0.247 C 
ENDROOT
BRANCH  18  20
ATOM     20  C   UNL     1     -11.051  -8.577  17.025  0.00  0.00    +0.037 A 
ATOM     21  C   UNL     1     -10.629  -7.248  17.028  0.00  0.00    +0.013 A 
ATOM     22  C   UNL     1     -11.920  -9.032  16.033  0.00  0.00    +0.013 A 
ATOM     26  C   UNL     1     -11.074  -6.373  16.037  0.00  0.00    +0.013 A 
ATOM     27  C   UNL     1     -12.364  -8.157  15.042  0.00  0.00    +0.013 A 
ATOM     28  C   UNL     1     -11.941  -6.828  15.044  0.00  0.00    +0.055 A 
BRANCH  28  29
ATOM      1  F   UNL     1     -13.577  -5.246  14.306  0.00  0.00    -0.166 F 
ATOM      2  F   UNL     1     -12.669  -6.501  12.788  0.00  0.00    -0.166 F 
ATOM      3  F   UNL     1     -11.514  -4.907  13.710  0.00  0.00    -0.166 F 
ATOM     29  C   UNL     1     -12.418  -5.891  13.985  0.00  0.00    +0.417 C 
ENDBRANCH  28  29
ENDBRANCH  18  20
BRANCH   7  17
ATOM     17  C   UNL     1      -3.649 -10.577  16.050  0.00  0.00    +0.183 C 
BRANCH  17  19
ATOM      9  N   UNL     1      -4.126 -12.454  14.450  0.00  0.00    -0.336 N 
ATOM     10  N   UNL     1      -3.698 -10.473  13.543  0.00  0.00    -0.239 NA
ATOM     19  C   UNL     1      -3.818 -11.140  14.669  0.00  0.00    +0.127 A 
ATOM     23  C   UNL     1      -4.206 -12.636  13.099  0.00  0.00    +0.106 A 
ATOM     24  C   UNL     1      -4.331 -13.476  15.451  0.00  0.00    +0.150 C 
ATOM     25  C   UNL     1      -3.939 -11.400  12.560  0.00  0.00    +0.130 A 
ENDBRANCH  17  19
ENDBRANCH   7  17
TORSDOF 4
ENDMDL
MODEL 6
REMARK VINA RESULT:      -6.5      2.306      3.636
REMARK  Name = 75537035
REMARK  5 active torsions:
REMARK  status: ('A' for Active; 'I' for Inactive)
REMARK    1  A    between atoms: N_7  and  C_17
REMARK    2  A    between atoms: N_9  and  C_24
REMARK    3  A    between atoms: C_17  and  C_19
REMARK    4  A    between atoms: C_18  and  C_20
REMARK    5  A    between atoms: C_28  and  C_29
REMARK                            x       y       z     vdW  Elec       q    Type
REMARK                         _______ _______ _______ _____ _____    ______ ____
ROOT
ATOM      4  O   UNL     1      -1.735 -11.922  14.986  0.00  0.00    -0.252 OA
ATOM      5  O   UNL     1      -6.348 -10.467  20.028  0.00  0.00    -0.270 OA
ATOM      6  N   UNL     1      -3.745 -11.264  16.008  0.00  0.00    -0.278 N 
ATOM      7  N   UNL     1      -3.753 -11.653  13.795  0.00  0.00    -0.276 N 
ATOM      8  N   UNL     1      -5.779 -11.254  17.902  0.00  0.00    -0.294 N 
ATOM     11  C   UNL     1      -5.084 -10.897  15.577  0.00  0.00    +0.112 C 
ATOM     12  C   UNL     1      -5.138 -11.367  14.125  0.00  0.00    +0.134 C 
ATOM     13  C   UNL     1      -6.125 -11.530  16.494  0.00  0.00    +0.132 C 
ATOM     14  C   UNL     1      -3.367 -11.111  17.403  0.00  0.00    +0.128 C 
ATOM     15  C   UNL     1      -4.443 -11.713  18.305  0.00  0.00    +0.127 C 
ATOM     16  C   UNL     1      -2.926 -11.644  14.936  0.00  0.00    +0.306 C 
ATOM     18  C   UNL     1      -6.620 -10.658  18.842  0.00  0.00    +0.247 C 
ENDROOT
BRANCH  18  20
ATOM     20  C   UNL     1      -7.943 -10.201  18.398  0.00  0.00    +0.037 A 
ATOM     21  C   UNL     1      -8.054  -9.089  17.563  0.00  0.00    +0.013 A 
ATOM     22  C   UNL     1      -9.089 -10.878  18.814  0.00  0.00    +0.013 A 
ATOM     26  C   UNL     1      -9.311  -8.655  17.143  0.00  0.00    +0.013 A 
ATOM     27  C   UNL     1     -10.346 -10.444  18.394  0.00  0.00    +0.013 A 
ATOM     28  C   UNL     1     -10.458  -9.333  17.558  0.00  0.00    +0.055 A 
BRANCH  28  29
ATOM      1  F   UNL     1     -12.244  -9.483  15.973  0.00  0.00    -0.166 F 
ATOM      2  F   UNL     1     -11.855  -7.531  16.835  0.00  0.00    -0.166 F 
ATOM      3  F   UNL     1     -12.772  -9.087  18.045  0.00  0.00    -0.166 F 
ATOM     29  C   UNL     1     -11.802  -8.868  17.109  0.00  0.00    +0.417 C 
ENDBRANCH  28  29
ENDBRANCH  18  20
BRANCH   7  17
ATOM     17  C   UNL     1      -3.346 -12.030  12.460  0.00  0.00    +0.183 C 
BRANCH  17  19
ATOM      9  N   UNL     1      -3.843 -10.334  10.675  0.00  0.00    -0.336 N 
ATOM     10  N   UNL     1      -1.875 -10.149  11.687  0.00  0.00    -0.239 NA
ATOM     19  C   UNL     1      -2.994 -10.835  11.621  0.00  0.00    +0.127 A 
ATOM     23  C   UNL     1      -3.226  -9.259  10.100  0.00  0.00    +0.106 A 
ATOM     24  C   UNL     1      -5.154 -10.834  10.332  0.00  0.00    +0.150 C 
ATOM     25  C   UNL     1      -2.013  -9.165  10.740  0.00  0.00    +0.130 A 
ENDBRANCH  17  19
ENDBRANCH   7  17
TORSDOF 4
ENDMDL
MODEL 7
REMARK VINA RESULT:      -6.3      4.571      8.353
REMARK  Name = 75537035
REMARK  5 active torsions:
REMARK  status: ('A' for Active; 'I' for Inactive)
REMARK    1  A    between atoms: N_7  and  C_17
REMARK    2  A    between atoms: N_9  and  C_24
REMARK    3  A    between atoms: C_17  and  C_19
REMARK    4  A    between atoms: C_18  and  C_20
REMARK    5  A    between atoms: C_28  and  C_29
REMARK                            x       y       z     vdW  Elec       q    Type
REMARK                         _______ _______ _______ _____ _____    ______ ____
ROOT
ATOM      4  O   UNL     1     -14.014  -7.600  16.400  0.00  0.00    -0.252 OA
ATOM      5  O   UNL     1      -9.682 -11.942  19.746  0.00  0.00    -0.270 OA
ATOM      6  N   UNL     1     -12.037  -8.737  16.962  0.00  0.00    -0.278 N 
ATOM      7  N   UNL     1     -11.898  -6.987  15.559  0.00  0.00    -0.276 N 
ATOM      8  N   UNL     1     -10.156  -9.959  18.603  0.00  0.00    -0.294 N 
ATOM     11  C   UNL     1     -10.644  -8.708  16.550  0.00  0.00    +0.112 C 
ATOM     12  C   UNL     1     -10.521  -7.399  15.775  0.00  0.00    +0.134 C 
ATOM     13  C   UNL     1      -9.732  -8.819  17.767  0.00  0.00    +0.132 C 
ATOM     14  C   UNL     1     -12.503  -9.776  17.865  0.00  0.00    +0.128 C 
ATOM     15  C   UNL     1     -11.553  -9.900  19.055  0.00  0.00    +0.127 C 
ATOM     16  C   UNL     1     -12.803  -7.758  16.315  0.00  0.00    +0.306 C 
ATOM     18  C   UNL     1      -9.340 -11.014  19.013  0.00  0.00    +0.247 C 
ENDROOT
BRANCH  18  20
ATOM     20  C   UNL     1      -7.953 -11.045  18.530  0.00  0.00    +0.037 A 
ATOM     21  C   UNL     1      -7.674 -11.478  17.234  0.00  0.00    +0.013 A 
ATOM     22  C   UNL     1      -6.914 -10.643  19.371  0.00  0.00    +0.013 A 
ATOM     26  C   UNL     1      -6.357 -11.509  16.777  0.00  0.00    +0.013 A 
ATOM     27  C   UNL     1      -5.597 -10.674  18.914  0.00  0.00    +0.013 A 
ATOM     28  C   UNL     1      -5.318 -11.106  17.617  0.00  0.00    +0.055 A 
BRANCH  28  29
ATOM      1  F   UNL     1      -2.998 -11.432  18.103  0.00  0.00    -0.166 F 
ATOM      2  F   UNL     1      -3.488  -9.957  16.590  0.00  0.00    -0.166 F 
ATOM      3  F   UNL     1      -3.714 -12.074  16.153  0.00  0.00    -0.166 F 
ATOM     29  C   UNL     1      -3.909 -11.140  17.129  0.00  0.00    +0.417 C 
ENDBRANCH  28  29
ENDBRANCH  18  20
BRANCH   7  17
ATOM     17  C   UNL     1     -12.235  -5.831  14.759  0.00  0.00    +0.183 C 
BRANCH  17  19
ATOM      9  N   UNL     1     -12.400  -5.211  12.331  0.00  0.00    -0.336 N 
ATOM     10  N   UNL     1     -12.423  -7.382  12.795  0.00  0.00    -0.239 NA
ATOM     19  C   UNL     1     -12.353  -6.172  13.302  0.00  0.00    +0.127 A 
ATOM     23  C   UNL     1     -12.508  -5.849  11.128  0.00  0.00    +0.106 A 
ATOM     24  C   UNL     1     -12.348  -3.780  12.523  0.00  0.00    +0.150 C 
ATOM     25  C   UNL     1     -12.520  -7.188  11.439  0.00  0.00    +0.130 A 
ENDBRANCH  17  19
ENDBRANCH   7  17
TORSDOF 4
ENDMDL
MODEL 8
REMARK VINA RESULT:      -6.3     28.289     32.374
REMARK  Name = 75537035
REMARK  5 active torsions:
REMARK  status: ('A' for Active; 'I' for Inactive)
REMARK    1  A    between atoms: N_7  and  C_17
REMARK    2  A    between atoms: N_9  and  C_24
REMARK    3  A    between atoms: C_17  and  C_19
REMARK    4  A    between atoms: C_18  and  C_20
REMARK    5  A    between atoms: C_28  and  C_29
REMARK                            x       y       z     vdW  Elec       q    Type
REMARK                         _______ _______ _______ _____ _____    ______ ____
ROOT
ATOM      4  O   UNL     1      14.710   9.547  21.189  0.00  0.00    -0.252 OA
ATOM      5  O   UNL     1      21.608   9.049  22.182  0.00  0.00    -0.270 OA
ATOM      6  N   UNL     1      16.839   8.577  21.413  0.00  0.00    -0.278 N 
ATOM      7  N   UNL     1      15.168   7.307  20.610  0.00  0.00    -0.276 N 
ATOM      8  N   UNL     1      19.601   8.371  21.195  0.00  0.00    -0.294 N 
ATOM     11  C   UNL     1      17.420   7.253  21.275  0.00  0.00    +0.112 C 
ATOM     12  C   UNL     1      16.346   6.461  20.533  0.00  0.00    +0.134 C 
ATOM     13  C   UNL     1      18.762   7.338  20.557  0.00  0.00    +0.132 C 
ATOM     14  C   UNL     1      17.640   9.667  21.943  0.00  0.00    +0.128 C 
ATOM     15  C   UNL     1      18.996   9.709  21.240  0.00  0.00    +0.127 C 
ATOM     16  C   UNL     1      15.475   8.597  21.087  0.00  0.00    +0.306 C 
ATOM     18  C   UNL     1      20.892   8.178  21.690  0.00  0.00    +0.247 C 
ENDROOT
BRANCH  18  20
ATOM     20  C   UNL     1      21.458   6.823  21.639  0.00  0.00    +0.037 A 
ATOM     21  C   UNL     1      21.316   5.965  22.729  0.00  0.00    +0.013 A 
ATOM     22  C   UNL     1      22.140   6.397  20.499  0.00  0.00    +0.013 A 
ATOM     26  C   UNL     1      21.855   4.680  22.680  0.00  0.00    +0.013 A 
ATOM     27  C   UNL     1      22.679   5.112  20.451  0.00  0.00    +0.013 A 
ATOM     28  C   UNL     1      22.537   4.253  21.540  0.00  0.00    +0.055 A 
BRANCH  28  29
ATOM      1  F   UNL     1      24.451   2.856  21.213  0.00  0.00    -0.166 F 
ATOM      2  F   UNL     1      22.541   2.080  20.540  0.00  0.00    -0.166 F 
ATOM      3  F   UNL     1      22.972   2.205  22.667  0.00  0.00    -0.166 F 
ATOM     29  C   UNL     1      23.114   2.878  21.489  0.00  0.00    +0.417 C 
ENDBRANCH  28  29
ENDBRANCH  18  20
BRANCH   7  17
ATOM     17  C   UNL     1      13.881   6.874  20.114  0.00  0.00    +0.183 C 
BRANCH  17  19
ATOM      9  N   UNL     1      12.338   8.302  18.739  0.00  0.00    -0.336 N 
ATOM     10  N   UNL     1      14.196   7.615  17.736  0.00  0.00    -0.239 NA
ATOM     19  C   UNL     1      13.497   7.587  18.849  0.00  0.00    +0.127 A 
ATOM     23  C   UNL     1      12.293   8.818  17.475  0.00  0.00    +0.106 A 
ATOM     24  C   UNL     1      11.332   8.487  19.759  0.00  0.00    +0.150 C 
ATOM     25  C   UNL     1      13.450   8.381  16.875  0.00  0.00    +0.130 A 
ENDBRANCH  17  19
ENDBRANCH   7  17
TORSDOF 4
ENDMDL
MODEL 9
REMARK VINA RESULT:      -6.3     21.326     23.921
REMARK  Name = 75537035
REMARK  5 active torsions:
REMARK  status: ('A' for Active; 'I' for Inactive)
REMARK    1  A    between atoms: N_7  and  C_17
REMARK    2  A    between atoms: N_9  and  C_24
REMARK    3  A    between atoms: C_17  and  C_19
REMARK    4  A    between atoms: C_18  and  C_20
REMARK    5  A    between atoms: C_28  and  C_29
REMARK                            x       y       z     vdW  Elec       q    Type
REMARK                         _______ _______ _______ _____ _____    ______ ____
ROOT
ATOM      4  O   UNL     1     -14.440   4.808  35.482  0.00  0.00    -0.252 OA
ATOM      5  O   UNL     1     -12.438  11.074  33.128  0.00  0.00    -0.270 OA
ATOM      6  N   UNL     1     -13.822   6.498  33.973  0.00  0.00    -0.278 N 
ATOM      7  N   UNL     1     -14.721   4.611  33.149  0.00  0.00    -0.276 N 
ATOM      8  N   UNL     1     -13.626   9.070  32.938  0.00  0.00    -0.294 N 
ATOM     11  C   UNL     1     -13.743   6.654  32.530  0.00  0.00    +0.112 C 
ATOM     12  C   UNL     1     -14.545   5.472  31.993  0.00  0.00    +0.134 C 
ATOM     13  C   UNL     1     -14.269   8.025  32.118  0.00  0.00    +0.132 C 
ATOM     14  C   UNL     1     -13.296   7.537  34.842  0.00  0.00    +0.128 C 
ATOM     15  C   UNL     1     -13.800   8.905  34.387  0.00  0.00    +0.127 C 
ATOM     16  C   UNL     1     -14.337   5.249  34.345  0.00  0.00    +0.306 C 
ATOM     18  C   UNL     1     -12.936  10.179  32.445  0.00  0.00    +0.247 C 
ENDROOT
BRANCH  18  20
ATOM     20  C   UNL     1     -12.771  10.303  30.991  0.00  0.00    +0.037 A 
ATOM     21  C   UNL     1     -13.796  10.842  30.215  0.00  0.00    +0.013 A 
ATOM     22  C   UNL     1     -11.588   9.878  30.387  0.00  0.00    +0.013 A 
ATOM     26  C   UNL     1     -13.639  10.958  28.834  0.00  0.00    +0.013 A 
ATOM     27  C   UNL     1     -11.430   9.994  29.006  0.00  0.00    +0.013 A 
ATOM     28  C   UNL     1     -12.455  10.534  28.229  0.00  0.00    +0.055 A 
BRANCH  28  29
ATOM      1  F   UNL     1     -12.334  11.944  26.301  0.00  0.00    -0.166 F 
ATOM      2  F   UNL     1     -13.244   9.993  26.036  0.00  0.00    -0.166 F 
ATOM      3  F   UNL     1     -11.094  10.158  26.317  0.00  0.00    -0.166 F 
ATOM     29  C   UNL     1     -12.288  10.657  26.752  0.00  0.00    +0.417 C 
ENDBRANCH  28  29
ENDBRANCH  18  20
BRANCH   7  17
ATOM     17  C   UNL     1     -15.348   3.312  33.048  0.00  0.00    +0.183 C 
BRANCH  17  19
ATOM      9  N   UNL     1     -15.612   2.482  30.693  0.00  0.00    -0.336 N 
ATOM     10  N   UNL     1     -13.747   1.889  31.741  0.00  0.00    -0.239 NA
ATOM     19  C   UNL     1     -14.877   2.552  31.842  0.00  0.00    +0.127 A 
ATOM     23  C   UNL     1     -14.907   1.724  29.801  0.00  0.00    +0.106 A 
ATOM     24  C   UNL     1     -16.900   3.089  30.447  0.00  0.00    +0.150 C 
ATOM     25  C   UNL     1     -13.760   1.369  30.470  0.00  0.00    +0.130 A 
ENDBRANCH  17  19
ENDBRANCH   7  17
TORSDOF 4
ENDMDL
MODEL 10
REMARK VINA RESULT:      -6.3     28.458     30.979
REMARK  Name = 75537035
REMARK  5 active torsions:
REMARK  status: ('A' for Active; 'I' for Inactive)
REMARK    1  A    between atoms: N_7  and  C_17
REMARK    2  A    between atoms: N_9  and  C_24
REMARK    3  A    between atoms: C_17  and  C_19
REMARK    4  A    between atoms: C_18  and  C_20
REMARK    5  A    between atoms: C_28  and  C_29
REMARK                            x       y       z     vdW  Elec       q    Type
REMARK                         _______ _______ _______ _____ _____    ______ ____
ROOT
ATOM      4  O   UNL     1      19.672   5.873  20.401  0.00  0.00    -0.252 OA
ATOM      5  O   UNL     1      12.960   7.197  18.985  0.00  0.00    -0.270 OA
ATOM      6  N   UNL     1      17.553   6.881  20.522  0.00  0.00    -0.278 N 
ATOM      7  N   UNL     1      19.270   7.879  21.574  0.00  0.00    -0.276 N 
ATOM      8  N   UNL     1      15.116   7.851  19.606  0.00  0.00    -0.294 N 
ATOM     11  C   UNL     1      16.950   7.998  21.228  0.00  0.00    +0.112 C 
ATOM     12  C   UNL     1      18.148   8.783  21.756  0.00  0.00    +0.134 C 
ATOM     13  C   UNL     1      16.035   8.780  20.292  0.00  0.00    +0.132 C 
ATOM     14  C   UNL     1      16.718   5.981  19.744  0.00  0.00    +0.128 C 
ATOM     15  C   UNL     1      15.780   6.784  18.846  0.00  0.00    +0.127 C 
ATOM     16  C   UNL     1      18.925   6.762  20.787  0.00  0.00    +0.306 C 
ATOM     18  C   UNL     1      13.724   7.947  19.594  0.00  0.00    +0.247 C 
ENDROOT
BRANCH  18  20
ATOM     20  C   UNL     1      13.096   9.019  20.376  0.00  0.00    +0.037 A 
ATOM     21  C   UNL     1      12.686   8.779  21.688  0.00  0.00    +0.013 A 
ATOM     22  C   UNL     1      12.907  10.278  19.806  0.00  0.00    +0.013 A 
ATOM     26  C   UNL     1      12.088   9.797  22.430  0.00  0.00    +0.013 A 
ATOM     27  C   UNL     1      12.310  11.297  20.548  0.00  0.00    +0.013 A 
ATOM     28  C   UNL     1      11.901  11.057  21.860  0.00  0.00    +0.055 A 
BRANCH  28  29
ATOM      1  F   UNL     1      10.517  11.693  23.705  0.00  0.00    -0.166 F 
ATOM      2  F   UNL     1      10.409  12.926  21.923  0.00  0.00    -0.166 F 
ATOM      3  F   UNL     1      12.171  13.006  23.193  0.00  0.00    -0.166 F 
ATOM     29  C   UNL     1      11.260  12.146  22.653  0.00  0.00    +0.417 C 
ENDBRANCH  28  29
ENDBRANCH  18  20
BRANCH   7  17
ATOM     17  C   UNL     1      20.597   8.199  22.050  0.00  0.00    +0.183 C 
BRANCH  17  19
ATOM      9  N   UNL     1      22.449   8.290  20.355  0.00  0.00    -0.336 N 
ATOM     10  N   UNL     1      21.246  10.140  20.597  0.00  0.00    -0.239 NA
ATOM     19  C   UNL     1      21.414   8.902  21.004  0.00  0.00    +0.127 A 
ATOM     23  C   UNL     1      22.975   9.195  19.478  0.00  0.00    +0.106 A 
ATOM     24  C   UNL     1      22.915   6.936  20.548  0.00  0.00    +0.150 C 
ATOM     25  C   UNL     1      22.217  10.329  19.645  0.00  0.00    +0.130 A 
ENDBRANCH  17  19
ENDBRANCH   7  17
TORSDOF 4
ENDMDL
