MODEL 1
REMARK VINA RESULT:      -6.2      0.000      0.000
REMARK  Name = 51136608
REMARK  13 active torsions:
REMARK  status: ('A' for Active; 'I' for Inactive)
REMARK    1  A    between atoms: O_2  and  C_18
REMARK    2  A    between atoms: O_4  and  C_28
REMARK    3  A    between atoms: O_4  and  C_30
REMARK    4  A    between atoms: O_5  and  C_29
REMARK    5  A    between atoms: O_5  and  C_31
REMARK    6  A    between atoms: C_8  and  C_13
REMARK    7  A    between atoms: C_9  and  C_14
REMARK    8  A    between atoms: C_13  and  C_16
REMARK    9  A    between atoms: C_14  and  C_18
REMARK   10  A    between atoms: C_15  and  C_17
REMARK   11  A    between atoms: C_17  and  C_20
REMARK   12  A    between atoms: C_17  and  C_21
REMARK   13  A    between atoms: C_17  and  C_22
REMARK                            x       y       z     vdW  Elec       q    Type
REMARK                         _______ _______ _______ _____ _____    ______ ____
ROOT
ATOM      1  O   UNL     1     -11.980  -8.210  13.409  0.00  0.00    -0.275 OA
ATOM      6  N   UNL     1     -11.350  -8.674  15.598  0.00  0.00    -0.301 N 
ATOM      8  C   UNL     1      -9.114  -9.726  15.776  0.00  0.00    +0.016 C 
ATOM      9  C   UNL     1      -9.113  -9.480  17.306  0.00  0.00    +0.006 C 
ATOM     10  C   UNL     1     -10.542  -9.836  15.218  0.00  0.00    +0.112 C 
ATOM     11  C   UNL     1     -10.008  -8.270  17.629  0.00  0.00    +0.023 C 
ATOM     12  C   UNL     1     -11.411  -8.402  17.039  0.00  0.00    +0.108 C 
ATOM     15  C   UNL     1     -12.045  -7.966  14.616  0.00  0.00    +0.221 C 
ENDROOT
BRANCH  15  17
ATOM     17  C   UNL     1     -12.919  -6.832  15.091  0.00  0.00    +0.039 C 
ATOM     20  C   UNL     1     -13.987  -7.417  16.016  0.00  0.00    +0.020 C 
ATOM     21  C   UNL     1     -13.570  -6.169  13.875  0.00  0.00    +0.020 C 
ATOM     22  C   UNL     1     -12.053  -5.823  15.845  0.00  0.00    +0.020 C 
ENDBRANCH  15  17
BRANCH   8  13
ATOM     13  C   UNL     1      -8.282 -10.939  15.364  0.00  0.00    +0.061 C 
BRANCH  13  16
ATOM      7  N   UNL     1      -7.317 -10.055  13.350  0.00  0.00    -0.287 NA
ATOM     16  C   UNL     1      -7.094 -10.492  14.545  0.00  0.00    +0.044 C 
ATOM     19  C   UNL     1      -5.738 -10.582  15.143  0.00  0.00    +0.003 A 
ATOM     23  C   UNL     1      -4.653 -10.536  14.259  0.00  0.00    -0.033 A 
ATOM     24  C   UNL     1      -4.927 -10.417  12.789  0.00  0.00    +0.059 C 
ATOM     25  C   UNL     1      -6.171  -9.564  12.577  0.00  0.00    +0.146 C 
ATOM     26  C   UNL     1      -5.527 -10.720  16.517  0.00  0.00    +0.059 A 
ATOM     27  C   UNL     1      -3.352 -10.656  14.755  0.00  0.00    +0.053 A 
ATOM     28  C   UNL     1      -4.223 -10.824  17.005  0.00  0.00    +0.162 A 
ATOM     29  C   UNL     1      -3.139 -10.795  16.126  0.00  0.00    +0.162 A 
BRANCH  28   4
ATOM      4  O   UNL     1      -4.020 -10.957  18.345  0.00  0.00    -0.491 OA
ATOM     30  C   UNL     1      -4.289 -12.235  18.918  0.00  0.00    +0.277 C 
ENDBRANCH  28   4
BRANCH  29   5
ATOM      5  O   UNL     1      -1.865 -10.904  16.597  0.00  0.00    -0.491 OA
ATOM     31  C   UNL     1      -0.826 -10.357  15.787  0.00  0.00    +0.277 C 
ENDBRANCH  29   5
ENDBRANCH  13  16
ENDBRANCH   8  13
BRANCH   9  14
ATOM     14  C   UNL     1      -9.524 -10.703  18.135  0.00  0.00    +0.124 C 
BRANCH  14  18
ATOM      3  O   UNL     1      -7.686 -10.901  19.723  0.00  0.00    -0.251 OA
ATOM     18  C   UNL     1      -8.867 -10.701  19.488  0.00  0.00    +0.305 C 
BRANCH  18   2
ATOM      2  O   UNL     1      -9.793 -10.436  20.446  0.00  0.00    -0.481 OA
ATOM     32  H   UNL     1      -9.661  -9.552  20.847  0.00  0.00    +0.295 HD
ENDBRANCH  18   2
ENDBRANCH  14  18
ENDBRANCH   9  14
TORSDOF 8
ENDMDL
MODEL 2
REMARK VINA RESULT:      -6.1      2.686      4.970
REMARK  Name = 51136608
REMARK  13 active torsions:
REMARK  status: ('A' for Active; 'I' for Inactive)
REMARK    1  A    between atoms: O_2  and  C_18
REMARK    2  A    between atoms: O_4  and  C_28
REMARK    3  A    between atoms: O_4  and  C_30
REMARK    4  A    between atoms: O_5  and  C_29
REMARK    5  A    between atoms: O_5  and  C_31
REMARK    6  A    between atoms: C_8  and  C_13
REMARK    7  A    between atoms: C_9  and  C_14
REMARK    8  A    between atoms: C_13  and  C_16
REMARK    9  A    between atoms: C_14  and  C_18
REMARK   10  A    between atoms: C_15  and  C_17
REMARK   11  A    between atoms: C_17  and  C_20
REMARK   12  A    between atoms: C_17  and  C_21
REMARK   13  A    between atoms: C_17  and  C_22
REMARK                            x       y       z     vdW  Elec       q    Type
REMARK                         _______ _______ _______ _____ _____    ______ ____
ROOT
ATOM      1  O   UNL     1     -10.205 -11.045  15.586  0.00  0.00    -0.275 OA
ATOM      6  N   UNL     1      -8.457 -10.957  17.116  0.00  0.00    -0.301 N 
ATOM      8  C   UNL     1      -6.277 -11.644  16.159  0.00  0.00    +0.016 C 
ATOM      9  C   UNL     1      -5.546 -11.087  17.407  0.00  0.00    +0.006 C 
ATOM     10  C   UNL     1      -7.722 -12.055  16.481  0.00  0.00    +0.112 C 
ATOM     11  C   UNL     1      -6.392  -9.966  18.037  0.00  0.00    +0.023 C 
ATOM     12  C   UNL     1      -7.828 -10.402  18.320  0.00  0.00    +0.108 C 
ATOM     15  C   UNL     1      -9.694 -10.566  16.602  0.00  0.00    +0.221 C 
ENDROOT
BRANCH  15  17
ATOM     17  C   UNL     1     -10.428  -9.485  17.354  0.00  0.00    +0.039 C 
ATOM     20  C   UNL     1     -11.783  -9.277  16.677  0.00  0.00    +0.020 C 
ATOM     21  C   UNL     1      -9.600  -8.198  17.300  0.00  0.00    +0.020 C 
ATOM     22  C   UNL     1     -10.617  -9.934  18.804  0.00  0.00    +0.020 C 
ENDBRANCH  15  17
BRANCH   8  13
ATOM     13  C   UNL     1      -5.527 -12.794  15.490  0.00  0.00    +0.061 C 
BRANCH  13  16
ATOM      7  N   UNL     1      -3.182 -12.469  15.082  0.00  0.00    -0.287 NA
ATOM     16  C   UNL     1      -4.385 -12.252  14.664  0.00  0.00    +0.044 C 
ATOM     19  C   UNL     1      -4.695 -11.494  13.425  0.00  0.00    +0.003 A 
ATOM     23  C   UNL     1      -3.673 -10.690  12.904  0.00  0.00    -0.033 A 
ATOM     24  C   UNL     1      -2.360 -10.635  13.627  0.00  0.00    +0.059 C 
ATOM     25  C   UNL     1      -2.072 -11.995  14.249  0.00  0.00    +0.146 C 
ATOM     26  C   UNL     1      -5.941 -11.552  12.797  0.00  0.00    +0.059 A 
ATOM     27  C   UNL     1      -3.914  -9.921  11.763  0.00  0.00    +0.053 A 
ATOM     28  C   UNL     1      -6.167 -10.791  11.649  0.00  0.00    +0.162 A 
ATOM     29  C   UNL     1      -5.158  -9.976  11.134  0.00  0.00    +0.162 A 
BRANCH  28   4
ATOM      4  O   UNL     1      -7.383 -10.851  11.037  0.00  0.00    -0.491 OA
ATOM     30  C   UNL     1      -8.445 -10.108  11.632  0.00  0.00    +0.277 C 
ENDBRANCH  28   4
BRANCH  29   5
ATOM      5  O   UNL     1      -5.378  -9.227  10.018  0.00  0.00    -0.491 OA
ATOM     31  C   UNL     1      -4.281  -9.066   9.119  0.00  0.00    +0.277 C 
ENDBRANCH  29   5
ENDBRANCH  13  16
ENDBRANCH   8  13
BRANCH   9  14
ATOM     14  C   UNL     1      -5.188 -12.155  18.447  0.00  0.00    +0.124 C 
BRANCH  14  18
ATOM      3  O   UNL     1      -3.322 -12.312  20.007  0.00  0.00    -0.251 OA
ATOM     18  C   UNL     1      -3.761 -12.027  18.904  0.00  0.00    +0.305 C 
BRANCH  18   2
ATOM      2  O   UNL     1      -2.999 -11.536  17.891  0.00  0.00    -0.481 OA
ATOM     32  H   UNL     1      -2.046 -11.540  18.117  0.00  0.00    +0.295 HD
ENDBRANCH  18   2
ENDBRANCH  14  18
ENDBRANCH   9  14
TORSDOF 8
ENDMDL
MODEL 3
REMARK VINA RESULT:      -5.9      1.820      3.013
REMARK  Name = 51136608
REMARK  13 active torsions:
REMARK  status: ('A' for Active; 'I' for Inactive)
REMARK    1  A    between atoms: O_2  and  C_18
REMARK    2  A    between atoms: O_4  and  C_28
REMARK    3  A    between atoms: O_4  and  C_30
REMARK    4  A    between atoms: O_5  and  C_29
REMARK    5  A    between atoms: O_5  and  C_31
REMARK    6  A    between atoms: C_8  and  C_13
REMARK    7  A    between atoms: C_9  and  C_14
REMARK    8  A    between atoms: C_13  and  C_16
REMARK    9  A    between atoms: C_14  and  C_18
REMARK   10  A    between atoms: C_15  and  C_17
REMARK   11  A    between atoms: C_17  and  C_20
REMARK   12  A    between atoms: C_17  and  C_21
REMARK   13  A    between atoms: C_17  and  C_22
REMARK                            x       y       z     vdW  Elec       q    Type
REMARK                         _______ _______ _______ _____ _____    ______ ____
ROOT
ATOM      1  O   UNL     1     -11.216  -8.694  13.082  0.00  0.00    -0.275 OA
ATOM      6  N   UNL     1     -11.441  -8.820  15.392  0.00  0.00    -0.301 N 
ATOM      8  C   UNL     1      -9.672 -10.171  16.480  0.00  0.00    +0.016 C 
ATOM      9  C   UNL     1     -10.106  -9.635  17.868  0.00  0.00    +0.006 C 
ATOM     10  C   UNL     1     -10.831 -10.151  15.473  0.00  0.00    +0.112 C 
ATOM     11  C   UNL     1     -10.767  -8.255  17.699  0.00  0.00    +0.023 C 
ATOM     12  C   UNL     1     -11.898  -8.267  16.672  0.00  0.00    +0.108 C 
ATOM     15  C   UNL     1     -11.609  -8.212  14.148  0.00  0.00    +0.221 C 
ENDROOT
BRANCH  15  17
ATOM     17  C   UNL     1     -12.315  -6.880  14.136  0.00  0.00    +0.039 C 
ATOM     20  C   UNL     1     -13.684  -7.067  14.790  0.00  0.00    +0.020 C 
ATOM     21  C   UNL     1     -12.475  -6.419  12.684  0.00  0.00    +0.020 C 
ATOM     22  C   UNL     1     -11.479  -5.870  14.923  0.00  0.00    +0.020 C 
ENDBRANCH  15  17
BRANCH   8  13
ATOM     13  C   UNL     1      -9.041 -11.561  16.546  0.00  0.00    +0.061 C 
BRANCH  13  16
ATOM      7  N   UNL     1      -7.884 -11.688  18.647  0.00  0.00    -0.287 NA
ATOM     16  C   UNL     1      -7.777 -11.513  17.372  0.00  0.00    +0.044 C 
ATOM     19  C   UNL     1      -6.484 -11.262  16.686  0.00  0.00    +0.003 A 
ATOM     23  C   UNL     1      -5.415 -10.844  17.488  0.00  0.00    -0.033 A 
ATOM     24  C   UNL     1      -5.646 -10.664  18.960  0.00  0.00    +0.059 C 
ATOM     25  C   UNL     1      -6.651 -11.703  19.441  0.00  0.00    +0.146 C 
ATOM     26  C   UNL     1      -6.319 -11.415  15.308  0.00  0.00    +0.059 A 
ATOM     27  C   UNL     1      -4.183 -10.552  16.899  0.00  0.00    +0.053 A 
ATOM     28  C   UNL     1      -5.079 -11.136  14.730  0.00  0.00    +0.162 A 
ATOM     29  C   UNL     1      -4.015 -10.703  15.522  0.00  0.00    +0.162 A 
BRANCH  28   4
ATOM      4  O   UNL     1      -4.920 -11.288  13.385  0.00  0.00    -0.491 OA
ATOM     30  C   UNL     1      -5.400 -10.234  12.553  0.00  0.00    +0.277 C 
ENDBRANCH  28   4
BRANCH  29   5
ATOM      5  O   UNL     1      -2.806 -10.423  14.960  0.00  0.00    -0.491 OA
ATOM     31  C   UNL     1      -1.651 -10.950  15.611  0.00  0.00    +0.277 C 
ENDBRANCH  29   5
ENDBRANCH  13  16
ENDBRANCH   8  13
BRANCH   9  14
ATOM     14  C   UNL     1     -11.021 -10.589  18.646  0.00  0.00    +0.124 C 
BRANCH  14  18
ATOM      3  O   UNL     1     -12.156  -9.864  20.677  0.00  0.00    -0.251 OA
ATOM     18  C   UNL     1     -11.135 -10.190  20.091  0.00  0.00    +0.305 C 
BRANCH  18   2
ATOM      2  O   UNL     1      -9.911 -10.243  20.679  0.00  0.00    -0.481 OA
ATOM     32  H   UNL     1      -9.728 -11.127  21.060  0.00  0.00    +0.295 HD
ENDBRANCH  18   2
ENDBRANCH  14  18
ENDBRANCH   9  14
TORSDOF 8
ENDMDL
MODEL 4
REMARK VINA RESULT:      -5.8      3.629      7.583
REMARK  Name = 51136608
REMARK  13 active torsions:
REMARK  status: ('A' for Active; 'I' for Inactive)
REMARK    1  A    between atoms: O_2  and  C_18
REMARK    2  A    between atoms: O_4  and  C_28
REMARK    3  A    between atoms: O_4  and  C_30
REMARK    4  A    between atoms: O_5  and  C_29
REMARK    5  A    between atoms: O_5  and  C_31
REMARK    6  A    between atoms: C_8  and  C_13
REMARK    7  A    between atoms: C_9  and  C_14
REMARK    8  A    between atoms: C_13  and  C_16
REMARK    9  A    between atoms: C_14  and  C_18
REMARK   10  A    between atoms: C_15  and  C_17
REMARK   11  A    between atoms: C_17  and  C_20
REMARK   12  A    between atoms: C_17  and  C_21
REMARK   13  A    between atoms: C_17  and  C_22
REMARK                            x       y       z     vdW  Elec       q    Type
REMARK                         _______ _______ _______ _____ _____    ______ ____
ROOT
ATOM      1  O   UNL     1      -8.176  -9.663   7.942  0.00  0.00    -0.275 OA
ATOM      6  N   UNL     1      -5.992 -10.220   8.512  0.00  0.00    -0.301 N 
ATOM      8  C   UNL     1      -5.532 -10.038  10.940  0.00  0.00    +0.016 C 
ATOM      9  C   UNL     1      -4.195 -10.798  10.750  0.00  0.00    +0.006 C 
ATOM     10  C   UNL     1      -5.959  -9.307   9.658  0.00  0.00    +0.112 C 
ATOM     11  C   UNL     1      -4.294 -11.707   9.512  0.00  0.00    +0.023 C 
ATOM     12  C   UNL     1      -4.744 -10.952   8.263  0.00  0.00    +0.108 C 
ATOM     15  C   UNL     1      -7.135 -10.286   7.715  0.00  0.00    +0.221 C 
ENDROOT
BRANCH  15  17
ATOM     17  C   UNL     1      -7.068 -11.188   6.508  0.00  0.00    +0.039 C 
ATOM     20  C   UNL     1      -5.936 -10.687   5.609  0.00  0.00    +0.020 C 
ATOM     21  C   UNL     1      -8.407 -11.124   5.769  0.00  0.00    +0.020 C 
ATOM     22  C   UNL     1      -6.787 -12.617   6.975  0.00  0.00    +0.020 C 
ENDBRANCH  15  17
BRANCH   8  13
ATOM     13  C   UNL     1      -5.511  -9.076  12.126  0.00  0.00    +0.061 C 
BRANCH  13  16
ATOM      7  N   UNL     1      -7.603  -9.651  13.157  0.00  0.00    -0.287 NA
ATOM     16  C   UNL     1      -6.316  -9.651  13.268  0.00  0.00    +0.044 C 
ATOM     19  C   UNL     1      -5.597 -10.178  14.456  0.00  0.00    +0.003 A 
ATOM     23  C   UNL     1      -6.347 -10.338  15.628  0.00  0.00    -0.033 A 
ATOM     24  C   UNL     1      -7.799  -9.959  15.611  0.00  0.00    +0.059 C 
ATOM     25  C   UNL     1      -8.382 -10.265  14.238  0.00  0.00    +0.146 C 
ATOM     26  C   UNL     1      -4.237 -10.492  14.437  0.00  0.00    +0.059 A 
ATOM     27  C   UNL     1      -5.721 -10.791  16.792  0.00  0.00    +0.053 A 
ATOM     28  C   UNL     1      -3.623 -10.959  15.601  0.00  0.00    +0.162 A 
ATOM     29  C   UNL     1      -4.362 -11.105  16.775  0.00  0.00    +0.162 A 
BRANCH  28   4
ATOM      4  O   UNL     1      -2.296 -11.267  15.578  0.00  0.00    -0.491 OA
ATOM     30  C   UNL     1      -1.378 -10.176  15.580  0.00  0.00    +0.277 C 
ENDBRANCH  28   4
BRANCH  29   5
ATOM      5  O   UNL     1      -3.765 -11.554  17.915  0.00  0.00    -0.491 OA
ATOM     31  C   UNL     1      -4.605 -12.182  18.883  0.00  0.00    +0.277 C 
ENDBRANCH  29   5
ENDBRANCH  13  16
ENDBRANCH   8  13
BRANCH   9  14
ATOM     14  C   UNL     1      -2.966  -9.884  10.662  0.00  0.00    +0.124 C 
BRANCH  14  18
ATOM      3  O   UNL     1      -1.799 -11.420  12.152  0.00  0.00    -0.251 OA
ATOM     18  C   UNL     1      -1.869 -10.342  11.583  0.00  0.00    +0.305 C 
BRANCH  18   2
ATOM      2  O   UNL     1      -0.934  -9.363  11.702  0.00  0.00    -0.481 OA
ATOM     32  H   UNL     1      -0.806  -8.877  10.860  0.00  0.00    +0.295 HD
ENDBRANCH  18   2
ENDBRANCH  14  18
ENDBRANCH   9  14
TORSDOF 8
ENDMDL
MODEL 5
REMARK VINA RESULT:      -5.8     20.834     24.156
REMARK  Name = 51136608
REMARK  13 active torsions:
REMARK  status: ('A' for Active; 'I' for Inactive)
REMARK    1  A    between atoms: O_2  and  C_18
REMARK    2  A    between atoms: O_4  and  C_28
REMARK    3  A    between atoms: O_4  and  C_30
REMARK    4  A    between atoms: O_5  and  C_29
REMARK    5  A    between atoms: O_5  and  C_31
REMARK    6  A    between atoms: C_8  and  C_13
REMARK    7  A    between atoms: C_9  and  C_14
REMARK    8  A    between atoms: C_13  and  C_16
REMARK    9  A    between atoms: C_14  and  C_18
REMARK   10  A    between atoms: C_15  and  C_17
REMARK   11  A    between atoms: C_17  and  C_20
REMARK   12  A    between atoms: C_17  and  C_21
REMARK   13  A    between atoms: C_17  and  C_22
REMARK                            x       y       z     vdW  Elec       q    Type
REMARK                         _______ _______ _______ _____ _____    ______ ____
ROOT
ATOM      1  O   UNL     1     -14.382  10.251  28.704  0.00  0.00    -0.275 OA
ATOM      6  N   UNL     1     -13.210   9.973  30.693  0.00  0.00    -0.301 N 
ATOM      8  C   UNL     1     -13.953   8.007  32.005  0.00  0.00    +0.016 C 
ATOM      9  C   UNL     1     -12.705   8.135  32.915  0.00  0.00    +0.006 C 
ATOM     10  C   UNL     1     -14.346   9.356  31.385  0.00  0.00    +0.112 C 
ATOM     11  C   UNL     1     -11.571   8.820  32.133  0.00  0.00    +0.023 C 
ATOM     12  C   UNL     1     -12.004  10.146  31.510  0.00  0.00    +0.108 C 
ATOM     15  C   UNL     1     -13.358  10.407  29.375  0.00  0.00    +0.221 C 
ENDROOT
BRANCH  15  17
ATOM     17  C   UNL     1     -12.173  11.103  28.755  0.00  0.00    +0.039 C 
ATOM     20  C   UNL     1     -11.537  11.993  29.825  0.00  0.00    +0.020 C 
ATOM     21  C   UNL     1     -12.659  11.949  27.576  0.00  0.00    +0.020 C 
ATOM     22  C   UNL     1     -11.176  10.048  28.275  0.00  0.00    +0.020 C 
ENDBRANCH  15  17
BRANCH   8  13
ATOM     13  C   UNL     1     -15.149   7.373  32.714  0.00  0.00    +0.061 C 
BRANCH  13  16
ATOM      7  N   UNL     1     -14.553   5.411  33.967  0.00  0.00    -0.287 NA
ATOM     16  C   UNL     1     -14.945   5.881  32.829  0.00  0.00    +0.044 C 
ATOM     19  C   UNL     1     -15.197   5.031  31.637  0.00  0.00    +0.003 A 
ATOM     23  C   UNL     1     -14.643   3.745  31.649  0.00  0.00    -0.033 A 
ATOM     24  C   UNL     1     -13.833   3.322  32.839  0.00  0.00    +0.059 C 
ATOM     25  C   UNL     1     -14.415   3.957  34.095  0.00  0.00    +0.146 C 
ATOM     26  C   UNL     1     -15.934   5.474  30.537  0.00  0.00    +0.059 A 
ATOM     27  C   UNL     1     -14.809   2.911  30.541  0.00  0.00    +0.053 A 
ATOM     28  C   UNL     1     -16.108   4.628  29.440  0.00  0.00    +0.162 A 
ATOM     29  C   UNL     1     -15.545   3.351  29.441  0.00  0.00    +0.162 A 
BRANCH  28   4
ATOM      4  O   UNL     1     -16.830   5.062  28.369  0.00  0.00    -0.491 OA
ATOM     30  C   UNL     1     -18.251   5.007  28.482  0.00  0.00    +0.277 C 
ENDBRANCH  28   4
BRANCH  29   5
ATOM      5  O   UNL     1     -15.706   2.525  28.369  0.00  0.00    -0.491 OA
ATOM     31  C   UNL     1     -16.506   1.360  28.564  0.00  0.00    +0.277 C 
ENDBRANCH  29   5
ENDBRANCH  13  16
ENDBRANCH   8  13
BRANCH   9  14
ATOM     14  C   UNL     1     -12.972   8.857  34.241  0.00  0.00    +0.124 C 
BRANCH  14  18
ATOM      3  O   UNL     1     -11.307   8.460  35.976  0.00  0.00    -0.251 OA
ATOM     18  C   UNL     1     -12.335   8.141  35.400  0.00  0.00    +0.305 C 
BRANCH  18   2
ATOM      2  O   UNL     1     -13.081   7.055  35.732  0.00  0.00    -0.481 OA
ATOM     32  H   UNL     1     -12.534   6.245  35.803  0.00  0.00    +0.295 HD
ENDBRANCH  18   2
ENDBRANCH  14  18
ENDBRANCH   9  14
TORSDOF 8
ENDMDL
MODEL 6
REMARK VINA RESULT:      -5.8     25.039     28.884
REMARK  Name = 51136608
REMARK  13 active torsions:
REMARK  status: ('A' for Active; 'I' for Inactive)
REMARK    1  A    between atoms: O_2  and  C_18
REMARK    2  A    between atoms: O_4  and  C_28
REMARK    3  A    between atoms: O_4  and  C_30
REMARK    4  A    between atoms: O_5  and  C_29
REMARK    5  A    between atoms: O_5  and  C_31
REMARK    6  A    between atoms: C_8  and  C_13
REMARK    7  A    between atoms: C_9  and  C_14
REMARK    8  A    between atoms: C_13  and  C_16
REMARK    9  A    between atoms: C_14  and  C_18
REMARK   10  A    between atoms: C_15  and  C_17
REMARK   11  A    between atoms: C_17  and  C_20
REMARK   12  A    between atoms: C_17  and  C_21
REMARK   13  A    between atoms: C_17  and  C_22
REMARK                            x       y       z     vdW  Elec       q    Type
REMARK                         _______ _______ _______ _____ _____    ______ ____
ROOT
ATOM      1  O   UNL     1      13.343   9.597   3.619  0.00  0.00    -0.275 OA
ATOM      6  N   UNL     1      12.567   8.481   5.505  0.00  0.00    -0.301 N 
ATOM      8  C   UNL     1      11.343   6.392   4.978  0.00  0.00    +0.016 C 
ATOM      9  C   UNL     1      11.397   5.977   6.470  0.00  0.00    +0.006 C 
ATOM     10  C   UNL     1      11.406   7.918   4.809  0.00  0.00    +0.112 C 
ATOM     11  C   UNL     1      12.618   6.632   7.139  0.00  0.00    +0.023 C 
ATOM     12  C   UNL     1      12.662   8.145   6.930  0.00  0.00    +0.108 C 
ATOM     15  C   UNL     1      13.440   9.327   4.819  0.00  0.00    +0.221 C 
ENDROOT
BRANCH  15  17
ATOM     17  C   UNL     1      14.566   9.931   5.619  0.00  0.00    +0.039 C 
ATOM     20  C   UNL     1      15.466   8.793   6.100  0.00  0.00    +0.020 C 
ATOM     21  C   UNL     1      13.972  10.684   6.813  0.00  0.00    +0.020 C 
ATOM     22  C   UNL     1      15.349  10.891   4.723  0.00  0.00    +0.020 C 
ENDBRANCH  15  17
BRANCH   8  13
ATOM     13  C   UNL     1      10.134   5.819   4.241  0.00  0.00    +0.061 C 
BRANCH  13  16
ATOM      7  N   UNL     1       9.488   7.268   2.436  0.00  0.00    -0.287 NA
ATOM     16  C   UNL     1      10.176   6.232   2.788  0.00  0.00    +0.044 C 
ATOM     19  C   UNL     1      10.993   5.432   1.840  0.00  0.00    +0.003 A 
ATOM     23  C   UNL     1      10.714   5.591   0.477  0.00  0.00    -0.033 A 
ATOM     24  C   UNL     1       9.617   6.530   0.071  0.00  0.00    +0.059 C 
ATOM     25  C   UNL     1       9.577   7.705   1.039  0.00  0.00    +0.146 C 
ATOM     26  C   UNL     1      11.987   4.548   2.262  0.00  0.00    +0.059 A 
ATOM     27  C   UNL     1      11.419   4.837  -0.464  0.00  0.00    +0.053 A 
ATOM     28  C   UNL     1      12.697   3.809   1.314  0.00  0.00    +0.162 A 
ATOM     29  C   UNL     1      12.413   3.951  -0.045  0.00  0.00    +0.162 A 
BRANCH  28   4
ATOM      4  O   UNL     1      13.669   2.949   1.728  0.00  0.00    -0.491 OA
ATOM     30  C   UNL     1      15.003   3.452   1.774  0.00  0.00    +0.277 C 
ENDBRANCH  28   4
BRANCH  29   5
ATOM      5  O   UNL     1      13.099   3.227  -0.973  0.00  0.00    -0.491 OA
ATOM     31  C   UNL     1      13.636   3.942  -2.085  0.00  0.00    +0.277 C 
ENDBRANCH  29   5
ENDBRANCH  13  16
ENDBRANCH   8  13
BRANCH   9  14
ATOM     14  C   UNL     1      10.114   6.285   7.250  0.00  0.00    +0.124 C 
BRANCH  14  18
ATOM      3  O   UNL     1       9.148   5.376   9.295  0.00  0.00    -0.251 OA
ATOM     18  C   UNL     1       9.837   5.240   8.296  0.00  0.00    +0.305 C 
BRANCH  18   2
ATOM      2  O   UNL     1      10.476   4.086   7.970  0.00  0.00    -0.481 OA
ATOM     32  H   UNL     1      10.259   3.361   8.592  0.00  0.00    +0.295 HD
ENDBRANCH  18   2
ENDBRANCH  14  18
ENDBRANCH   9  14
TORSDOF 8
ENDMDL
MODEL 7
REMARK VINA RESULT:      -5.7      2.290      7.642
REMARK  Name = 51136608
REMARK  13 active torsions:
REMARK  status: ('A' for Active; 'I' for Inactive)
REMARK    1  A    between atoms: O_2  and  C_18
REMARK    2  A    between atoms: O_4  and  C_28
REMARK    3  A    between atoms: O_4  and  C_30
REMARK    4  A    between atoms: O_5  and  C_29
REMARK    5  A    between atoms: O_5  and  C_31
REMARK    6  A    between atoms: C_8  and  C_13
REMARK    7  A    between atoms: C_9  and  C_14
REMARK    8  A    between atoms: C_13  and  C_16
REMARK    9  A    between atoms: C_14  and  C_18
REMARK   10  A    between atoms: C_15  and  C_17
REMARK   11  A    between atoms: C_17  and  C_20
REMARK   12  A    between atoms: C_17  and  C_21
REMARK   13  A    between atoms: C_17  and  C_22
REMARK                            x       y       z     vdW  Elec       q    Type
REMARK                         _______ _______ _______ _____ _____    ______ ____
ROOT
ATOM      1  O   UNL     1      -5.742  -9.424  12.440  0.00  0.00    -0.275 OA
ATOM      6  N   UNL     1      -4.787 -10.719  14.118  0.00  0.00    -0.301 N 
ATOM      8  C   UNL     1      -6.076 -10.695  16.233  0.00  0.00    +0.016 C 
ATOM      9  C   UNL     1      -5.236 -11.883  16.767  0.00  0.00    +0.006 C 
ATOM     10  C   UNL     1      -5.301  -9.869  15.196  0.00  0.00    +0.112 C 
ATOM     11  C   UNL     1      -4.703 -12.706  15.580  0.00  0.00    +0.023 C 
ATOM     12  C   UNL     1      -3.959 -11.849  14.557  0.00  0.00    +0.108 C 
ATOM     15  C   UNL     1      -5.043 -10.379  12.789  0.00  0.00    +0.221 C 
ENDROOT
BRANCH  15  17
ATOM     17  C   UNL     1      -4.415 -11.254  11.733  0.00  0.00    +0.039 C 
ATOM     20  C   UNL     1      -2.901 -11.242  11.951  0.00  0.00    +0.020 C 
ATOM     21  C   UNL     1      -4.761 -10.688  10.354  0.00  0.00    +0.020 C 
ATOM     22  C   UNL     1      -4.965 -12.674  11.878  0.00  0.00    +0.020 C 
ENDBRANCH  15  17
BRANCH   8  13
ATOM     13  C   UNL     1      -6.613  -9.795  17.345  0.00  0.00    +0.061 C 
BRANCH  13  16
ATOM      7  N   UNL     1      -7.833 -11.183  18.879  0.00  0.00    -0.287 NA
ATOM     16  C   UNL     1      -7.905 -10.362  17.885  0.00  0.00    +0.044 C 
ATOM     19  C   UNL     1      -9.185  -9.956  17.250  0.00  0.00    +0.003 A 
ATOM     23  C   UNL     1     -10.299 -10.767  17.500  0.00  0.00    -0.033 A 
ATOM     24  C   UNL     1     -10.126 -11.980  18.365  0.00  0.00    +0.059 C 
ATOM     25  C   UNL     1      -9.090 -11.686  19.443  0.00  0.00    +0.146 C 
ATOM     26  C   UNL     1      -9.296  -8.833  16.427  0.00  0.00    +0.059 A 
ATOM     27  C   UNL     1     -11.523 -10.463  16.899  0.00  0.00    +0.053 A 
ATOM     28  C   UNL     1     -10.527  -8.528  15.844  0.00  0.00    +0.162 A 
ATOM     29  C   UNL     1     -11.637  -9.342  16.077  0.00  0.00    +0.162 A 
BRANCH  28   4
ATOM      4  O   UNL     1     -10.633  -7.430  15.044  0.00  0.00    -0.491 OA
ATOM     30  C   UNL     1     -10.750  -6.166  15.693  0.00  0.00    +0.277 C 
ENDBRANCH  28   4
BRANCH  29   5
ATOM      5  O   UNL     1     -12.838  -9.052  15.503  0.00  0.00    -0.491 OA
ATOM     31  C   UNL     1     -13.797  -8.377  16.315  0.00  0.00    +0.277 C 
ENDBRANCH  29   5
ENDBRANCH  13  16
ENDBRANCH   8  13
BRANCH   9  14
ATOM     14  C   UNL     1      -4.094 -11.468  17.702  0.00  0.00    +0.124 C 
BRANCH  14  18
ATOM      3  O   UNL     1      -3.326 -12.207  19.894  0.00  0.00    -0.251 OA
ATOM     18  C   UNL     1      -4.193 -12.155  19.036  0.00  0.00    +0.305 C 
BRANCH  18   2
ATOM      2  O   UNL     1      -5.418 -12.731  19.164  0.00  0.00    -0.481 OA
ATOM     32  H   UNL     1      -6.118 -12.065  19.327  0.00  0.00    +0.295 HD
ENDBRANCH  18   2
ENDBRANCH  14  18
ENDBRANCH   9  14
TORSDOF 8
ENDMDL
MODEL 8
REMARK VINA RESULT:      -5.7      2.468      7.389
REMARK  Name = 51136608
REMARK  13 active torsions:
REMARK  status: ('A' for Active; 'I' for Inactive)
REMARK    1  A    between atoms: O_2  and  C_18
REMARK    2  A    between atoms: O_4  and  C_28
REMARK    3  A    between atoms: O_4  and  C_30
REMARK    4  A    between atoms: O_5  and  C_29
REMARK    5  A    between atoms: O_5  and  C_31
REMARK    6  A    between atoms: C_8  and  C_13
REMARK    7  A    between atoms: C_9  and  C_14
REMARK    8  A    between atoms: C_13  and  C_16
REMARK    9  A    between atoms: C_14  and  C_18
REMARK   10  A    between atoms: C_15  and  C_17
REMARK   11  A    between atoms: C_17  and  C_20
REMARK   12  A    between atoms: C_17  and  C_21
REMARK   13  A    between atoms: C_17  and  C_22
REMARK                            x       y       z     vdW  Elec       q    Type
REMARK                         _______ _______ _______ _____ _____    ______ ____
ROOT
ATOM      1  O   UNL     1      -5.400 -10.041  12.175  0.00  0.00    -0.275 OA
ATOM      6  N   UNL     1      -4.634 -11.054  14.122  0.00  0.00    -0.301 N 
ATOM      8  C   UNL     1      -6.096 -10.651  16.081  0.00  0.00    +0.016 C 
ATOM      9  C   UNL     1      -5.345 -11.748  16.876  0.00  0.00    +0.006 C 
ATOM     10  C   UNL     1      -5.209 -10.026  14.994  0.00  0.00    +0.112 C 
ATOM     11  C   UNL     1      -4.742 -12.768  15.894  0.00  0.00    +0.023 C 
ATOM     12  C   UNL     1      -3.886 -12.110  14.814  0.00  0.00    +0.108 C 
ATOM     15  C   UNL     1      -4.766 -10.937  12.737  0.00  0.00    +0.221 C 
ENDROOT
BRANCH  15  17
ATOM     17  C   UNL     1      -4.081 -11.989  11.901  0.00  0.00    +0.039 C 
ATOM     20  C   UNL     1      -4.734 -13.336  12.214  0.00  0.00    +0.020 C 
ATOM     21  C   UNL     1      -2.595 -12.018  12.265  0.00  0.00    +0.020 C 
ATOM     22  C   UNL     1      -4.259 -11.638  10.424  0.00  0.00    +0.020 C 
ENDBRANCH  15  17
BRANCH   8  13
ATOM     13  C   UNL     1      -6.694  -9.566  16.976  0.00  0.00    +0.061 C 
BRANCH  13  16
ATOM      7  N   UNL     1      -8.522  -8.858  15.588  0.00  0.00    -0.287 NA
ATOM     16  C   UNL     1      -8.171  -9.425  16.694  0.00  0.00    +0.044 C 
ATOM     19  C   UNL     1      -9.143  -9.934  17.695  0.00  0.00    +0.003 A 
ATOM     23  C   UNL     1     -10.456  -9.456  17.601  0.00  0.00    -0.033 A 
ATOM     24  C   UNL     1     -10.786  -8.466  16.524  0.00  0.00    +0.059 C 
ATOM     25  C   UNL     1      -9.954  -8.775  15.285  0.00  0.00    +0.146 C 
ATOM     26  C   UNL     1      -8.787 -10.835  18.701  0.00  0.00    +0.059 A 
ATOM     27  C   UNL     1     -11.408  -9.865  18.538  0.00  0.00    +0.053 A 
ATOM     28  C   UNL     1      -9.749 -11.250  19.624  0.00  0.00    +0.162 A 
ATOM     29  C   UNL     1     -11.055 -10.765  19.544  0.00  0.00    +0.162 A 
BRANCH  28   4
ATOM      4  O   UNL     1      -9.400 -12.132  20.602  0.00  0.00    -0.491 OA
ATOM     30  C   UNL     1      -8.976 -13.428  20.184  0.00  0.00    +0.277 C 
ENDBRANCH  28   4
BRANCH  29   5
ATOM      5  O   UNL     1     -11.995 -11.162  20.447  0.00  0.00    -0.491 OA
ATOM     31  C   UNL     1     -13.022 -10.224  20.768  0.00  0.00    +0.277 C 
ENDBRANCH  29   5
ENDBRANCH  13  16
ENDBRANCH   8  13
BRANCH   9  14
ATOM     14  C   UNL     1      -4.272 -11.204  17.828  0.00  0.00    +0.124 C 
BRANCH  14  18
ATOM      3  O   UNL     1      -3.375 -12.208  19.859  0.00  0.00    -0.251 OA
ATOM     18  C   UNL     1      -4.328 -11.881  19.170  0.00  0.00    +0.305 C 
BRANCH  18   2
ATOM      2  O   UNL     1      -5.623 -12.087  19.525  0.00  0.00    -0.481 OA
ATOM     32  H   UNL     1      -6.192 -12.259  18.745  0.00  0.00    +0.295 HD
ENDBRANCH  18   2
ENDBRANCH  14  18
ENDBRANCH   9  14
TORSDOF 8
ENDMDL
MODEL 9
REMARK VINA RESULT:      -5.7      2.390      7.194
REMARK  Name = 51136608
REMARK  13 active torsions:
REMARK  status: ('A' for Active; 'I' for Inactive)
REMARK    1  A    between atoms: O_2  and  C_18
REMARK    2  A    between atoms: O_4  and  C_28
REMARK    3  A    between atoms: O_4  and  C_30
REMARK    4  A    between atoms: O_5  and  C_29
REMARK    5  A    between atoms: O_5  and  C_31
REMARK    6  A    between atoms: C_8  and  C_13
REMARK    7  A    between atoms: C_9  and  C_14
REMARK    8  A    between atoms: C_13  and  C_16
REMARK    9  A    between atoms: C_14  and  C_18
REMARK   10  A    between atoms: C_15  and  C_17
REMARK   11  A    between atoms: C_17  and  C_20
REMARK   12  A    between atoms: C_17  and  C_21
REMARK   13  A    between atoms: C_17  and  C_22
REMARK                            x       y       z     vdW  Elec       q    Type
REMARK                         _______ _______ _______ _____ _____    ______ ____
ROOT
ATOM      1  O   UNL     1      -8.446 -10.271  12.291  0.00  0.00    -0.275 OA
ATOM      6  N   UNL     1      -6.265 -10.906  12.785  0.00  0.00    -0.301 N 
ATOM      8  C   UNL     1      -5.684 -10.650  15.180  0.00  0.00    +0.016 C 
ATOM      9  C   UNL     1      -4.392 -11.477  14.962  0.00  0.00    +0.006 C 
ATOM     10  C   UNL     1      -6.138  -9.951  13.889  0.00  0.00    +0.112 C 
ATOM     11  C   UNL     1      -4.590 -12.429  13.768  0.00  0.00    +0.023 C 
ATOM     12  C   UNL     1      -5.064 -11.703  12.510  0.00  0.00    +0.108 C 
ATOM     15  C   UNL     1      -7.447 -10.950  12.044  0.00  0.00    +0.221 C 
ENDROOT
BRANCH  15  17
ATOM     17  C   UNL     1      -7.476 -11.901  10.873  0.00  0.00    +0.039 C 
ATOM     20  C   UNL     1      -8.823 -11.738  10.168  0.00  0.00    +0.020 C 
ATOM     21  C   UNL     1      -7.315 -13.331  11.395  0.00  0.00    +0.020 C 
ATOM     22  C   UNL     1      -6.329 -11.551   9.924  0.00  0.00    +0.020 C 
ENDBRANCH  15  17
BRANCH   8  13
ATOM     13  C   UNL     1      -5.565  -9.644  16.323  0.00  0.00    +0.061 C 
BRANCH  13  16
ATOM      7  N   UNL     1      -5.366 -10.909  18.355  0.00  0.00    -0.287 NA
ATOM     16  C   UNL     1      -6.150 -10.230  17.586  0.00  0.00    +0.044 C 
ATOM     19  C   UNL     1      -7.589 -10.005  17.878  0.00  0.00    +0.003 A 
ATOM     23  C   UNL     1      -8.183 -10.857  18.818  0.00  0.00    -0.033 A 
ATOM     24  C   UNL     1      -7.346 -11.933  19.445  0.00  0.00    +0.059 C 
ATOM     25  C   UNL     1      -5.919 -11.426  19.611  0.00  0.00    +0.146 C 
ATOM     26  C   UNL     1      -8.340  -9.009  17.251  0.00  0.00    +0.059 A 
ATOM     27  C   UNL     1      -9.543 -10.725  19.107  0.00  0.00    +0.053 A 
ATOM     28  C   UNL     1      -9.695  -8.874  17.557  0.00  0.00    +0.162 A 
ATOM     29  C   UNL     1     -10.296  -9.731  18.481  0.00  0.00    +0.162 A 
BRANCH  28   4
ATOM      4  O   UNL     1     -10.425  -7.900  16.945  0.00  0.00    -0.491 OA
ATOM     30  C   UNL     1     -10.171  -7.676  15.560  0.00  0.00    +0.277 C 
ENDBRANCH  28   4
BRANCH  29   5
ATOM      5  O   UNL     1     -11.620  -9.607  18.777  0.00  0.00    -0.491 OA
ATOM     31  C   UNL     1     -12.511 -10.537  18.164  0.00  0.00    +0.277 C 
ENDBRANCH  29   5
ENDBRANCH  13  16
ENDBRANCH   8  13
BRANCH   9  14
ATOM     14  C   UNL     1      -3.130 -10.626  14.780  0.00  0.00    +0.124 C 
BRANCH  14  18
ATOM      3  O   UNL     1      -0.871 -10.912  15.649  0.00  0.00    -0.251 OA
ATOM     18  C   UNL     1      -2.081 -10.966  15.803  0.00  0.00    +0.305 C 
BRANCH  18   2
ATOM      2  O   UNL     1      -2.678 -11.354  16.959  0.00  0.00    -0.481 OA
ATOM     32  H   UNL     1      -2.533 -10.706  17.680  0.00  0.00    +0.295 HD
ENDBRANCH  18   2
ENDBRANCH  14  18
ENDBRANCH   9  14
TORSDOF 8
ENDMDL
MODEL 10
REMARK VINA RESULT:      -5.7      4.255      7.182
REMARK  Name = 51136608
REMARK  13 active torsions:
REMARK  status: ('A' for Active; 'I' for Inactive)
REMARK    1  A    between atoms: O_2  and  C_18
REMARK    2  A    between atoms: O_4  and  C_28
REMARK    3  A    between atoms: O_4  and  C_30
REMARK    4  A    between atoms: O_5  and  C_29
REMARK    5  A    between atoms: O_5  and  C_31
REMARK    6  A    between atoms: C_8  and  C_13
REMARK    7  A    between atoms: C_9  and  C_14
REMARK    8  A    between atoms: C_13  and  C_16
REMARK    9  A    between atoms: C_14  and  C_18
REMARK   10  A    between atoms: C_15  and  C_17
REMARK   11  A    between atoms: C_17  and  C_20
REMARK   12  A    between atoms: C_17  and  C_21
REMARK   13  A    between atoms: C_17  and  C_22
REMARK                            x       y       z     vdW  Elec       q    Type
REMARK                         _______ _______ _______ _____ _____    ______ ____
ROOT
ATOM      1  O   UNL     1      -7.301 -13.683  17.644  0.00  0.00    -0.275 OA
ATOM      6  N   UNL     1      -5.548 -12.161  17.522  0.00  0.00    -0.301 N 
ATOM      8  C   UNL     1      -4.469 -12.080  15.293  0.00  0.00    +0.016 C 
ATOM      9  C   UNL     1      -3.720 -10.785  15.695  0.00  0.00    +0.006 C 
ATOM     10  C   UNL     1      -4.818 -12.940  16.518  0.00  0.00    +0.112 C 
ATOM     11  C   UNL     1      -4.528 -10.042  16.774  0.00  0.00    +0.023 C 
ATOM     12  C   UNL     1      -4.878 -10.933  17.965  0.00  0.00    +0.108 C 
ATOM     15  C   UNL     1      -6.753 -12.647  18.031  0.00  0.00    +0.221 C 
ENDROOT
BRANCH  15  17
ATOM     17  C   UNL     1      -7.407 -11.832  19.118  0.00  0.00    +0.039 C 
ATOM     20  C   UNL     1      -8.067 -10.618  18.464  0.00  0.00    +0.020 C 
ATOM     21  C   UNL     1      -6.332 -11.385  20.113  0.00  0.00    +0.020 C 
ATOM     22  C   UNL     1      -8.454 -12.697  19.822  0.00  0.00    +0.020 C 
ENDBRANCH  15  17
BRANCH   8  13
ATOM     13  C   UNL     1      -3.717 -12.907  14.252  0.00  0.00    +0.061 C 
BRANCH  13  16
ATOM      7  N   UNL     1      -5.450 -14.213  13.222  0.00  0.00    -0.287 NA
ATOM     16  C   UNL     1      -4.630 -13.224  13.091  0.00  0.00    +0.044 C 
ATOM     19  C   UNL     1      -4.537 -12.395  11.862  0.00  0.00    +0.003 A 
ATOM     23  C   UNL     1      -5.094 -12.932  10.694  0.00  0.00    -0.033 A 
ATOM     24  C   UNL     1      -5.723 -14.293  10.757  0.00  0.00    +0.059 C 
ATOM     25  C   UNL     1      -6.379 -14.482  12.119  0.00  0.00    +0.146 C 
ATOM     26  C   UNL     1      -3.918 -11.144  11.841  0.00  0.00    +0.059 A 
ATOM     27  C   UNL     1      -5.004 -12.220   9.496  0.00  0.00    +0.053 A 
ATOM     28  C   UNL     1      -3.846 -10.433  10.642  0.00  0.00    +0.162 A 
ATOM     29  C   UNL     1      -4.385 -10.970   9.472  0.00  0.00    +0.162 A 
BRANCH  28   4
ATOM      4  O   UNL     1      -3.244  -9.211  10.625  0.00  0.00    -0.491 OA
ATOM     30  C   UNL     1      -1.829  -9.184  10.800  0.00  0.00    +0.277 C 
ENDBRANCH  28   4
BRANCH  29   5
ATOM      5  O   UNL     1      -4.311 -10.283   8.298  0.00  0.00    -0.491 OA
ATOM     31  C   UNL     1      -5.497 -10.222   7.507  0.00  0.00    +0.277 C 
ENDBRANCH  29   5
ENDBRANCH  13  16
ENDBRANCH   8  13
BRANCH   9  14
ATOM     14  C   UNL     1      -2.276 -11.016  16.154  0.00  0.00    +0.124 C 
BRANCH  14  18
ATOM      3  O   UNL     1      -1.504  -9.877  14.143  0.00  0.00    -0.251 OA
ATOM     18  C   UNL     1      -1.292 -10.306  15.266  0.00  0.00    +0.305 C 
BRANCH  18   2
ATOM      2  O   UNL     1      -0.095 -10.203  15.900  0.00  0.00    -0.481 OA
ATOM     32  H   UNL     1       0.000 -10.871  16.611  0.00  0.00    +0.295 HD
ENDBRANCH  18   2
ENDBRANCH  14  18
ENDBRANCH   9  14
TORSDOF 8
ENDMDL
