MODEL 1
REMARK VINA RESULT:      -7.2      0.000      0.000
REMARK  Name = 75537010
REMARK  2 active torsions:
REMARK  status: ('A' for Active; 'I' for Inactive)
REMARK    1  A    between atoms: N_3  and  C_7
REMARK    2  A    between atoms: C_18  and  C_19
REMARK                            x       y       z     vdW  Elec       q    Type
REMARK                         _______ _______ _______ _____ _____    ______ ____
ROOT
ATOM      1  O   UNL     1      10.857  10.785  24.708  0.00  0.00    -0.252 OA
ATOM      2  O   UNL     1      12.043   6.333  19.456  0.00  0.00    -0.270 OA
ATOM      3  N   UNL     1      11.496  12.209  22.941  0.00  0.00    -0.281 N 
ATOM      4  N   UNL     1      11.282  10.010  22.532  0.00  0.00    -0.278 N 
ATOM      5  N   UNL     1      12.342   8.377  20.548  0.00  0.00    -0.294 N 
ATOM      6  C   UNL     1      11.561  10.599  21.233  0.00  0.00    +0.112 C 
ATOM      8  C   UNL     1      11.913  12.048  21.559  0.00  0.00    +0.133 C 
ATOM     11  C   UNL     1      12.663   9.817  20.526  0.00  0.00    +0.132 C 
ATOM     12  C   UNL     1      11.169  10.977  23.540  0.00  0.00    +0.305 C 
ATOM     13  C   UNL     1      11.054   8.579  22.642  0.00  0.00    +0.128 C 
ATOM     17  C   UNL     1      12.143   7.815  21.892  0.00  0.00    +0.127 C 
ATOM     18  C   UNL     1      12.268   7.542  19.432  0.00  0.00    +0.247 C 
ENDROOT
BRANCH   3   7
ATOM      7  C   UNL     1      11.557  13.484  23.613  0.00  0.00    +0.078 C 
ATOM      9  C   UNL     1      10.169  13.908  24.098  0.00  0.00    +0.022 C 
ATOM     10  C   UNL     1      12.560  13.436  24.768  0.00  0.00    +0.022 C 
ATOM     14  C   UNL     1      10.218  15.230  24.860  0.00  0.00    +0.002 C 
ATOM     15  C   UNL     1      12.606  14.757  25.530  0.00  0.00    +0.002 C 
ATOM     16  C   UNL     1      11.220  15.179  26.010  0.00  0.00    +0.000 C 
ENDBRANCH   3   7
BRANCH  18  19
ATOM     19  C   UNL     1      12.458   8.142  18.106  0.00  0.00    +0.037 A 
ATOM     20  C   UNL     1      11.361   8.631  17.397  0.00  0.00    +0.013 A 
ATOM     21  C   UNL     1      13.736   8.223  17.554  0.00  0.00    +0.013 A 
ATOM     22  C   UNL     1      11.542   9.203  16.137  0.00  0.00    +0.001 A 
ATOM     23  C   UNL     1      13.918   8.793  16.294  0.00  0.00    +0.001 A 
ATOM     24  C   UNL     1      12.820   9.284  15.587  0.00  0.00    +0.000 A 
ENDBRANCH  18  19
TORSDOF 2
ENDMDL
MODEL 2
REMARK VINA RESULT:      -6.9     26.610     29.155
REMARK  Name = 75537010
REMARK  2 active torsions:
REMARK  status: ('A' for Active; 'I' for Inactive)
REMARK    1  A    between atoms: N_3  and  C_7
REMARK    2  A    between atoms: C_18  and  C_19
REMARK                            x       y       z     vdW  Elec       q    Type
REMARK                         _______ _______ _______ _____ _____    ______ ____
ROOT
ATOM      1  O   UNL     1      -4.276 -11.862  18.521  0.00  0.00    -0.252 OA
ATOM      2  O   UNL     1     -10.853  -9.928  19.864  0.00  0.00    -0.270 OA
ATOM      3  N   UNL     1      -4.949 -10.838  16.506  0.00  0.00    -0.281 N 
ATOM      4  N   UNL     1      -6.361 -10.815  18.253  0.00  0.00    -0.278 N 
ATOM      5  N   UNL     1      -9.119 -10.508  18.408  0.00  0.00    -0.294 N 
ATOM      6  C   UNL     1      -7.022 -10.014  17.236  0.00  0.00    +0.112 C 
ATOM      8  C   UNL     1      -6.158 -10.217  15.995  0.00  0.00    +0.133 C 
ATOM     11  C   UNL     1      -8.475 -10.451  17.082  0.00  0.00    +0.132 C 
ATOM     12  C   UNL     1      -5.092 -11.246  17.847  0.00  0.00    +0.305 C 
ATOM     13  C   UNL     1      -6.988 -10.995  19.551  0.00  0.00    +0.128 C 
ATOM     17  C   UNL     1      -8.453 -11.391  19.376  0.00  0.00    +0.127 C 
ATOM     18  C   UNL     1     -10.294  -9.846  18.772  0.00  0.00    +0.247 C 
ENDROOT
BRANCH   3   7
ATOM      7  C   UNL     1      -3.811 -11.105  15.659  0.00  0.00    +0.078 C 
ATOM      9  C   UNL     1      -4.077 -10.631  14.228  0.00  0.00    +0.022 C 
ATOM     10  C   UNL     1      -2.550 -10.458  16.235  0.00  0.00    +0.022 C 
ATOM     14  C   UNL     1      -2.866 -10.855  13.327  0.00  0.00    +0.002 C 
ATOM     15  C   UNL     1      -1.339 -10.680  15.331  0.00  0.00    +0.002 C 
ATOM     16  C   UNL     1      -1.609 -10.209  13.904  0.00  0.00    +0.000 C 
ENDBRANCH   3   7
BRANCH  18  19
ATOM     19  C   UNL     1     -10.923  -8.961  17.784  0.00  0.00    +0.037 A 
ATOM     20  C   UNL     1     -12.119  -9.337  17.173  0.00  0.00    +0.013 A 
ATOM     21  C   UNL     1     -10.326  -7.745  17.456  0.00  0.00    +0.013 A 
ATOM     22  C   UNL     1     -12.719  -8.496  16.234  0.00  0.00    +0.001 A 
ATOM     23  C   UNL     1     -10.923  -6.903  16.517  0.00  0.00    +0.001 A 
ATOM     24  C   UNL     1     -12.121  -7.279  15.908  0.00  0.00    +0.000 A 
ENDBRANCH  18  19
TORSDOF 2
ENDMDL
MODEL 3
REMARK VINA RESULT:      -6.7     26.727     28.835
REMARK  Name = 75537010
REMARK  2 active torsions:
REMARK  status: ('A' for Active; 'I' for Inactive)
REMARK    1  A    between atoms: N_3  and  C_7
REMARK    2  A    between atoms: C_18  and  C_19
REMARK                            x       y       z     vdW  Elec       q    Type
REMARK                         _______ _______ _______ _____ _____    ______ ____
ROOT
ATOM      1  O   UNL     1     -10.536  -9.634  18.869  0.00  0.00    -0.252 OA
ATOM      2  O   UNL     1      -3.965 -12.006  18.957  0.00  0.00    -0.270 OA
ATOM      3  N   UNL     1      -9.783  -9.188  16.679  0.00  0.00    -0.281 N 
ATOM      4  N   UNL     1      -8.423 -10.295  18.084  0.00  0.00    -0.278 N 
ATOM      5  N   UNL     1      -5.666 -10.642  18.114  0.00  0.00    -0.294 N 
ATOM      6  C   UNL     1      -7.717 -10.295  16.814  0.00  0.00    +0.112 C 
ATOM      8  C   UNL     1      -8.547  -9.362  15.937  0.00  0.00    +0.133 C 
ATOM     11  C   UNL     1      -6.269  -9.861  17.017  0.00  0.00    +0.132 C 
ATOM     12  C   UNL     1      -9.689  -9.701  17.988  0.00  0.00    +0.305 C 
ATOM     13  C   UNL     1      -7.840 -10.962  19.236  0.00  0.00    +0.128 C 
ATOM     17  C   UNL     1      -6.378 -10.548  19.396  0.00  0.00    +0.127 C 
ATOM     18  C   UNL     1      -4.490 -11.390  18.030  0.00  0.00    +0.247 C 
ENDROOT
BRANCH   3   7
ATOM      7  C   UNL     1     -10.900  -8.450  16.141  0.00  0.00    +0.078 C 
ATOM      9  C   UNL     1     -10.837  -6.982  16.571  0.00  0.00    +0.022 C 
ATOM     10  C   UNL     1     -10.947  -8.582  14.617  0.00  0.00    +0.022 C 
ATOM     14  C   UNL     1     -11.980  -6.170  15.968  0.00  0.00    +0.002 C 
ATOM     15  C   UNL     1     -12.089  -7.768  14.015  0.00  0.00    +0.002 C 
ATOM     16  C   UNL     1     -12.026  -6.305  14.448  0.00  0.00    +0.000 C 
ENDBRANCH   3   7
BRANCH  18  19
ATOM     19  C   UNL     1      -3.814 -11.473  16.729  0.00  0.00    +0.037 A 
ATOM     20  C   UNL     1      -2.765 -10.604  16.432  0.00  0.00    +0.013 A 
ATOM     21  C   UNL     1      -4.221 -12.420  15.790  0.00  0.00    +0.013 A 
ATOM     22  C   UNL     1      -2.121 -10.683  15.196  0.00  0.00    +0.001 A 
ATOM     23  C   UNL     1      -3.579 -12.500  14.554  0.00  0.00    +0.001 A 
ATOM     24  C   UNL     1      -2.528 -11.631  14.259  0.00  0.00    +0.000 A 
ENDBRANCH  18  19
TORSDOF 2
ENDMDL
MODEL 4
REMARK VINA RESULT:      -6.6     28.422     30.327
REMARK  Name = 75537010
REMARK  2 active torsions:
REMARK  status: ('A' for Active; 'I' for Inactive)
REMARK    1  A    between atoms: N_3  and  C_7
REMARK    2  A    between atoms: C_18  and  C_19
REMARK                            x       y       z     vdW  Elec       q    Type
REMARK                         _______ _______ _______ _____ _____    ______ ____
ROOT
ATOM      1  O   UNL     1     -10.147  -6.710   5.815  0.00  0.00    -0.252 OA
ATOM      2  O   UNL     1      -4.679 -11.033   6.284  0.00  0.00    -0.270 OA
ATOM      3  N   UNL     1      -9.625  -6.657   8.114  0.00  0.00    -0.281 N 
ATOM      4  N   UNL     1      -8.295  -7.826   6.732  0.00  0.00    -0.278 N 
ATOM      5  N   UNL     1      -6.525  -9.920   7.187  0.00  0.00    -0.294 N 
ATOM      6  C   UNL     1      -7.636  -7.901   8.026  0.00  0.00    +0.112 C 
ATOM      8  C   UNL     1      -8.652  -7.291   8.986  0.00  0.00    +0.133 C 
ATOM     11  C   UNL     1      -7.247  -9.342   8.336  0.00  0.00    +0.132 C 
ATOM     12  C   UNL     1      -9.442  -7.022   6.766  0.00  0.00    +0.305 C 
ATOM     13  C   UNL     1      -7.687  -8.459   5.574  0.00  0.00    +0.128 C 
ATOM     17  C   UNL     1      -7.266  -9.887   5.918  0.00  0.00    +0.127 C 
ATOM     18  C   UNL     1      -5.262 -10.514   7.234  0.00  0.00    +0.247 C 
ENDROOT
BRANCH   3   7
ATOM      7  C   UNL     1     -10.713  -5.863   8.633  0.00  0.00    +0.078 C 
ATOM      9  C   UNL     1     -11.333  -6.530   9.862  0.00  0.00    +0.022 C 
ATOM     10  C   UNL     1     -10.238  -4.443   8.950  0.00  0.00    +0.022 C 
ATOM     14  C   UNL     1     -12.451  -5.681  10.460  0.00  0.00    +0.002 C 
ATOM     15  C   UNL     1     -11.357  -3.595   9.550  0.00  0.00    +0.002 C 
ATOM     16  C   UNL     1     -11.976  -4.265  10.774  0.00  0.00    +0.000 C 
ENDBRANCH   3   7
BRANCH  18  19
ATOM     19  C   UNL     1      -4.546 -10.515   8.516  0.00  0.00    +0.037 A 
ATOM     20  C   UNL     1      -4.334 -11.715   9.195  0.00  0.00    +0.013 A 
ATOM     21  C   UNL     1      -4.078  -9.318   9.055  0.00  0.00    +0.013 A 
ATOM     22  C   UNL     1      -3.652 -11.717  10.412  0.00  0.00    +0.001 A 
ATOM     23  C   UNL     1      -3.397  -9.319  10.272  0.00  0.00    +0.001 A 
ATOM     24  C   UNL     1      -3.184 -10.520  10.950  0.00  0.00    +0.000 A 
ENDBRANCH  18  19
TORSDOF 2
ENDMDL
MODEL 5
REMARK VINA RESULT:      -6.5     26.948     28.311
REMARK  Name = 75537010
REMARK  2 active torsions:
REMARK  status: ('A' for Active; 'I' for Inactive)
REMARK    1  A    between atoms: N_3  and  C_7
REMARK    2  A    between atoms: C_18  and  C_19
REMARK                            x       y       z     vdW  Elec       q    Type
REMARK                         _______ _______ _______ _____ _____    ______ ____
ROOT
ATOM      1  O   UNL     1      -6.375 -10.519  19.345  0.00  0.00    -0.252 OA
ATOM      2  O   UNL     1      -1.450 -12.174  14.674  0.00  0.00    -0.270 OA
ATOM      3  N   UNL     1      -7.389  -9.969  17.288  0.00  0.00    -0.281 N 
ATOM      4  N   UNL     1      -5.364 -10.941  17.267  0.00  0.00    -0.278 N 
ATOM      5  N   UNL     1      -3.347 -10.991  15.356  0.00  0.00    -0.294 N 
ATOM      6  C   UNL     1      -5.742 -10.850  15.867  0.00  0.00    +0.112 C 
ATOM      8  C   UNL     1      -7.010 -10.001  15.887  0.00  0.00    +0.133 C 
ATOM     11  C   UNL     1      -4.595 -10.266  15.049  0.00  0.00    +0.132 C 
ATOM     12  C   UNL     1      -6.377 -10.484  18.121  0.00  0.00    +0.305 C 
ATOM     13  C   UNL     1      -4.100 -11.555  17.636  0.00  0.00    +0.128 C 
ATOM     17  C   UNL     1      -2.971 -10.988  16.777  0.00  0.00    +0.127 C 
ATOM     18  C   UNL     1      -2.513 -11.608  14.421  0.00  0.00    +0.247 C 
ENDROOT
BRANCH   3   7
ATOM      7  C   UNL     1      -8.614  -9.348  17.734  0.00  0.00    +0.078 C 
ATOM      9  C   UNL     1      -9.147  -8.380  16.675  0.00  0.00    +0.022 C 
ATOM     10  C   UNL     1      -9.655 -10.411  18.093  0.00  0.00    +0.022 C 
ATOM     14  C   UNL     1     -10.471  -7.752  17.103  0.00  0.00    +0.002 C 
ATOM     15  C   UNL     1     -10.979  -9.781  18.518  0.00  0.00    +0.002 C 
ATOM     16  C   UNL     1     -11.507  -8.814  17.462  0.00  0.00    +0.000 C 
ENDBRANCH   3   7
BRANCH  18  19
ATOM     19  C   UNL     1      -2.928 -11.602  13.013  0.00  0.00    +0.037 A 
ATOM     20  C   UNL     1      -2.591 -10.527  12.191  0.00  0.00    +0.013 A 
ATOM     21  C   UNL     1      -3.659 -12.671  12.497  0.00  0.00    +0.013 A 
ATOM     22  C   UNL     1      -2.984 -10.522  10.852  0.00  0.00    +0.001 A 
ATOM     23  C   UNL     1      -4.053 -12.667  11.159  0.00  0.00    +0.001 A 
ATOM     24  C   UNL     1      -3.715 -11.592  10.337  0.00  0.00    +0.000 A 
ENDBRANCH  18  19
TORSDOF 2
ENDMDL
MODEL 6
REMARK VINA RESULT:      -6.3     27.537     29.288
REMARK  Name = 75537010
REMARK  2 active torsions:
REMARK  status: ('A' for Active; 'I' for Inactive)
REMARK    1  A    between atoms: N_3  and  C_7
REMARK    2  A    between atoms: C_18  and  C_19
REMARK                            x       y       z     vdW  Elec       q    Type
REMARK                         _______ _______ _______ _____ _____    ______ ____
ROOT
ATOM      1  O   UNL     1      -2.481 -11.581  14.857  0.00  0.00    -0.252 OA
ATOM      2  O   UNL     1      -7.502 -10.730  19.639  0.00  0.00    -0.270 OA
ATOM      3  N   UNL     1      -4.281 -10.731  13.591  0.00  0.00    -0.281 N 
ATOM      4  N   UNL     1      -4.513 -10.900  15.819  0.00  0.00    -0.278 N 
ATOM      5  N   UNL     1      -6.762 -11.050  17.446  0.00  0.00    -0.294 N 
ATOM      6  C   UNL     1      -5.731 -10.244  15.371  0.00  0.00    +0.112 C 
ATOM      8  C   UNL     1      -5.652 -10.331  13.850  0.00  0.00    +0.133 C 
ATOM     11  C   UNL     1      -6.951 -10.919  15.988  0.00  0.00    +0.132 C 
ATOM     12  C   UNL     1      -3.614 -11.125  14.768  0.00  0.00    +0.305 C 
ATOM     13  C   UNL     1      -4.306 -11.150  17.235  0.00  0.00    +0.128 C 
ATOM     17  C   UNL     1      -5.554 -11.787  17.843  0.00  0.00    +0.127 C 
ATOM     18  C   UNL     1      -7.640 -10.583  18.426  0.00  0.00    +0.247 C 
ENDROOT
BRANCH   3   7
ATOM      7  C   UNL     1      -3.753 -10.826  12.251  0.00  0.00    +0.078 C 
ATOM      9  C   UNL     1      -4.207 -12.125  11.580  0.00  0.00    +0.022 C 
ATOM     10  C   UNL     1      -4.158  -9.603  11.426  0.00  0.00    +0.022 C 
ATOM     14  C   UNL     1      -3.705 -12.222  10.143  0.00  0.00    +0.002 C 
ATOM     15  C   UNL     1      -3.657  -9.702   9.987  0.00  0.00    +0.002 C 
ATOM     16  C   UNL     1      -4.109 -11.000   9.322  0.00  0.00    +0.000 C 
ENDBRANCH   3   7
BRANCH  18  19
ATOM     19  C   UNL     1      -8.828  -9.838  17.991  0.00  0.00    +0.037 A 
ATOM     20  C   UNL     1     -10.101 -10.358  18.224  0.00  0.00    +0.013 A 
ATOM     21  C   UNL     1      -8.685  -8.610  17.346  0.00  0.00    +0.013 A 
ATOM     22  C   UNL     1     -11.231  -9.650  17.813  0.00  0.00    +0.001 A 
ATOM     23  C   UNL     1      -9.813  -7.902  16.934  0.00  0.00    +0.001 A 
ATOM     24  C   UNL     1     -11.087  -8.422  17.168  0.00  0.00    +0.000 A 
ENDBRANCH  18  19
TORSDOF 2
ENDMDL
MODEL 7
REMARK VINA RESULT:      -6.3     27.228     29.858
REMARK  Name = 75537010
REMARK  2 active torsions:
REMARK  status: ('A' for Active; 'I' for Inactive)
REMARK    1  A    between atoms: N_3  and  C_7
REMARK    2  A    between atoms: C_18  and  C_19
REMARK                            x       y       z     vdW  Elec       q    Type
REMARK                         _______ _______ _______ _____ _____    ______ ____
ROOT
ATOM      1  O   UNL     1     -17.224   5.397  31.701  0.00  0.00    -0.252 OA
ATOM      2  O   UNL     1     -13.882  10.448  35.184  0.00  0.00    -0.270 OA
ATOM      3  N   UNL     1     -15.206   4.356  32.338  0.00  0.00    -0.281 N 
ATOM      4  N   UNL     1     -15.616   6.445  33.055  0.00  0.00    -0.278 N 
ATOM      5  N   UNL     1     -13.930   8.469  33.941  0.00  0.00    -0.294 N 
ATOM      6  C   UNL     1     -14.375   6.068  33.713  0.00  0.00    +0.112 C 
ATOM      8  C   UNL     1     -14.004   4.743  33.054  0.00  0.00    +0.133 C 
ATOM     11  C   UNL     1     -13.338   7.174  33.554  0.00  0.00    +0.132 C 
ATOM     12  C   UNL     1     -16.153   5.399  32.294  0.00  0.00    +0.305 C 
ATOM     13  C   UNL     1     -16.205   7.748  33.315  0.00  0.00    +0.128 C 
ATOM     17  C   UNL     1     -15.141   8.837  33.193  0.00  0.00    +0.127 C 
ATOM     18  C   UNL     1     -13.411   9.349  34.893  0.00  0.00    +0.247 C 
ENDROOT
BRANCH   3   7
ATOM      7  C   UNL     1     -15.315   3.088  31.657  0.00  0.00    +0.078 C 
ATOM      9  C   UNL     1     -14.628   3.147  30.290  0.00  0.00    +0.022 C 
ATOM     10  C   UNL     1     -14.741   1.963  32.520  0.00  0.00    +0.022 C 
ATOM     14  C   UNL     1     -14.684   1.802  29.573  0.00  0.00    +0.002 C 
ATOM     15  C   UNL     1     -14.795   0.617  31.801  0.00  0.00    +0.002 C 
ATOM     16  C   UNL     1     -14.112   0.680  30.437  0.00  0.00    +0.000 C 
ENDBRANCH   3   7
BRANCH  18  19
ATOM     19  C   UNL     1     -12.209   8.941  35.630  0.00  0.00    +0.037 A 
ATOM     20  C   UNL     1     -10.973   9.506  35.316  0.00  0.00    +0.013 A 
ATOM     21  C   UNL     1     -12.302   7.989  36.644  0.00  0.00    +0.013 A 
ATOM     22  C   UNL     1      -9.830   9.119  36.017  0.00  0.00    +0.001 A 
ATOM     23  C   UNL     1     -11.160   7.601  37.346  0.00  0.00    +0.001 A 
ATOM     24  C   UNL     1      -9.924   8.168  37.031  0.00  0.00    +0.000 A 
ENDBRANCH  18  19
TORSDOF 2
ENDMDL
MODEL 8
REMARK VINA RESULT:      -6.2     18.938     21.985
REMARK  Name = 75537010
REMARK  2 active torsions:
REMARK  status: ('A' for Active; 'I' for Inactive)
REMARK    1  A    between atoms: N_3  and  C_7
REMARK    2  A    between atoms: C_18  and  C_19
REMARK                            x       y       z     vdW  Elec       q    Type
REMARK                         _______ _______ _______ _____ _____    ______ ____
ROOT
ATOM      1  O   UNL     1      -3.940  10.667  36.284  0.00  0.00    -0.252 OA
ATOM      2  O   UNL     1      -2.718   5.551  40.881  0.00  0.00    -0.270 OA
ATOM      3  N   UNL     1      -1.585  10.578  36.363  0.00  0.00    -0.281 N 
ATOM      4  N   UNL     1      -2.763   9.060  37.529  0.00  0.00    -0.278 N 
ATOM      5  N   UNL     1      -2.108   7.487  39.724  0.00  0.00    -0.294 N 
ATOM      6  C   UNL     1      -1.376   8.656  37.696  0.00  0.00    +0.112 C 
ATOM      8  C   UNL     1      -0.586   9.808  37.083  0.00  0.00    +0.133 C 
ATOM     11  C   UNL     1      -1.080   8.387  39.167  0.00  0.00    +0.132 C 
ATOM     12  C   UNL     1      -2.895  10.162  36.673  0.00  0.00    +0.305 C 
ATOM     13  C   UNL     1      -3.823   8.274  38.135  0.00  0.00    +0.128 C 
ATOM     17  C   UNL     1      -3.487   7.979  39.596  0.00  0.00    +0.127 C 
ATOM     18  C   UNL     1      -1.863   6.278  40.379  0.00  0.00    +0.247 C 
ENDROOT
BRANCH   3   7
ATOM      7  C   UNL     1      -1.231  11.711  35.543  0.00  0.00    +0.078 C 
ATOM      9  C   UNL     1      -1.168  12.989  36.383  0.00  0.00    +0.022 C 
ATOM     10  C   UNL     1       0.091  11.457  34.816  0.00  0.00    +0.022 C 
ATOM     14  C   UNL     1      -0.743  14.192  35.546  0.00  0.00    +0.002 C 
ATOM     15  C   UNL     1       0.516  12.662  33.981  0.00  0.00    +0.002 C 
ATOM     16  C   UNL     1       0.576  13.935  34.821  0.00  0.00    +0.000 C 
ENDBRANCH   3   7
BRANCH  18  19
ATOM     19  C   UNL     1      -0.474   5.813  40.475  0.00  0.00    +0.037 A 
ATOM     20  C   UNL     1       0.315   6.191  41.561  0.00  0.00    +0.013 A 
ATOM     21  C   UNL     1       0.057   4.992  39.481  0.00  0.00    +0.013 A 
ATOM     22  C   UNL     1       1.635   5.748  41.654  0.00  0.00    +0.001 A 
ATOM     23  C   UNL     1       1.376   4.548  39.573  0.00  0.00    +0.001 A 
ATOM     24  C   UNL     1       2.164   4.926  40.660  0.00  0.00    +0.000 A 
ENDBRANCH  18  19
TORSDOF 2
ENDMDL
MODEL 9
REMARK VINA RESULT:      -6.2     28.324     29.845
REMARK  Name = 75537010
REMARK  2 active torsions:
REMARK  status: ('A' for Active; 'I' for Inactive)
REMARK    1  A    between atoms: N_3  and  C_7
REMARK    2  A    between atoms: C_18  and  C_19
REMARK                            x       y       z     vdW  Elec       q    Type
REMARK                         _______ _______ _______ _____ _____    ______ ____
ROOT
ATOM      1  O   UNL     1     -14.128   4.452  34.858  0.00  0.00    -0.252 OA
ATOM      2  O   UNL     1     -16.003  -0.408  30.203  0.00  0.00    -0.270 OA
ATOM      3  N   UNL     1     -14.793   5.733  32.993  0.00  0.00    -0.281 N 
ATOM      4  N   UNL     1     -15.040   3.502  32.913  0.00  0.00    -0.278 N 
ATOM      5  N   UNL     1     -15.265   1.732  30.782  0.00  0.00    -0.294 N 
ATOM      6  C   UNL     1     -15.645   3.982  31.682  0.00  0.00    +0.112 C 
ATOM      8  C   UNL     1     -15.280   5.463  31.652  0.00  0.00    +0.133 C 
ATOM     11  C   UNL     1     -15.134   3.174  30.494  0.00  0.00    +0.132 C 
ATOM     12  C   UNL     1     -14.598   4.550  33.732  0.00  0.00    +0.305 C 
ATOM     13  C   UNL     1     -15.045   2.080  33.214  0.00  0.00    +0.128 C 
ATOM     17  C   UNL     1     -14.572   1.286  31.998  0.00  0.00    +0.127 C 
ATOM     18  C   UNL     1     -15.931   0.800  29.984  0.00  0.00    +0.247 C 
ENDROOT
BRANCH   3   7
ATOM      7  C   UNL     1     -14.439   7.064  33.423  0.00  0.00    +0.078 C 
ATOM      9  C   UNL     1     -13.085   7.479  32.843  0.00  0.00    +0.022 C 
ATOM     10  C   UNL     1     -15.536   8.062  33.045  0.00  0.00    +0.022 C 
ATOM     14  C   UNL     1     -12.714   8.905  33.241  0.00  0.00    +0.002 C 
ATOM     15  C   UNL     1     -15.163   9.488  33.442  0.00  0.00    +0.002 C 
ATOM     16  C   UNL     1     -13.811   9.897  32.864  0.00  0.00    +0.000 C 
ENDBRANCH   3   7
BRANCH  18  19
ATOM     19  C   UNL     1     -16.624   1.286  28.784  0.00  0.00    +0.037 A 
ATOM     20  C   UNL     1     -17.764   2.079  28.910  0.00  0.00    +0.013 A 
ATOM     21  C   UNL     1     -16.141   0.955  27.518  0.00  0.00    +0.013 A 
ATOM     22  C   UNL     1     -18.421   2.543  27.769  0.00  0.00    +0.001 A 
ATOM     23  C   UNL     1     -16.798   1.417  26.378  0.00  0.00    +0.001 A 
ATOM     24  C   UNL     1     -17.938   2.212  26.504  0.00  0.00    +0.000 A 
ENDBRANCH  18  19
TORSDOF 2
ENDMDL
MODEL 10
REMARK VINA RESULT:      -6.2     27.195     28.502
REMARK  Name = 75537010
REMARK  2 active torsions:
REMARK  status: ('A' for Active; 'I' for Inactive)
REMARK    1  A    between atoms: N_3  and  C_7
REMARK    2  A    between atoms: C_18  and  C_19
REMARK                            x       y       z     vdW  Elec       q    Type
REMARK                         _______ _______ _______ _____ _____    ______ ____
ROOT
ATOM      1  O   UNL     1      -2.296 -10.978  14.902  0.00  0.00    -0.252 OA
ATOM      2  O   UNL     1      -4.458  -9.603   8.402  0.00  0.00    -0.270 OA
ATOM      3  N   UNL     1      -4.574 -10.443  15.202  0.00  0.00    -0.281 N 
ATOM      4  N   UNL     1      -3.753 -10.536  13.113  0.00  0.00    -0.278 N 
ATOM      5  N   UNL     1      -4.620  -9.408  10.725  0.00  0.00    -0.294 N 
ATOM      6  C   UNL     1      -5.178 -10.307  12.938  0.00  0.00    +0.112 C 
ATOM      8  C   UNL     1      -5.679 -10.034  14.353  0.00  0.00    +0.133 C 
ATOM     11  C   UNL     1      -5.411  -9.171  11.948  0.00  0.00    +0.132 C 
ATOM     12  C   UNL     1      -3.402 -10.692  14.460  0.00  0.00    +0.305 C 
ATOM     13  C   UNL     1      -2.896 -10.681  11.948  0.00  0.00    +0.128 C 
ATOM     17  C   UNL     1      -3.175  -9.558  10.950  0.00  0.00    +0.127 C 
ATOM     18  C   UNL     1      -5.125  -9.448   9.424  0.00  0.00    +0.247 C 
ENDROOT
BRANCH   3   7
ATOM      7  C   UNL     1      -4.677 -10.448  16.642  0.00  0.00    +0.078 C 
ATOM      9  C   UNL     1      -6.129 -10.242  17.081  0.00  0.00    +0.022 C 
ATOM     10  C   UNL     1      -4.099 -11.742  17.218  0.00  0.00    +0.022 C 
ATOM     14  C   UNL     1      -6.270 -10.297  18.600  0.00  0.00    +0.002 C 
ATOM     15  C   UNL     1      -4.243 -11.797  18.737  0.00  0.00    +0.002 C 
ATOM     16  C   UNL     1      -5.691 -11.588  19.172  0.00  0.00    +0.000 C 
ENDBRANCH   3   7
BRANCH  18  19
ATOM     19  C   UNL     1      -6.574  -9.308   9.240  0.00  0.00    +0.037 A 
ATOM     20  C   UNL     1      -7.394 -10.436   9.279  0.00  0.00    +0.013 A 
ATOM     21  C   UNL     1      -7.132  -8.049   9.025  0.00  0.00    +0.013 A 
ATOM     22  C   UNL     1      -8.773 -10.303   9.106  0.00  0.00    +0.001 A 
ATOM     23  C   UNL     1      -8.510  -7.915   8.851  0.00  0.00    +0.001 A 
ATOM     24  C   UNL     1      -9.330  -9.043   8.893  0.00  0.00    +0.000 A 
ENDBRANCH  18  19
TORSDOF 2
ENDMDL
