MODEL 1
REMARK VINA RESULT:      -8.6      0.000      0.000
REMARK  Name = 40780321
REMARK  10 active torsions:
REMARK  status: ('A' for Active; 'I' for Inactive)
REMARK    1  A    between atoms: O_4  and  C_23
REMARK    2  A    between atoms: O_4  and  C_35
REMARK    3  A    between atoms: N_8  and  C_14
REMARK    4  A    between atoms: N_8  and  C_24
REMARK    5  A    between atoms: N_10  and  C_29
REMARK    6  A    between atoms: C_12  and  C_20
REMARK    7  A    between atoms: C_16  and  C_23
REMARK    8  A    between atoms: C_24  and  C_29
REMARK    9  A    between atoms: C_34  and  C_36
REMARK   10  A    between atoms: C_37  and  C_38
REMARK                            x       y       z     vdW  Elec       q    Type
REMARK                         _______ _______ _______ _____ _____    ______ ____
ROOT
ATOM      7  N   UNL     1      14.094   8.858  20.518  0.00  0.00    -0.274 NA
ATOM      9  N   UNL     1      16.615   6.302  19.414  0.00  0.00    -0.356 N 
ATOM     11  C   UNL     1      14.588   7.863  19.516  0.00  0.00    +0.106 C 
ATOM     12  C   UNL     1      12.749   9.380  20.169  0.00  0.00    +0.090 C 
ATOM     13  C   UNL     1      13.603   6.687  19.391  0.00  0.00    +0.044 C 
ATOM     14  C   UNL     1      12.198   7.152  19.007  0.00  0.00    +0.057 C 
ATOM     15  C   UNL     1      11.734   8.222  19.994  0.00  0.00    +0.042 C 
ATOM     16  C   UNL     1      15.104   9.900  20.846  0.00  0.00    +0.172 C 
ATOM     17  C   UNL     1      15.959   7.395  19.906  0.00  0.00    +0.038 A 
ATOM     18  C   UNL     1      16.395   9.303  21.463  0.00  0.00    +0.068 C 
ATOM     19  C   UNL     1      16.805   8.048  20.776  0.00  0.00    -0.016 A 
ATOM     21  C   UNL     1      18.014   7.304  20.846  0.00  0.00    +0.003 A 
ATOM     22  C   UNL     1      17.867   6.214  19.983  0.00  0.00    +0.047 A 
ATOM     27  C   UNL     1      19.223   7.450  21.554  0.00  0.00    +0.010 A 
ATOM     28  C   UNL     1      18.876   5.261  19.795  0.00  0.00    +0.026 A 
ATOM     32  C   UNL     1      20.239   6.504  21.377  0.00  0.00    +0.001 A 
ATOM     33  C   UNL     1      20.065   5.426  20.510  0.00  0.00    +0.002 A 
ATOM     40  H   UNL     1      16.244   5.651  18.736  0.00  0.00    +0.166 HD
ENDROOT
BRANCH  12  20
ATOM     20  C   UNL     1      12.170  10.348  21.199  0.00  0.00    -0.030 A 
ATOM     25  C   UNL     1      11.688   9.865  22.416  0.00  0.00    +0.006 A 
ATOM     26  C   UNL     1      12.123  11.714  20.923  0.00  0.00    +0.006 A 
ATOM     30  C   UNL     1      11.160  10.748  23.357  0.00  0.00    +0.013 A 
ATOM     31  C   UNL     1      11.595  12.598  21.865  0.00  0.00    +0.013 A 
ATOM     34  C   UNL     1      11.113  12.115  23.081  0.00  0.00    +0.055 A 
BRANCH  34  36
ATOM      1  F   UNL     1       9.339  13.581  23.734  0.00  0.00    -0.166 F 
ATOM      2  F   UNL     1      11.361  14.135  24.310  0.00  0.00    -0.166 F 
ATOM      3  F   UNL     1      10.348  12.495  25.316  0.00  0.00    -0.166 F 
ATOM     36  C   UNL     1      10.550  13.059  24.089  0.00  0.00    +0.417 C 
ENDBRANCH  34  36
ENDBRANCH  12  20
BRANCH  16  23
ATOM      5  O   UNL     1      14.787  10.679  18.586  0.00  0.00    -0.249 OA
ATOM     23  C   UNL     1      15.422  10.725  19.631  0.00  0.00    +0.325 C 
BRANCH  23   4
ATOM      4  O   UNL     1      16.508  11.511  19.885  0.00  0.00    -0.467 OA
ATOM     35  C   UNL     1      16.215  12.847  20.304  0.00  0.00    +0.280 C 
ENDBRANCH  23   4
ENDBRANCH  16  23
BRANCH  14   8
ATOM      8  N   UNL     1      12.177   7.673  17.638  0.00  0.00    -0.312 NA
ATOM     39  H   UNL     1      12.236   6.898  16.977  0.00  0.00    +0.122 HD
BRANCH   8  24
ATOM     24  C   UNL     1      10.949   8.411  17.388  0.00  0.00    +0.100 C 
BRANCH  24  29
ATOM     29  C   UNL     1      10.923   8.921  15.955  0.00  0.00    +0.119 C 
BRANCH  29  10
ATOM      6  O   UNL     1      13.702   8.583  15.184  0.00  0.00    -0.276 OA
ATOM     10  N   UNL     1      11.904   9.952  15.750  0.00  0.00    -0.314 N 
ATOM     37  C   UNL     1      13.217   9.695  15.381  0.00  0.00    +0.210 C 
ATOM     38  C   UNL     1      14.025  10.954  15.211  0.00  0.00    +0.109 C 
ATOM     41  H   UNL     1      11.611  10.915  15.888  0.00  0.00    +0.149 HD
ENDBRANCH  29  10
ENDBRANCH  24  29
ENDBRANCH   8  24
ENDBRANCH  14   8
TORSDOF 8
ENDMDL
MODEL 2
REMARK VINA RESULT:      -7.1     27.199     30.222
REMARK  Name = 40780321
REMARK  10 active torsions:
REMARK  status: ('A' for Active; 'I' for Inactive)
REMARK    1  A    between atoms: O_4  and  C_23
REMARK    2  A    between atoms: O_4  and  C_35
REMARK    3  A    between atoms: N_8  and  C_14
REMARK    4  A    between atoms: N_8  and  C_24
REMARK    5  A    between atoms: N_10  and  C_29
REMARK    6  A    between atoms: C_12  and  C_20
REMARK    7  A    between atoms: C_16  and  C_23
REMARK    8  A    between atoms: C_24  and  C_29
REMARK    9  A    between atoms: C_34  and  C_36
REMARK   10  A    between atoms: C_37  and  C_38
REMARK                            x       y       z     vdW  Elec       q    Type
REMARK                         _______ _______ _______ _____ _____    ______ ____
ROOT
ATOM      7  N   UNL     1      -5.309 -12.551  15.500  0.00  0.00    -0.274 NA
ATOM      9  N   UNL     1      -7.321 -13.901  18.369  0.00  0.00    -0.356 N 
ATOM     11  C   UNL     1      -5.516 -13.558  16.586  0.00  0.00    +0.106 C 
ATOM     12  C   UNL     1      -4.171 -12.910  14.616  0.00  0.00    +0.090 C 
ATOM     13  C   UNL     1      -5.758 -14.955  15.989  0.00  0.00    +0.044 C 
ATOM     14  C   UNL     1      -4.607 -15.401  15.084  0.00  0.00    +0.057 C 
ATOM     15  C   UNL     1      -4.356 -14.330  14.024  0.00  0.00    +0.042 C 
ATOM     16  C   UNL     1      -5.292 -11.150  16.003  0.00  0.00    +0.172 C 
ATOM     17  C   UNL     1      -6.656 -13.127  17.460  0.00  0.00    +0.038 A 
ATOM     18  C   UNL     1      -6.625 -10.749  16.686  0.00  0.00    +0.068 C 
ATOM     19  C   UNL     1      -7.163 -11.848  17.534  0.00  0.00    -0.016 A 
ATOM     21  C   UNL     1      -8.204 -11.848  18.501  0.00  0.00    +0.003 A 
ATOM     22  C   UNL     1      -8.283 -13.149  19.008  0.00  0.00    +0.047 A 
ATOM     27  C   UNL     1      -9.087 -10.871  19.002  0.00  0.00    +0.010 A 
ATOM     28  C   UNL     1      -9.206 -13.519  19.994  0.00  0.00    +0.026 A 
ATOM     32  C   UNL     1     -10.016 -11.228  19.986  0.00  0.00    +0.001 A 
ATOM     33  C   UNL     1     -10.073 -12.532  20.473  0.00  0.00    +0.002 A 
ATOM     40  H   UNL     1      -7.142 -14.879  18.549  0.00  0.00    +0.166 HD
ENDROOT
BRANCH  12  20
ATOM     20  C   UNL     1      -3.962 -11.948  13.447  0.00  0.00    -0.030 A 
ATOM     25  C   UNL     1      -5.064 -11.381  12.807  0.00  0.00    +0.006 A 
ATOM     26  C   UNL     1      -2.671 -11.638  13.022  0.00  0.00    +0.006 A 
ATOM     30  C   UNL     1      -4.874 -10.502  11.740  0.00  0.00    +0.013 A 
ATOM     31  C   UNL     1      -2.481 -10.759  11.956  0.00  0.00    +0.013 A 
ATOM     34  C   UNL     1      -3.582 -10.191  11.314  0.00  0.00    +0.055 A 
BRANCH  34  36
ATOM      1  F   UNL     1      -2.090  -8.814  10.049  0.00  0.00    -0.166 F 
ATOM      2  F   UNL     1      -4.138  -8.121  10.286  0.00  0.00    -0.166 F 
ATOM      3  F   UNL     1      -3.693  -9.785   8.960  0.00  0.00    -0.166 F 
ATOM     36  C   UNL     1      -3.378  -9.250  10.176  0.00  0.00    +0.417 C 
ENDBRANCH  34  36
ENDBRANCH  12  20
BRANCH  16  23
ATOM      5  O   UNL     1      -4.089 -11.348  18.083  0.00  0.00    -0.249 OA
ATOM     23  C   UNL     1      -4.130 -10.938  16.931  0.00  0.00    +0.325 C 
BRANCH  23   4
ATOM      4  O   UNL     1      -3.157 -10.231  16.288  0.00  0.00    -0.467 OA
ATOM     35  C   UNL     1      -1.837 -10.776  16.381  0.00  0.00    +0.280 C 
ENDBRANCH  23   4
ENDBRANCH  16  23
BRANCH  14   8
ATOM      8  N   UNL     1      -3.394 -15.645  15.866  0.00  0.00    -0.312 NA
ATOM     39  H   UNL     1      -3.563 -15.407  16.844  0.00  0.00    +0.122 HD
BRANCH   8  24
ATOM     24  C   UNL     1      -3.001 -17.042  15.784  0.00  0.00    +0.100 C 
BRANCH  24  29
ATOM     29  C   UNL     1      -1.504 -17.156  15.539  0.00  0.00    +0.119 C 
BRANCH  29  10
ATOM      6  O   UNL     1      -1.022 -14.981  13.678  0.00  0.00    -0.276 OA
ATOM     10  N   UNL     1      -1.212 -17.257  14.135  0.00  0.00    -0.314 N 
ATOM     37  C   UNL     1      -0.995 -16.155  13.319  0.00  0.00    +0.210 C 
ATOM     38  C   UNL     1      -0.686 -16.544  11.897  0.00  0.00    +0.109 C 
ATOM     41  H   UNL     1      -1.166 -18.187  13.728  0.00  0.00    +0.149 HD
ENDBRANCH  29  10
ENDBRANCH  24  29
ENDBRANCH   8  24
ENDBRANCH  14   8
TORSDOF 8
ENDMDL
MODEL 3
REMARK VINA RESULT:      -6.7     27.843     30.447
REMARK  Name = 40780321
REMARK  10 active torsions:
REMARK  status: ('A' for Active; 'I' for Inactive)
REMARK    1  A    between atoms: O_4  and  C_23
REMARK    2  A    between atoms: O_4  and  C_35
REMARK    3  A    between atoms: N_8  and  C_14
REMARK    4  A    between atoms: N_8  and  C_24
REMARK    5  A    between atoms: N_10  and  C_29
REMARK    6  A    between atoms: C_12  and  C_20
REMARK    7  A    between atoms: C_16  and  C_23
REMARK    8  A    between atoms: C_24  and  C_29
REMARK    9  A    between atoms: C_34  and  C_36
REMARK   10  A    between atoms: C_37  and  C_38
REMARK                            x       y       z     vdW  Elec       q    Type
REMARK                         _______ _______ _______ _____ _____    ______ ____
ROOT
ATOM      7  N   UNL     1      -7.612  -9.781  15.234  0.00  0.00    -0.274 NA
ATOM      9  N   UNL     1      -4.064 -10.771  14.497  0.00  0.00    -0.356 N 
ATOM     11  C   UNL     1      -6.394 -10.591  15.545  0.00  0.00    +0.106 C 
ATOM     12  C   UNL     1      -8.660  -9.927  16.274  0.00  0.00    +0.090 C 
ATOM     13  C   UNL     1      -5.812 -10.189  16.911  0.00  0.00    +0.044 C 
ATOM     14  C   UNL     1      -6.834 -10.340  18.039  0.00  0.00    +0.057 C 
ATOM     15  C   UNL     1      -8.102  -9.569  17.675  0.00  0.00    +0.042 C 
ATOM     16  C   UNL     1      -8.089  -9.965  13.835  0.00  0.00    +0.172 C 
ATOM     17  C   UNL     1      -5.386 -10.427  14.446  0.00  0.00    +0.038 A 
ATOM     18  C   UNL     1      -7.031  -9.536  12.786  0.00  0.00    +0.068 C 
ATOM     19  C   UNL     1      -5.661  -9.966  13.177  0.00  0.00    -0.016 A 
ATOM     21  C   UNL     1      -4.451  -9.996  12.432  0.00  0.00    +0.003 A 
ATOM     22  C   UNL     1      -3.465 -10.504  13.285  0.00  0.00    +0.047 A 
ATOM     27  C   UNL     1      -4.093  -9.646  11.115  0.00  0.00    +0.010 A 
ATOM     28  C   UNL     1      -2.136 -10.678  12.880  0.00  0.00    +0.026 A 
ATOM     32  C   UNL     1      -2.767  -9.814  10.699  0.00  0.00    +0.001 A 
ATOM     33  C   UNL     1      -1.805 -10.322  11.569  0.00  0.00    +0.002 A 
ATOM     40  H   UNL     1      -3.590 -11.161  15.299  0.00  0.00    +0.166 HD
ENDROOT
BRANCH  12  20
ATOM     20  C   UNL     1      -9.898  -9.063  16.038  0.00  0.00    -0.030 A 
ATOM     25  C   UNL     1      -9.807  -7.675  16.133  0.00  0.00    +0.006 A 
ATOM     26  C   UNL     1     -11.117  -9.664  15.727  0.00  0.00    +0.006 A 
ATOM     30  C   UNL     1     -10.937  -6.885  15.917  0.00  0.00    +0.013 A 
ATOM     31  C   UNL     1     -12.247  -8.875  15.510  0.00  0.00    +0.013 A 
ATOM     34  C   UNL     1     -12.157  -7.486  15.605  0.00  0.00    +0.055 A 
BRANCH  34  36
ATOM      1  F   UNL     1     -14.199  -7.136  14.409  0.00  0.00    -0.166 F 
ATOM      2  F   UNL     1     -13.050  -5.376  14.970  0.00  0.00    -0.166 F 
ATOM      3  F   UNL     1     -14.150  -6.491  16.478  0.00  0.00    -0.166 F 
ATOM     36  C   UNL     1     -13.364  -6.642  15.371  0.00  0.00    +0.417 C 
ENDBRANCH  34  36
ENDBRANCH  12  20
BRANCH  16  23
ATOM      5  O   UNL     1      -7.845 -12.363  13.901  0.00  0.00    -0.249 OA
ATOM     23  C   UNL     1      -8.522 -11.386  13.610  0.00  0.00    +0.325 C 
BRANCH  23   4
ATOM      4  O   UNL     1      -9.762 -11.400  13.043  0.00  0.00    -0.467 OA
ATOM     35  C   UNL     1     -10.570 -12.537  13.359  0.00  0.00    +0.280 C 
ENDBRANCH  23   4
ENDBRANCH  16  23
BRANCH  14   8
ATOM      8  N   UNL     1      -7.142 -11.751  18.278  0.00  0.00    -0.312 NA
ATOM     39  H   UNL     1      -6.363 -12.330  17.962  0.00  0.00    +0.122 HD
BRANCH   8  24
ATOM     24  C   UNL     1      -7.365 -11.997  19.694  0.00  0.00    +0.100 C 
BRANCH  24  29
ATOM     29  C   UNL     1      -8.715 -12.665  19.908  0.00  0.00    +0.119 C 
BRANCH  29  10
ATOM      6  O   UNL     1     -10.881 -12.240  18.021  0.00  0.00    -0.276 OA
ATOM     10  N   UNL     1      -9.770 -11.692  19.994  0.00  0.00    -0.314 N 
ATOM     37  C   UNL     1     -10.769 -11.561  19.038  0.00  0.00    +0.210 C 
ATOM     38  C   UNL     1     -11.760 -10.482  19.385  0.00  0.00    +0.109 C 
ATOM     41  H   UNL     1      -9.775 -11.071  20.798  0.00  0.00    +0.149 HD
ENDBRANCH  29  10
ENDBRANCH  24  29
ENDBRANCH   8  24
ENDBRANCH  14   8
TORSDOF 8
ENDMDL
MODEL 4
REMARK VINA RESULT:      -6.6     27.837     30.246
REMARK  Name = 40780321
REMARK  10 active torsions:
REMARK  status: ('A' for Active; 'I' for Inactive)
REMARK    1  A    between atoms: O_4  and  C_23
REMARK    2  A    between atoms: O_4  and  C_35
REMARK    3  A    between atoms: N_8  and  C_14
REMARK    4  A    between atoms: N_8  and  C_24
REMARK    5  A    between atoms: N_10  and  C_29
REMARK    6  A    between atoms: C_12  and  C_20
REMARK    7  A    between atoms: C_16  and  C_23
REMARK    8  A    between atoms: C_24  and  C_29
REMARK    9  A    between atoms: C_34  and  C_36
REMARK   10  A    between atoms: C_37  and  C_38
REMARK                            x       y       z     vdW  Elec       q    Type
REMARK                         _______ _______ _______ _____ _____    ______ ____
ROOT
ATOM      7  N   UNL     1      -7.863  -9.620  15.075  0.00  0.00    -0.274 NA
ATOM      9  N   UNL     1      -4.315 -10.541  14.252  0.00  0.00    -0.356 N 
ATOM     11  C   UNL     1      -6.608 -10.374  15.381  0.00  0.00    +0.106 C 
ATOM     12  C   UNL     1      -8.865  -9.740  16.164  0.00  0.00    +0.090 C 
ATOM     13  C   UNL     1      -5.987  -9.879  16.699  0.00  0.00    +0.044 C 
ATOM     14  C   UNL     1      -6.960  -9.998  17.874  0.00  0.00    +0.057 C 
ATOM     15  C   UNL     1      -8.266  -9.287  17.519  0.00  0.00    +0.042 C 
ATOM     16  C   UNL     1      -8.386  -9.897  13.710  0.00  0.00    +0.172 C 
ATOM     17  C   UNL     1      -5.649 -10.240  14.236  0.00  0.00    +0.038 A 
ATOM     18  C   UNL     1      -7.385  -9.494  12.597  0.00  0.00    +0.068 C 
ATOM     19  C   UNL     1      -5.987  -9.860  12.955  0.00  0.00    -0.016 A 
ATOM     21  C   UNL     1      -4.806  -9.894  12.166  0.00  0.00    +0.003 A 
ATOM     22  C   UNL     1      -3.772 -10.324  13.004  0.00  0.00    +0.047 A 
ATOM     27  C   UNL     1      -4.510  -9.608  10.818  0.00  0.00    +0.010 A 
ATOM     28  C   UNL     1      -2.454 -10.479  12.557  0.00  0.00    +0.026 A 
ATOM     32  C   UNL     1      -3.197  -9.758  10.359  0.00  0.00    +0.001 A 
ATOM     33  C   UNL     1      -2.186 -10.187  11.216  0.00  0.00    +0.002 A 
ATOM     40  H   UNL     1      -3.798 -10.870  15.055  0.00  0.00    +0.166 HD
ENDROOT
BRANCH  12  20
ATOM     20  C   UNL     1     -10.138  -8.929  15.931  0.00  0.00    -0.030 A 
ATOM     25  C   UNL     1     -11.364  -9.581  15.799  0.00  0.00    +0.006 A 
ATOM     26  C   UNL     1     -10.074  -7.538  15.850  0.00  0.00    +0.006 A 
ATOM     30  C   UNL     1     -12.528  -8.841  15.587  0.00  0.00    +0.013 A 
ATOM     31  C   UNL     1     -11.238  -6.799  15.638  0.00  0.00    +0.013 A 
ATOM     34  C   UNL     1     -12.465  -7.450  15.506  0.00  0.00    +0.055 A 
BRANCH  34  36
ATOM      1  F   UNL     1     -13.478  -5.390  14.832  0.00  0.00    -0.166 F 
ATOM      2  F   UNL     1     -14.452  -6.516  16.417  0.00  0.00    -0.166 F 
ATOM      3  F   UNL     1     -14.552  -7.213  14.361  0.00  0.00    -0.166 F 
ATOM     36  C   UNL     1     -13.709  -6.659  15.282  0.00  0.00    +0.417 C 
ENDBRANCH  34  36
ENDBRANCH  12  20
BRANCH  16  23
ATOM      5  O   UNL     1      -8.032 -12.279  13.814  0.00  0.00    -0.249 OA
ATOM     23  C   UNL     1      -8.781 -11.340  13.580  0.00  0.00    +0.325 C 
BRANCH  23   4
ATOM      4  O   UNL     1     -10.079 -11.423  13.169  0.00  0.00    -0.467 OA
ATOM     35  C   UNL     1     -10.268 -11.796  11.801  0.00  0.00    +0.280 C 
ENDBRANCH  23   4
ENDBRANCH  16  23
BRANCH  14   8
ATOM      8  N   UNL     1      -7.212 -11.402  18.201  0.00  0.00    -0.312 NA
ATOM     39  H   UNL     1      -7.060 -11.980  17.373  0.00  0.00    +0.122 HD
BRANCH   8  24
ATOM     24  C   UNL     1      -6.320 -11.853  19.258  0.00  0.00    +0.100 C 
BRANCH  24  29
ATOM     29  C   UNL     1      -5.178 -12.668  18.672  0.00  0.00    +0.119 C 
BRANCH  29  10
ATOM      6  O   UNL     1      -4.289 -13.008  15.929  0.00  0.00    -0.276 OA
ATOM     10  N   UNL     1      -5.658 -13.623  17.711  0.00  0.00    -0.314 N 
ATOM     37  C   UNL     1      -5.171 -13.712  16.413  0.00  0.00    +0.210 C 
ATOM     38  C   UNL     1      -5.831 -14.813  15.625  0.00  0.00    +0.109 C 
ATOM     41  H   UNL     1      -6.394 -14.259  18.004  0.00  0.00    +0.149 HD
ENDBRANCH  29  10
ENDBRANCH  24  29
ENDBRANCH   8  24
ENDBRANCH  14   8
TORSDOF 8
ENDMDL
MODEL 5
REMARK VINA RESULT:      -6.6      7.431     11.782
REMARK  Name = 40780321
REMARK  10 active torsions:
REMARK  status: ('A' for Active; 'I' for Inactive)
REMARK    1  A    between atoms: O_4  and  C_23
REMARK    2  A    between atoms: O_4  and  C_35
REMARK    3  A    between atoms: N_8  and  C_14
REMARK    4  A    between atoms: N_8  and  C_24
REMARK    5  A    between atoms: N_10  and  C_29
REMARK    6  A    between atoms: C_12  and  C_20
REMARK    7  A    between atoms: C_16  and  C_23
REMARK    8  A    between atoms: C_24  and  C_29
REMARK    9  A    between atoms: C_34  and  C_36
REMARK   10  A    between atoms: C_37  and  C_38
REMARK                            x       y       z     vdW  Elec       q    Type
REMARK                         _______ _______ _______ _____ _____    ______ ____
ROOT
ATOM      7  N   UNL     1      21.536   5.546  22.591  0.00  0.00    -0.274 NA
ATOM      9  N   UNL     1      18.479   7.693  22.210  0.00  0.00    -0.356 N 
ATOM     11  C   UNL     1      20.795   6.816  22.862  0.00  0.00    +0.106 C 
ATOM     12  C   UNL     1      22.804   5.466  23.359  0.00  0.00    +0.090 C 
ATOM     13  C   UNL     1      20.489   6.954  24.363  0.00  0.00    +0.044 C 
ATOM     14  C   UNL     1      21.758   6.906  25.216  0.00  0.00    +0.057 C 
ATOM     15  C   UNL     1      22.545   5.641  24.876  0.00  0.00    +0.042 C 
ATOM     16  C   UNL     1      21.665   5.247  21.139  0.00  0.00    +0.172 C 
ATOM     17  C   UNL     1      19.542   6.851  22.038  0.00  0.00    +0.038 A 
ATOM     18  C   UNL     1      20.289   5.074  20.444  0.00  0.00    +0.068 C 
ATOM     19  C   UNL     1      19.301   6.080  20.922  0.00  0.00    -0.016 A 
ATOM     21  C   UNL     1      18.024   6.440  20.412  0.00  0.00    +0.003 A 
ATOM     22  C   UNL     1      17.530   7.453  21.240  0.00  0.00    +0.047 A 
ATOM     27  C   UNL     1      17.238   6.009  19.325  0.00  0.00    +0.010 A 
ATOM     28  C   UNL     1      16.284   8.056  21.031  0.00  0.00    +0.026 A 
ATOM     32  C   UNL     1      15.989   6.602  19.107  0.00  0.00    +0.001 A 
ATOM     33  C   UNL     1      15.521   7.610  19.948  0.00  0.00    +0.002 A 
ATOM     40  H   UNL     1      18.393   8.388  22.939  0.00  0.00    +0.166 HD
ENDROOT
BRANCH  12  20
ATOM     20  C   UNL     1      23.566   4.155  23.171  0.00  0.00    -0.030 A 
ATOM     25  C   UNL     1      24.945   4.173  22.968  0.00  0.00    +0.006 A 
ATOM     26  C   UNL     1      22.881   2.940  23.204  0.00  0.00    +0.006 A 
ATOM     30  C   UNL     1      25.642   2.977  22.797  0.00  0.00    +0.013 A 
ATOM     31  C   UNL     1      23.577   1.743  23.033  0.00  0.00    +0.013 A 
ATOM     34  C   UNL     1      24.957   1.761  22.829  0.00  0.00    +0.055 A 
BRANCH  34  36
ATOM      1  F   UNL     1      25.619  -0.355  23.726  0.00  0.00    -0.166 F 
ATOM      2  F   UNL     1      27.035   0.676  22.437  0.00  0.00    -0.166 F 
ATOM      3  F   UNL     1      25.266  -0.260  21.588  0.00  0.00    -0.166 F 
ATOM     36  C   UNL     1      25.701   0.482  22.649  0.00  0.00    +0.417 C 
ENDBRANCH  34  36
ENDBRANCH  12  20
BRANCH  16  23
ATOM      5  O   UNL     1      22.039   7.388  20.096  0.00  0.00    -0.249 OA
ATOM     23  C   UNL     1      22.482   6.306  20.454  0.00  0.00    +0.325 C 
BRANCH  23   4
ATOM      4  O   UNL     1      23.765   5.866  20.305  0.00  0.00    -0.467 OA
ATOM     35  C   UNL     1      24.778   6.866  20.445  0.00  0.00    +0.280 C 
ENDBRANCH  23   4
ENDBRANCH  16  23
BRANCH  14   8
ATOM      8  N   UNL     1      22.580   8.097  24.994  0.00  0.00    -0.312 NA
ATOM     39  H   UNL     1      22.403   8.466  24.059  0.00  0.00    +0.122 HD
BRANCH   8  24
ATOM     24  C   UNL     1      22.268   9.127  25.971  0.00  0.00    +0.100 C 
BRANCH  24  29
ATOM     29  C   UNL     1      21.442  10.232  25.329  0.00  0.00    +0.119 C 
BRANCH  29  10
ATOM      6  O   UNL     1      19.557  10.369  23.125  0.00  0.00    -0.276 OA
ATOM     10  N   UNL     1      21.744  10.361  23.929  0.00  0.00    -0.314 N 
ATOM     37  C   UNL     1      20.770  10.419  22.940  0.00  0.00    +0.210 C 
ATOM     38  C   UNL     1      21.358  10.579  21.563  0.00  0.00    +0.109 C 
ATOM     41  H   UNL     1      22.722  10.410  23.660  0.00  0.00    +0.149 HD
ENDBRANCH  29  10
ENDBRANCH  24  29
ENDBRANCH   8  24
ENDBRANCH  14   8
TORSDOF 8
ENDMDL
MODEL 6
REMARK VINA RESULT:      -6.5     16.129     19.464
REMARK  Name = 40780321
REMARK  10 active torsions:
REMARK  status: ('A' for Active; 'I' for Inactive)
REMARK    1  A    between atoms: O_4  and  C_23
REMARK    2  A    between atoms: O_4  and  C_35
REMARK    3  A    between atoms: N_8  and  C_14
REMARK    4  A    between atoms: N_8  and  C_24
REMARK    5  A    between atoms: N_10  and  C_29
REMARK    6  A    between atoms: C_12  and  C_20
REMARK    7  A    between atoms: C_16  and  C_23
REMARK    8  A    between atoms: C_24  and  C_29
REMARK    9  A    between atoms: C_34  and  C_36
REMARK   10  A    between atoms: C_37  and  C_38
REMARK                            x       y       z     vdW  Elec       q    Type
REMARK                         _______ _______ _______ _____ _____    ______ ____
ROOT
ATOM      7  N   UNL     1      16.805  -7.555  25.740  0.00  0.00    -0.274 NA
ATOM      9  N   UNL     1      17.154  -3.838  26.148  0.00  0.00    -0.356 N 
ATOM     11  C   UNL     1      17.089  -6.359  26.592  0.00  0.00    +0.106 C 
ATOM     12  C   UNL     1      16.726  -8.803  26.539  0.00  0.00    +0.090 C 
ATOM     13  C   UNL     1      16.010  -6.199  27.677  0.00  0.00    +0.044 C 
ATOM     14  C   UNL     1      15.892  -7.444  28.558  0.00  0.00    +0.057 C 
ATOM     15  C   UNL     1      15.676  -8.670  27.671  0.00  0.00    +0.042 C 
ATOM     16  C   UNL     1      17.684  -7.635  24.540  0.00  0.00    +0.172 C 
ATOM     17  C   UNL     1      17.187  -5.138  25.726  0.00  0.00    +0.038 A 
ATOM     18  C   UNL     1      17.518  -6.413  23.600  0.00  0.00    +0.068 C 
ATOM     19  C   UNL     1      17.401  -5.141  24.365  0.00  0.00    -0.016 A 
ATOM     21  C   UNL     1      17.467  -3.789  23.932  0.00  0.00    +0.003 A 
ATOM     22  C   UNL     1      17.308  -2.993  25.071  0.00  0.00    +0.047 A 
ATOM     27  C   UNL     1      17.650  -3.160  22.685  0.00  0.00    +0.010 A 
ATOM     28  C   UNL     1      17.323  -1.593  25.019  0.00  0.00    +0.026 A 
ATOM     32  C   UNL     1      17.666  -1.762  22.620  0.00  0.00    +0.001 A 
ATOM     33  C   UNL     1      17.505  -0.993  23.770  0.00  0.00    +0.002 A 
ATOM     40  H   UNL     1      17.034  -3.534  27.105  0.00  0.00    +0.166 HD
ENDROOT
BRANCH  12  20
ATOM     20  C   UNL     1      16.368 -10.044  25.723  0.00  0.00    -0.030 A 
ATOM     25  C   UNL     1      17.240 -11.132  25.690  0.00  0.00    +0.006 A 
ATOM     26  C   UNL     1      15.168 -10.089  25.014  0.00  0.00    +0.006 A 
ATOM     30  C   UNL     1      16.914 -12.266  24.946  0.00  0.00    +0.013 A 
ATOM     31  C   UNL     1      14.841 -11.224  24.270  0.00  0.00    +0.013 A 
ATOM     34  C   UNL     1      15.713 -12.311  24.235  0.00  0.00    +0.055 A 
BRANCH  34  36
ATOM      1  F   UNL     1      16.356 -14.461  23.408  0.00  0.00    -0.166 F 
ATOM      2  F   UNL     1      15.084 -13.237  22.138  0.00  0.00    -0.166 F 
ATOM      3  F   UNL     1      14.266 -14.188  23.913  0.00  0.00    -0.166 F 
ATOM     36  C   UNL     1      15.363 -13.525  23.443  0.00  0.00    +0.417 C 
ENDBRANCH  34  36
ENDBRANCH  12  20
BRANCH  16  23
ATOM      5  O   UNL     1      19.476  -8.365  25.978  0.00  0.00    -0.249 OA
ATOM     23  C   UNL     1      19.119  -7.805  24.950  0.00  0.00    +0.325 C 
BRANCH  23   4
ATOM      4  O   UNL     1      19.932  -7.246  24.009  0.00  0.00    -0.467 OA
ATOM     35  C   UNL     1      21.082  -6.564  24.516  0.00  0.00    +0.280 C 
ENDBRANCH  23   4
ENDBRANCH  16  23
BRANCH  14   8
ATOM      8  N   UNL     1      17.088  -7.613  29.385  0.00  0.00    -0.312 NA
ATOM     39  H   UNL     1      17.895  -7.210  28.906  0.00  0.00    +0.122 HD
BRANCH   8  24
ATOM     24  C   UNL     1      16.924  -6.949  30.668  0.00  0.00    +0.100 C 
BRANCH  24  29
ATOM     29  C   UNL     1      17.918  -5.805  30.802  0.00  0.00    +0.119 C 
BRANCH  29  10
ATOM      6  O   UNL     1      18.264  -3.679  28.854  0.00  0.00    -0.276 OA
ATOM     10  N   UNL     1      17.252  -4.531  30.772  0.00  0.00    -0.314 N 
ATOM     37  C   UNL     1      17.483  -3.571  29.796  0.00  0.00    +0.210 C 
ATOM     38  C   UNL     1      16.637  -2.340  29.987  0.00  0.00    +0.109 C 
ATOM     41  H   UNL     1      16.581  -4.332  31.508  0.00  0.00    +0.149 HD
ENDBRANCH  29  10
ENDBRANCH  24  29
ENDBRANCH   8  24
ENDBRANCH  14   8
TORSDOF 8
ENDMDL
MODEL 7
REMARK VINA RESULT:      -6.3      6.060      9.546
REMARK  Name = 40780321
REMARK  10 active torsions:
REMARK  status: ('A' for Active; 'I' for Inactive)
REMARK    1  A    between atoms: O_4  and  C_23
REMARK    2  A    between atoms: O_4  and  C_35
REMARK    3  A    between atoms: N_8  and  C_14
REMARK    4  A    between atoms: N_8  and  C_24
REMARK    5  A    between atoms: N_10  and  C_29
REMARK    6  A    between atoms: C_12  and  C_20
REMARK    7  A    between atoms: C_16  and  C_23
REMARK    8  A    between atoms: C_24  and  C_29
REMARK    9  A    between atoms: C_34  and  C_36
REMARK   10  A    between atoms: C_37  and  C_38
REMARK                            x       y       z     vdW  Elec       q    Type
REMARK                         _______ _______ _______ _____ _____    ______ ____
ROOT
ATOM      7  N   UNL     1      22.259   5.965  21.493  0.00  0.00    -0.274 NA
ATOM      9  N   UNL     1      25.618   4.303  21.735  0.00  0.00    -0.356 N 
ATOM     11  C   UNL     1      23.746   6.047  21.626  0.00  0.00    +0.106 C 
ATOM     12  C   UNL     1      21.641   7.301  21.299  0.00  0.00    +0.090 C 
ATOM     13  C   UNL     1      24.364   6.717  20.386  0.00  0.00    +0.044 C 
ATOM     14  C   UNL     1      23.790   8.114  20.141  0.00  0.00    +0.057 C 
ATOM     15  C   UNL     1      22.265   8.028  20.082  0.00  0.00    +0.042 C 
ATOM     16  C   UNL     1      21.627   5.131  22.552  0.00  0.00    +0.172 C 
ATOM     17  C   UNL     1      24.307   4.674  21.847  0.00  0.00    +0.038 A 
ATOM     18  C   UNL     1      22.122   3.662  22.526  0.00  0.00    +0.068 C 
ATOM     19  C   UNL     1      23.588   3.580  22.276  0.00  0.00    -0.016 A 
ATOM     21  C   UNL     1      24.489   2.487  22.396  0.00  0.00    +0.003 A 
ATOM     22  C   UNL     1      25.755   2.969  22.050  0.00  0.00    +0.047 A 
ATOM     27  C   UNL     1      24.356   1.135  22.770  0.00  0.00    +0.010 A 
ATOM     28  C   UNL     1      26.897   2.159  22.060  0.00  0.00    +0.026 A 
ATOM     32  C   UNL     1      25.490   0.314  22.782  0.00  0.00    +0.001 A 
ATOM     33  C   UNL     1      26.740   0.821  22.432  0.00  0.00    +0.002 A 
ATOM     40  H   UNL     1      26.378   4.911  21.461  0.00  0.00    +0.166 HD
ENDROOT
BRANCH  12  20
ATOM     20  C   UNL     1      20.129   7.264  21.088  0.00  0.00    -0.030 A 
ATOM     25  C   UNL     1      19.556   6.244  20.329  0.00  0.00    +0.006 A 
ATOM     26  C   UNL     1      19.322   8.251  21.655  0.00  0.00    +0.006 A 
ATOM     30  C   UNL     1      18.175   6.209  20.136  0.00  0.00    +0.013 A 
ATOM     31  C   UNL     1      17.940   8.216  21.461  0.00  0.00    +0.013 A 
ATOM     34  C   UNL     1      17.367   7.196  20.702  0.00  0.00    +0.055 A 
BRANCH  34  36
ATOM      1  F   UNL     1      15.210   8.074  21.249  0.00  0.00    -0.166 F 
ATOM      2  F   UNL     1      15.348   5.947  20.818  0.00  0.00    -0.166 F 
ATOM      3  F   UNL     1      15.509   7.401  19.210  0.00  0.00    -0.166 F 
ATOM     36  C   UNL     1      15.890   7.158  20.498  0.00  0.00    +0.417 C 
ENDBRANCH  34  36
ENDBRANCH  12  20
BRANCH  16  23
ATOM      5  O   UNL     1      22.922   5.768  24.483  0.00  0.00    -0.249 OA
ATOM     23  C   UNL     1      21.844   5.747  23.905  0.00  0.00    +0.325 C 
BRANCH  23   4
ATOM      4  O   UNL     1      20.668   6.262  24.365  0.00  0.00    -0.467 OA
ATOM     35  C   UNL     1      20.772   7.515  25.049  0.00  0.00    +0.280 C 
ENDBRANCH  23   4
ENDBRANCH  16  23
BRANCH  14   8
ATOM      8  N   UNL     1      24.211   9.042  21.192  0.00  0.00    -0.312 NA
ATOM     39  H   UNL     1      25.230   9.057  21.247  0.00  0.00    +0.122 HD
BRANCH   8  24
ATOM     24  C   UNL     1      23.736  10.387  20.911  0.00  0.00    +0.100 C 
BRANCH  24  29
ATOM     29  C   UNL     1      24.334  10.897  19.608  0.00  0.00    +0.119 C 
BRANCH  29  10
ATOM      6  O   UNL     1      23.355   9.822  17.094  0.00  0.00    -0.276 OA
ATOM     10  N   UNL     1      23.321  11.456  18.754  0.00  0.00    -0.314 N 
ATOM     37  C   UNL     1      22.915  10.869  17.563  0.00  0.00    +0.210 C 
ATOM     38  C   UNL     1      21.824  11.649  16.879  0.00  0.00    +0.109 C 
ATOM     41  H   UNL     1      22.887  12.327  19.045  0.00  0.00    +0.149 HD
ENDBRANCH  29  10
ENDBRANCH  24  29
ENDBRANCH   8  24
ENDBRANCH  14   8
TORSDOF 8
ENDMDL
MODEL 8
REMARK VINA RESULT:      -6.3     20.073     23.607
REMARK  Name = 40780321
REMARK  10 active torsions:
REMARK  status: ('A' for Active; 'I' for Inactive)
REMARK    1  A    between atoms: O_4  and  C_23
REMARK    2  A    between atoms: O_4  and  C_35
REMARK    3  A    between atoms: N_8  and  C_14
REMARK    4  A    between atoms: N_8  and  C_24
REMARK    5  A    between atoms: N_10  and  C_29
REMARK    6  A    between atoms: C_12  and  C_20
REMARK    7  A    between atoms: C_16  and  C_23
REMARK    8  A    between atoms: C_24  and  C_29
REMARK    9  A    between atoms: C_34  and  C_36
REMARK   10  A    between atoms: C_37  and  C_38
REMARK                            x       y       z     vdW  Elec       q    Type
REMARK                         _______ _______ _______ _____ _____    ______ ____
ROOT
ATOM      7  N   UNL     1      -3.506  10.201   5.998  0.00  0.00    -0.274 NA
ATOM      9  N   UNL     1      -1.210  12.359   8.042  0.00  0.00    -0.356 N 
ATOM     11  C   UNL     1      -2.298  11.075   6.112  0.00  0.00    +0.106 C 
ATOM     12  C   UNL     1      -3.599   9.549   4.668  0.00  0.00    +0.090 C 
ATOM     13  C   UNL     1      -1.016  10.264   5.853  0.00  0.00    +0.044 C 
ATOM     14  C   UNL     1      -1.033   9.583   4.483  0.00  0.00    +0.057 C 
ATOM     15  C   UNL     1      -2.309   8.752   4.350  0.00  0.00    +0.042 C 
ATOM     16  C   UNL     1      -4.753  10.873   6.455  0.00  0.00    +0.172 C 
ATOM     17  C   UNL     1      -2.275  11.727   7.463  0.00  0.00    +0.038 A 
ATOM     18  C   UNL     1      -4.690  11.292   7.946  0.00  0.00    +0.068 C 
ATOM     19  C   UNL     1      -3.358  11.853   8.305  0.00  0.00    -0.016 A 
ATOM     21  C   UNL     1      -2.930  12.560   9.461  0.00  0.00    +0.003 A 
ATOM     22  C   UNL     1      -1.579  12.864   9.270  0.00  0.00    +0.047 A 
ATOM     27  C   UNL     1      -3.558  12.977  10.651  0.00  0.00    +0.010 A 
ATOM     28  C   UNL     1      -0.824  13.567  10.218  0.00  0.00    +0.026 A 
ATOM     32  C   UNL     1      -2.814  13.679  11.607  0.00  0.00    +0.001 A 
ATOM     33  C   UNL     1      -1.469  13.969  11.391  0.00  0.00    +0.002 A 
ATOM     40  H   UNL     1      -0.288  12.446   7.638  0.00  0.00    +0.166 HD
ENDROOT
BRANCH  12  20
ATOM     20  C   UNL     1      -4.779   8.589   4.525  0.00  0.00    -0.030 A 
ATOM     25  C   UNL     1      -4.695   7.299   5.048  0.00  0.00    +0.006 A 
ATOM     26  C   UNL     1      -5.940   9.004   3.873  0.00  0.00    +0.006 A 
ATOM     30  C   UNL     1      -5.772   6.422   4.919  0.00  0.00    +0.013 A 
ATOM     31  C   UNL     1      -7.018   8.127   3.744  0.00  0.00    +0.013 A 
ATOM     34  C   UNL     1      -6.934   6.836   4.267  0.00  0.00    +0.055 A 
BRANCH  34  36
ATOM      1  F   UNL     1      -8.005   5.087   3.036  0.00  0.00    -0.166 F 
ATOM      2  F   UNL     1      -9.281   6.551   4.016  0.00  0.00    -0.166 F 
ATOM      3  F   UNL     1      -8.232   5.053   5.192  0.00  0.00    -0.166 F 
ATOM     36  C   UNL     1      -8.087   5.900   4.131  0.00  0.00    +0.417 C 
ENDBRANCH  34  36
ENDBRANCH  12  20
BRANCH  16  23
ATOM      5  O   UNL     1      -4.636  12.194   4.442  0.00  0.00    -0.249 OA
ATOM     23  C   UNL     1      -5.066  12.052   5.578  0.00  0.00    +0.325 C 
BRANCH  23   4
ATOM      4  O   UNL     1      -5.888  12.911   6.247  0.00  0.00    -0.467 OA
ATOM     35  C   UNL     1      -5.676  14.300   5.975  0.00  0.00    +0.280 C 
ENDBRANCH  23   4
ENDBRANCH  16  23
BRANCH  14   8
ATOM      8  N   UNL     1      -0.952  10.574   3.408  0.00  0.00    -0.312 NA
ATOM     39  H   UNL     1      -0.136  11.170   3.553  0.00  0.00    +0.122 HD
BRANCH   8  24
ATOM     24  C   UNL     1      -0.831   9.920   2.115  0.00  0.00    +0.100 C 
BRANCH  24  29
ATOM     29  C   UNL     1       0.025  10.758   1.177  0.00  0.00    +0.119 C 
BRANCH  29  10
ATOM      6  O   UNL     1       2.063  11.655   3.041  0.00  0.00    -0.276 OA
ATOM     10  N   UNL     1       1.403  10.352   1.226  0.00  0.00    -0.314 N 
ATOM     37  C   UNL     1       2.310  10.837   2.159  0.00  0.00    +0.210 C 
ATOM     38  C   UNL     1       3.678  10.228   2.002  0.00  0.00    +0.109 C 
ATOM     41  H   UNL     1       1.720   9.675   0.538  0.00  0.00    +0.149 HD
ENDBRANCH  29  10
ENDBRANCH  24  29
ENDBRANCH   8  24
ENDBRANCH  14   8
TORSDOF 8
ENDMDL
MODEL 9
REMARK VINA RESULT:      -6.3     24.504     26.205
REMARK  Name = 40780321
REMARK  10 active torsions:
REMARK  status: ('A' for Active; 'I' for Inactive)
REMARK    1  A    between atoms: O_4  and  C_23
REMARK    2  A    between atoms: O_4  and  C_35
REMARK    3  A    between atoms: N_8  and  C_14
REMARK    4  A    between atoms: N_8  and  C_24
REMARK    5  A    between atoms: N_10  and  C_29
REMARK    6  A    between atoms: C_12  and  C_20
REMARK    7  A    between atoms: C_16  and  C_23
REMARK    8  A    between atoms: C_24  and  C_29
REMARK    9  A    between atoms: C_34  and  C_36
REMARK   10  A    between atoms: C_37  and  C_38
REMARK                            x       y       z     vdW  Elec       q    Type
REMARK                         _______ _______ _______ _____ _____    ______ ____
ROOT
ATOM      7  N   UNL     1       6.154 -11.171  32.573  0.00  0.00    -0.274 NA
ATOM      9  N   UNL     1       4.393 -14.462  32.151  0.00  0.00    -0.356 N 
ATOM     11  C   UNL     1       6.092 -12.552  32.001  0.00  0.00    +0.106 C 
ATOM     12  C   UNL     1       7.293 -10.392  32.028  0.00  0.00    +0.090 C 
ATOM     13  C   UNL     1       5.982 -12.496  30.467  0.00  0.00    +0.044 C 
ATOM     14  C   UNL     1       7.143 -11.727  29.834  0.00  0.00    +0.057 C 
ATOM     15  C   UNL     1       7.242 -10.346  30.480  0.00  0.00    +0.042 C 
ATOM     16  C   UNL     1       6.036 -11.153  34.057  0.00  0.00    +0.172 C 
ATOM     17  C   UNL     1       4.942 -13.297  32.610  0.00  0.00    +0.038 A 
ATOM     18  C   UNL     1       4.691 -11.743  34.554  0.00  0.00    +0.068 C 
ATOM     19  C   UNL     1       4.303 -12.956  33.782  0.00  0.00    -0.016 A 
ATOM     21  C   UNL     1       3.300 -13.931  34.031  0.00  0.00    +0.003 A 
ATOM     22  C   UNL     1       3.378 -14.864  32.992  0.00  0.00    +0.047 A 
ATOM     27  C   UNL     1       2.334 -14.120  35.040  0.00  0.00    +0.010 A 
ATOM     28  C   UNL     1       2.533 -15.978  32.914  0.00  0.00    +0.026 A 
ATOM     32  C   UNL     1       1.482 -15.228  34.972  0.00  0.00    +0.001 A 
ATOM     33  C   UNL     1       1.582 -16.141  33.925  0.00  0.00    +0.002 A 
ATOM     40  H   UNL     1       4.682 -14.959  31.319  0.00  0.00    +0.166 HD
ENDROOT
BRANCH  12  20
ATOM     20  C   UNL     1       7.359  -8.950  32.529  0.00  0.00    -0.030 A 
ATOM     25  C   UNL     1       6.286  -8.087  32.311  0.00  0.00    +0.006 A 
ATOM     26  C   UNL     1       8.493  -8.499  33.206  0.00  0.00    +0.006 A 
ATOM     30  C   UNL     1       6.345  -6.771  32.769  0.00  0.00    +0.013 A 
ATOM     31  C   UNL     1       8.552  -7.182  33.664  0.00  0.00    +0.013 A 
ATOM     34  C   UNL     1       7.478  -6.318  33.445  0.00  0.00    +0.055 A 
BRANCH  34  36
ATOM      1  F   UNL     1       8.653  -4.236  33.524  0.00  0.00    -0.166 F 
ATOM      2  F   UNL     1       7.548  -4.832  35.299  0.00  0.00    -0.166 F 
ATOM      3  F   UNL     1       6.487  -4.143  33.532  0.00  0.00    -0.166 F 
ATOM     36  C   UNL     1       7.541  -4.912  33.937  0.00  0.00    +0.417 C 
ENDBRANCH  34  36
ENDBRANCH  12  20
BRANCH  16  23
ATOM      5  O   UNL     1       8.340 -11.838  34.244  0.00  0.00    -0.249 OA
ATOM     23  C   UNL     1       7.199 -11.867  34.686  0.00  0.00    +0.325 C 
BRANCH  23   4
ATOM      4  O   UNL     1       6.778 -12.532  35.799  0.00  0.00    -0.467 OA
ATOM     35  C   UNL     1       7.374 -13.816  36.010  0.00  0.00    +0.280 C 
ENDBRANCH  23   4
ENDBRANCH  16  23
BRANCH  14   8
ATOM      8  N   UNL     1       8.401 -12.459  29.992  0.00  0.00    -0.312 NA
ATOM     39  H   UNL     1       8.276 -13.213  30.669  0.00  0.00    +0.122 HD
BRANCH   8  24
ATOM     24  C   UNL     1       8.825 -13.033  28.725  0.00  0.00    +0.100 C 
BRANCH  24  29
ATOM     29  C   UNL     1       8.689 -14.548  28.759  0.00  0.00    +0.119 C 
BRANCH  29  10
ATOM      6  O   UNL     1       6.435 -15.842  30.054  0.00  0.00    -0.276 OA
ATOM     10  N   UNL     1       7.458 -14.974  28.149  0.00  0.00    -0.314 N 
ATOM     37  C   UNL     1       6.430 -15.589  28.852  0.00  0.00    +0.210 C 
ATOM     38  C   UNL     1       5.247 -15.909  27.978  0.00  0.00    +0.109 C 
ATOM     41  H   UNL     1       7.345 -14.814  27.153  0.00  0.00    +0.149 HD
ENDBRANCH  29  10
ENDBRANCH  24  29
ENDBRANCH   8  24
ENDBRANCH  14   8
TORSDOF 8
ENDMDL
MODEL 10
REMARK VINA RESULT:      -6.3     28.489     31.441
REMARK  Name = 40780321
REMARK  10 active torsions:
REMARK  status: ('A' for Active; 'I' for Inactive)
REMARK    1  A    between atoms: O_4  and  C_23
REMARK    2  A    between atoms: O_4  and  C_35
REMARK    3  A    between atoms: N_8  and  C_14
REMARK    4  A    between atoms: N_8  and  C_24
REMARK    5  A    between atoms: N_10  and  C_29
REMARK    6  A    between atoms: C_12  and  C_20
REMARK    7  A    between atoms: C_16  and  C_23
REMARK    8  A    between atoms: C_24  and  C_29
REMARK    9  A    between atoms: C_34  and  C_36
REMARK   10  A    between atoms: C_37  and  C_38
REMARK                            x       y       z     vdW  Elec       q    Type
REMARK                         _______ _______ _______ _____ _____    ______ ____
ROOT
ATOM      7  N   UNL     1      -8.572 -11.183  17.957  0.00  0.00    -0.274 NA
ATOM      9  N   UNL     1     -11.608 -11.716  20.102  0.00  0.00    -0.356 N 
ATOM     11  C   UNL     1     -10.024 -10.963  18.236  0.00  0.00    +0.106 C 
ATOM     12  C   UNL     1      -8.094 -10.367  16.813  0.00  0.00    +0.090 C 
ATOM     13  C   UNL     1     -10.301  -9.476  18.522  0.00  0.00    +0.044 C 
ATOM     14  C   UNL     1      -9.855  -8.576  17.369  0.00  0.00    +0.057 C 
ATOM     15  C   UNL     1      -8.390  -8.863  17.043  0.00  0.00    +0.042 C 
ATOM     16  C   UNL     1      -8.205 -12.624  17.893  0.00  0.00    +0.172 C 
ATOM     17  C   UNL     1     -10.454 -11.834  19.379  0.00  0.00    +0.038 A 
ATOM     18  C   UNL     1      -8.484 -13.367  19.225  0.00  0.00    +0.068 C 
ATOM     19  C   UNL     1      -9.776 -12.944  19.832  0.00  0.00    -0.016 A 
ATOM     21  C   UNL     1     -10.528 -13.508  20.898  0.00  0.00    +0.003 A 
ATOM     22  C   UNL     1     -11.671 -12.718  21.047  0.00  0.00    +0.047 A 
ATOM     27  C   UNL     1     -10.354 -14.616  21.751  0.00  0.00    +0.010 A 
ATOM     28  C   UNL     1     -12.651 -12.984  22.012  0.00  0.00    +0.026 A 
ATOM     32  C   UNL     1     -11.325 -14.892  22.720  0.00  0.00    +0.001 A 
ATOM     33  C   UNL     1     -12.455 -14.087  22.847  0.00  0.00    +0.002 A 
ATOM     40  H   UNL     1     -12.312 -11.004  19.971  0.00  0.00    +0.166 HD
ENDROOT
BRANCH  12  20
ATOM     20  C   UNL     1      -6.599 -10.503  16.531  0.00  0.00    -0.030 A 
ATOM     25  C   UNL     1      -5.681 -10.411  17.577  0.00  0.00    +0.006 A 
ATOM     26  C   UNL     1      -6.152 -10.720  15.227  0.00  0.00    +0.006 A 
ATOM     30  C   UNL     1      -4.316 -10.536  17.321  0.00  0.00    +0.013 A 
ATOM     31  C   UNL     1      -4.786 -10.845  14.971  0.00  0.00    +0.013 A 
ATOM     34  C   UNL     1      -3.868 -10.753  16.017  0.00  0.00    +0.055 A 
BRANCH  34  36
ATOM      1  F   UNL     1      -1.637 -10.878  16.871  0.00  0.00    -0.166 F 
ATOM      2  F   UNL     1      -1.925  -9.882  14.959  0.00  0.00    -0.166 F 
ATOM      3  F   UNL     1      -2.079 -12.047  15.099  0.00  0.00    -0.166 F 
ATOM     36  C   UNL     1      -2.409 -10.889  15.744  0.00  0.00    +0.417 C 
ENDBRANCH  34  36
ENDBRANCH  12  20
BRANCH  16  23
ATOM      5  O   UNL     1     -10.119 -13.464  16.690  0.00  0.00    -0.249 OA
ATOM     23  C   UNL     1      -8.908 -13.295  16.747  0.00  0.00    +0.325 C 
BRANCH  23   4
ATOM      4  O   UNL     1      -7.993 -13.674  15.810  0.00  0.00    -0.467 OA
ATOM     35  C   UNL     1      -8.312 -14.866  15.086  0.00  0.00    +0.280 C 
ENDBRANCH  23   4
ENDBRANCH  16  23
BRANCH  14   8
ATOM      8  N   UNL     1     -10.695  -8.787  16.188  0.00  0.00    -0.312 NA
ATOM     39  H   UNL     1     -11.262  -9.626  16.318  0.00  0.00    +0.122 HD
BRANCH   8  24
ATOM     24  C   UNL     1     -11.577  -7.652  15.974  0.00  0.00    +0.100 C 
BRANCH  24  29
ATOM     29  C   UNL     1     -10.811  -6.501  15.339  0.00  0.00    +0.119 C 
BRANCH  29  10
ATOM      6  O   UNL     1     -12.243  -6.447  12.813  0.00  0.00    -0.276 OA
ATOM     10  N   UNL     1     -11.706  -5.480  14.863  0.00  0.00    -0.314 N 
ATOM     37  C   UNL     1     -12.349  -5.540  13.634  0.00  0.00    +0.210 C 
ATOM     38  C   UNL     1     -13.246  -4.354  13.396  0.00  0.00    +0.109 C 
ATOM     41  H   UNL     1     -11.867  -4.677  15.464  0.00  0.00    +0.149 HD
ENDBRANCH  29  10
ENDBRANCH  24  29
ENDBRANCH   8  24
ENDBRANCH  14   8
TORSDOF 8
ENDMDL
