MODEL 1
REMARK VINA RESULT:      -5.7      0.000      0.000
REMARK  Name = 28960500
REMARK  8 active torsions:
REMARK  status: ('A' for Active; 'I' for Inactive)
REMARK    1  A    between atoms: O_3  and  C_10
REMARK    2  A    between atoms: O_5  and  C_27
REMARK    3  A    between atoms: O_5  and  C_28
REMARK    4  A    between atoms: N_6  and  C_9
REMARK    5  A    between atoms: N_7  and  C_11
REMARK    6  A    between atoms: N_7  and  C_20
REMARK    7  A    between atoms: C_19  and  C_21
REMARK    8  A    between atoms: C_20  and  C_22
REMARK                            x       y       z     vdW  Elec       q    Type
REMARK                         _______ _______ _______ _____ _____    ______ ____
ROOT
ATOM      1  O   UNL     1      -4.159 -10.758  12.963  0.00  0.00    -0.343 OA
ATOM      2  O   UNL     1      -2.861 -12.161  11.650  0.00  0.00    -0.347 OA
ATOM      9  C   UNL     1      -3.632 -12.961  13.798  0.00  0.00    +0.143 C 
ATOM     10  C   UNL     1      -2.359 -12.413  14.483  0.00  0.00    +0.156 C 
ATOM     11  C   UNL     1      -2.204 -10.876  14.382  0.00  0.00    +0.116 C 
ATOM     12  C   UNL     1      -3.978 -12.120  12.555  0.00  0.00    +0.270 C 
ATOM     13  C   UNL     1      -2.805 -10.304  13.077  0.00  0.00    +0.166 C 
ATOM     14  C   UNL     1      -2.211 -10.890  11.809  0.00  0.00    +0.196 C 
ENDROOT
BRANCH   9   6
ATOM      6  N   UNL     1      -4.761 -12.963  14.728  0.00  0.00    -0.293 NA
ATOM     15  C   UNL     1      -6.033 -12.960  13.994  0.00  0.00    +0.085 C 
ATOM     16  C   UNL     1      -4.676 -14.115  15.637  0.00  0.00    +0.085 C 
ATOM     17  C   UNL     1      -7.224 -12.907  14.953  0.00  0.00    +0.028 C 
ATOM     18  C   UNL     1      -5.819 -14.102  16.653  0.00  0.00    +0.028 C 
ATOM     19  C   UNL     1      -7.179 -14.058  15.957  0.00  0.00    +0.077 C 
BRANCH  19  21
ATOM      4  O   UNL     1      -9.399 -13.549  16.674  0.00  0.00    -0.276 OA
ATOM      8  N   UNL     1      -7.852 -14.154  18.266  0.00  0.00    -0.329 N 
ATOM     21  C   UNL     1      -8.262 -13.897  16.979  0.00  0.00    +0.214 C 
ATOM     31  H   UNL     1      -6.900 -14.428  18.491  0.00  0.00    +0.145 HD
ATOM     32  H   UNL     1      -8.497 -14.073  19.044  0.00  0.00    +0.145 HD
ENDBRANCH  19  21
ENDBRANCH   9   6
BRANCH  10   3
ATOM      3  O   UNL     1      -1.228 -13.027  13.849  0.00  0.00    -0.388 OA
ATOM     30  H   UNL     1      -1.496 -13.280  12.949  0.00  0.00    +0.210 HD
ENDBRANCH  10   3
BRANCH  11   7
ATOM      7  N   UNL     1      -2.862 -10.216  15.516  0.00  0.00    -0.305 NA
ATOM     29  H   UNL     1      -3.855 -10.096  15.312  0.00  0.00    +0.123 HD
BRANCH   7  20
ATOM     20  C   UNL     1      -2.688 -10.995  16.729  0.00  0.00    +0.116 C 
BRANCH  20  22
ATOM     22  C   UNL     1      -3.949 -11.044  17.550  0.00  0.00    -0.033 A 
ATOM     23  C   UNL     1      -5.102 -10.402  17.098  0.00  0.00    +0.008 A 
ATOM     24  C   UNL     1      -3.965 -11.734  18.762  0.00  0.00    +0.008 A 
ATOM     25  C   UNL     1      -6.270 -10.450  17.858  0.00  0.00    +0.046 A 
ATOM     26  C   UNL     1      -5.133 -11.782  19.521  0.00  0.00    +0.046 A 
ATOM     27  C   UNL     1      -6.286 -11.139  19.069  0.00  0.00    +0.120 A 
BRANCH  27   5
ATOM      5  O   UNL     1      -7.427 -11.187  19.811  0.00  0.00    -0.495 OA
ATOM     28  C   UNL     1      -8.642 -10.828  19.155  0.00  0.00    +0.277 C 
ENDBRANCH  27   5
ENDBRANCH  20  22
ENDBRANCH   7  20
ENDBRANCH  11   7
TORSDOF 7
ENDMDL
MODEL 2
REMARK VINA RESULT:      -5.7     19.751     22.012
REMARK  Name = 28960500
REMARK  8 active torsions:
REMARK  status: ('A' for Active; 'I' for Inactive)
REMARK    1  A    between atoms: O_3  and  C_10
REMARK    2  A    between atoms: O_5  and  C_27
REMARK    3  A    between atoms: O_5  and  C_28
REMARK    4  A    between atoms: N_6  and  C_9
REMARK    5  A    between atoms: N_7  and  C_11
REMARK    6  A    between atoms: N_7  and  C_20
REMARK    7  A    between atoms: C_19  and  C_21
REMARK    8  A    between atoms: C_20  and  C_22
REMARK                            x       y       z     vdW  Elec       q    Type
REMARK                         _______ _______ _______ _____ _____    ______ ____
ROOT
ATOM      1  O   UNL     1     -10.460   8.313  17.244  0.00  0.00    -0.343 OA
ATOM      2  O   UNL     1     -10.002  10.524  17.771  0.00  0.00    -0.347 OA
ATOM      9  C   UNL     1     -11.910   9.453  18.801  0.00  0.00    +0.143 C 
ATOM     10  C   UNL     1     -12.821   9.913  17.639  0.00  0.00    +0.156 C 
ATOM     11  C   UNL     1     -12.419   9.334  16.260  0.00  0.00    +0.116 C 
ATOM     12  C   UNL     1     -10.462   9.272  18.309  0.00  0.00    +0.270 C 
ATOM     13  C   UNL     1     -10.895   9.107  16.134  0.00  0.00    +0.166 C 
ATOM     14  C   UNL     1     -10.060  10.357  16.346  0.00  0.00    +0.196 C 
ENDROOT
BRANCH   9   6
ATOM      6  N   UNL     1     -12.400   8.203  19.381  0.00  0.00    -0.293 NA
ATOM     15  C   UNL     1     -11.546   7.785  20.501  0.00  0.00    +0.085 C 
ATOM     16  C   UNL     1     -13.800   8.347  19.806  0.00  0.00    +0.085 C 
ATOM     17  C   UNL     1     -12.013   6.450  21.083  0.00  0.00    +0.028 C 
ATOM     18  C   UNL     1     -14.345   7.032  20.365  0.00  0.00    +0.028 C 
ATOM     19  C   UNL     1     -13.478   6.515  21.512  0.00  0.00    +0.077 C 
BRANCH  19  21
ATOM      4  O   UNL     1     -15.087   4.756  21.672  0.00  0.00    -0.276 OA
ATOM      8  N   UNL     1     -13.022   4.437  22.637  0.00  0.00    -0.329 N 
ATOM     21  C   UNL     1     -13.955   5.158  21.931  0.00  0.00    +0.214 C 
ATOM     31  H   UNL     1     -12.098   4.799  22.848  0.00  0.00    +0.145 HD
ATOM     32  H   UNL     1     -13.233   3.505  22.977  0.00  0.00    +0.145 HD
ENDBRANCH  19  21
ENDBRANCH   9   6
BRANCH  10   3
ATOM      3  O   UNL     1     -12.748  11.344  17.571  0.00  0.00    -0.388 OA
ATOM     30  H   UNL     1     -12.553  11.584  16.648  0.00  0.00    +0.210 HD
ENDBRANCH  10   3
BRANCH  11   7
ATOM      7  N   UNL     1     -13.094   8.052  16.024  0.00  0.00    -0.305 NA
ATOM     29  H   UNL     1     -13.051   7.482  16.869  0.00  0.00    +0.123 HD
BRANCH   7  20
ATOM     20  C   UNL     1     -14.475   8.267  15.632  0.00  0.00    +0.116 C 
BRANCH  20  22
ATOM     22  C   UNL     1     -14.929   7.264  14.605  0.00  0.00    -0.033 A 
ATOM     23  C   UNL     1     -14.208   7.100  13.423  0.00  0.00    +0.008 A 
ATOM     24  C   UNL     1     -16.071   6.497  14.838  0.00  0.00    +0.008 A 
ATOM     25  C   UNL     1     -14.628   6.168  12.473  0.00  0.00    +0.046 A 
ATOM     26  C   UNL     1     -16.490   5.566  13.888  0.00  0.00    +0.046 A 
ATOM     27  C   UNL     1     -15.769   5.402  12.705  0.00  0.00    +0.120 A 
BRANCH  27   5
ATOM      5  O   UNL     1     -16.178   4.492  11.779  0.00  0.00    -0.495 OA
ATOM     28  C   UNL     1     -15.200   3.572  11.296  0.00  0.00    +0.277 C 
ENDBRANCH  27   5
ENDBRANCH  20  22
ENDBRANCH   7  20
ENDBRANCH  11   7
TORSDOF 7
ENDMDL
MODEL 3
REMARK VINA RESULT:      -5.7     24.289     27.634
REMARK  Name = 28960500
REMARK  8 active torsions:
REMARK  status: ('A' for Active; 'I' for Inactive)
REMARK    1  A    between atoms: O_3  and  C_10
REMARK    2  A    between atoms: O_5  and  C_27
REMARK    3  A    between atoms: O_5  and  C_28
REMARK    4  A    between atoms: N_6  and  C_9
REMARK    5  A    between atoms: N_7  and  C_11
REMARK    6  A    between atoms: N_7  and  C_20
REMARK    7  A    between atoms: C_19  and  C_21
REMARK    8  A    between atoms: C_20  and  C_22
REMARK                            x       y       z     vdW  Elec       q    Type
REMARK                         _______ _______ _______ _____ _____    ______ ____
ROOT
ATOM      1  O   UNL     1      10.051  10.466   4.357  0.00  0.00    -0.343 OA
ATOM      2  O   UNL     1       7.984  11.517   4.320  0.00  0.00    -0.347 OA
ATOM      9  C   UNL     1       8.091   9.177   4.923  0.00  0.00    +0.143 C 
ATOM     10  C   UNL     1       7.915   8.766   3.444  0.00  0.00    +0.156 C 
ATOM     11  C   UNL     1       9.059   9.248   2.518  0.00  0.00    +0.116 C 
ATOM     12  C   UNL     1       8.784  10.549   5.021  0.00  0.00    +0.270 C 
ATOM     13  C   UNL     1       9.670  10.591   2.981  0.00  0.00    +0.166 C 
ATOM     14  C   UNL     1       8.670  11.730   3.077  0.00  0.00    +0.196 C 
ENDROOT
BRANCH   9   6
ATOM      6  N   UNL     1       8.866   8.173   5.652  0.00  0.00    -0.293 NA
ATOM     15  C   UNL     1       8.898   8.490   7.087  0.00  0.00    +0.085 C 
ATOM     16  C   UNL     1       8.317   6.830   5.418  0.00  0.00    +0.085 C 
ATOM     17  C   UNL     1       9.752   7.479   7.855  0.00  0.00    +0.028 C 
ATOM     18  C   UNL     1       9.149   5.762   6.129  0.00  0.00    +0.028 C 
ATOM     19  C   UNL     1       9.260   6.051   7.625  0.00  0.00    +0.077 C 
BRANCH  19  21
ATOM      4  O   UNL     1       9.801   4.093   8.882  0.00  0.00    -0.276 OA
ATOM      8  N   UNL     1      11.528   5.388   8.086  0.00  0.00    -0.329 N 
ATOM     21  C   UNL     1      10.201   5.072   8.258  0.00  0.00    +0.214 C 
ATOM     31  H   UNL     1      11.830   6.212   7.576  0.00  0.00    +0.145 HD
ATOM     32  H   UNL     1      12.258   4.801   8.475  0.00  0.00    +0.145 HD
ENDBRANCH  19  21
ENDBRANCH   9   6
BRANCH  10   3
ATOM      3  O   UNL     1       6.683   9.335   2.979  0.00  0.00    -0.388 OA
ATOM     30  H   UNL     1       5.968   8.988   3.541  0.00  0.00    +0.210 HD
ENDBRANCH  10   3
BRANCH  11   7
ATOM      7  N   UNL     1      10.134   8.251   2.465  0.00  0.00    -0.305 NA
ATOM     29  H   UNL     1      10.605   8.208   3.369  0.00  0.00    +0.123 HD
BRANCH   7  20
ATOM     20  C   UNL     1       9.601   6.946   2.113  0.00  0.00    +0.116 C 
BRANCH  20  22
ATOM     22  C   UNL     1      10.687   5.908   2.009  0.00  0.00    -0.033 A 
ATOM     23  C   UNL     1      11.904   6.227   1.407  0.00  0.00    +0.008 A 
ATOM     24  C   UNL     1      10.475   4.626   2.517  0.00  0.00    +0.008 A 
ATOM     25  C   UNL     1      12.910   5.266   1.314  0.00  0.00    +0.046 A 
ATOM     26  C   UNL     1      11.481   3.665   2.423  0.00  0.00    +0.046 A 
ATOM     27  C   UNL     1      12.698   3.984   1.821  0.00  0.00    +0.120 A 
BRANCH  27   5
ATOM      5  O   UNL     1      13.680   3.046   1.730  0.00  0.00    -0.495 OA
ATOM     28  C   UNL     1      15.025   3.518   1.659  0.00  0.00    +0.277 C 
ENDBRANCH  27   5
ENDBRANCH  20  22
ENDBRANCH   7  20
ENDBRANCH  11   7
TORSDOF 7
ENDMDL
MODEL 4
REMARK VINA RESULT:      -5.5      3.022      6.964
REMARK  Name = 28960500
REMARK  8 active torsions:
REMARK  status: ('A' for Active; 'I' for Inactive)
REMARK    1  A    between atoms: O_3  and  C_10
REMARK    2  A    between atoms: O_5  and  C_27
REMARK    3  A    between atoms: O_5  and  C_28
REMARK    4  A    between atoms: N_6  and  C_9
REMARK    5  A    between atoms: N_7  and  C_11
REMARK    6  A    between atoms: N_7  and  C_20
REMARK    7  A    between atoms: C_19  and  C_21
REMARK    8  A    between atoms: C_20  and  C_22
REMARK                            x       y       z     vdW  Elec       q    Type
REMARK                         _______ _______ _______ _____ _____    ______ ____
ROOT
ATOM      1  O   UNL     1      -9.159  -8.177  17.245  0.00  0.00    -0.343 OA
ATOM      2  O   UNL     1     -11.205  -9.154  17.731  0.00  0.00    -0.347 OA
ATOM      9  C   UNL     1      -9.274 -10.581  17.435  0.00  0.00    +0.143 C 
ATOM     10  C   UNL     1      -9.569 -10.702  15.923  0.00  0.00    +0.156 C 
ATOM     11  C   UNL     1      -9.501  -9.355  15.161  0.00  0.00    +0.116 C 
ATOM     12  C   UNL     1      -9.791  -9.235  17.978  0.00  0.00    +0.270 C 
ATOM     13  C   UNL     1      -9.929  -8.156  16.038  0.00  0.00    +0.166 C 
ATOM     14  C   UNL     1     -11.332  -8.270  16.606  0.00  0.00    +0.196 C 
ENDROOT
BRANCH   9   6
ATOM      6  N   UNL     1      -7.840 -10.707  17.696  0.00  0.00    -0.293 NA
ATOM     15  C   UNL     1      -7.580 -10.723  19.142  0.00  0.00    +0.085 C 
ATOM     16  C   UNL     1      -7.304 -11.912  17.048  0.00  0.00    +0.085 C 
ATOM     17  C   UNL     1      -6.080 -10.799  19.432  0.00  0.00    +0.028 C 
ATOM     18  C   UNL     1      -5.795 -12.030  17.265  0.00  0.00    +0.028 C 
ATOM     19  C   UNL     1      -5.445 -12.012  18.752  0.00  0.00    +0.077 C 
BRANCH  19  21
ATOM      4  O   UNL     1      -3.415 -12.240  19.989  0.00  0.00    -0.276 OA
ATOM      8  N   UNL     1      -3.281 -11.615  17.779  0.00  0.00    -0.329 N 
ATOM     21  C   UNL     1      -3.957 -11.979  18.919  0.00  0.00    +0.214 C 
ATOM     31  H   UNL     1      -3.756 -11.392  16.910  0.00  0.00    +0.145 HD
ATOM     32  H   UNL     1      -2.268 -11.554  17.772  0.00  0.00    +0.145 HD
ENDBRANCH  19  21
ENDBRANCH   9   6
BRANCH  10   3
ATOM      3  O   UNL     1     -10.891 -11.239  15.779  0.00  0.00    -0.388 OA
ATOM     30  H   UNL     1     -10.803 -12.188  15.583  0.00  0.00    +0.210 HD
ENDBRANCH  10   3
BRANCH  11   7
ATOM      7  N   UNL     1      -8.138  -9.104  14.678  0.00  0.00    -0.305 NA
ATOM     29  H   UNL     1      -7.465  -9.514  15.326  0.00  0.00    +0.123 HD
BRANCH   7  20
ATOM     20  C   UNL     1      -7.959  -9.661  13.348  0.00  0.00    +0.116 C 
BRANCH  20  22
ATOM     22  C   UNL     1      -6.505  -9.880  13.024  0.00  0.00    -0.033 A 
ATOM     23  C   UNL     1      -5.994  -9.473  11.793  0.00  0.00    +0.008 A 
ATOM     24  C   UNL     1      -5.668 -10.490  13.959  0.00  0.00    +0.008 A 
ATOM     25  C   UNL     1      -4.646  -9.674  11.495  0.00  0.00    +0.046 A 
ATOM     26  C   UNL     1      -4.320 -10.691  13.661  0.00  0.00    +0.046 A 
ATOM     27  C   UNL     1      -3.810 -10.284  12.429  0.00  0.00    +0.120 A 
BRANCH  27   5
ATOM      5  O   UNL     1      -2.494 -10.480  12.138  0.00  0.00    -0.495 OA
ATOM     28  C   UNL     1      -1.916 -11.716  12.552  0.00  0.00    +0.277 C 
ENDBRANCH  27   5
ENDBRANCH  20  22
ENDBRANCH   7  20
ENDBRANCH  11   7
TORSDOF 7
ENDMDL
MODEL 5
REMARK VINA RESULT:      -5.4      4.018      7.594
REMARK  Name = 28960500
REMARK  8 active torsions:
REMARK  status: ('A' for Active; 'I' for Inactive)
REMARK    1  A    between atoms: O_3  and  C_10
REMARK    2  A    between atoms: O_5  and  C_27
REMARK    3  A    between atoms: O_5  and  C_28
REMARK    4  A    between atoms: N_6  and  C_9
REMARK    5  A    between atoms: N_7  and  C_11
REMARK    6  A    between atoms: N_7  and  C_20
REMARK    7  A    between atoms: C_19  and  C_21
REMARK    8  A    between atoms: C_20  and  C_22
REMARK                            x       y       z     vdW  Elec       q    Type
REMARK                         _______ _______ _______ _____ _____    ______ ____
ROOT
ATOM      1  O   UNL     1     -10.462 -12.160  17.364  0.00  0.00    -0.343 OA
ATOM      2  O   UNL     1     -10.267 -12.231  19.673  0.00  0.00    -0.347 OA
ATOM      9  C   UNL     1     -10.090 -10.094  18.556  0.00  0.00    +0.143 C 
ATOM     10  C   UNL     1      -8.561 -10.270  18.415  0.00  0.00    +0.156 C 
ATOM     11  C   UNL     1      -8.146 -11.488  17.553  0.00  0.00    +0.116 C 
ATOM     12  C   UNL     1     -10.790 -11.465  18.574  0.00  0.00    +0.270 C 
ATOM     13  C   UNL     1      -9.151 -12.658  17.658  0.00  0.00    +0.166 C 
ATOM     14  C   UNL     1      -9.364 -13.171  19.071  0.00  0.00    +0.196 C 
ENDROOT
BRANCH   9   6
ATOM      6  N   UNL     1     -10.621  -9.277  17.464  0.00  0.00    -0.293 NA
ATOM     15  C   UNL     1     -12.068  -9.082  17.624  0.00  0.00    +0.085 C 
ATOM     16  C   UNL     1      -9.916  -7.990  17.395  0.00  0.00    +0.085 C 
ATOM     17  C   UNL     1     -12.648  -8.276  16.460  0.00  0.00    +0.028 C 
ATOM     18  C   UNL     1     -10.421  -7.146  16.223  0.00  0.00    +0.028 C 
ATOM     19  C   UNL     1     -11.932  -6.935  16.303  0.00  0.00    +0.077 C 
BRANCH  19  21
ATOM      4  O   UNL     1     -13.496  -6.484  14.555  0.00  0.00    -0.276 OA
ATOM      8  N   UNL     1     -11.511  -5.322  14.568  0.00  0.00    -0.329 N 
ATOM     21  C   UNL     1     -12.408  -6.236  15.067  0.00  0.00    +0.214 C 
ATOM     31  H   UNL     1     -10.612  -5.145  15.005  0.00  0.00    +0.145 HD
ATOM     32  H   UNL     1     -11.721  -4.789  13.731  0.00  0.00    +0.145 HD
ENDBRANCH  19  21
ENDBRANCH   9   6
BRANCH  10   3
ATOM      3  O   UNL     1      -8.021 -10.440  19.733  0.00  0.00    -0.388 OA
ATOM     30  H   UNL     1      -8.466 -11.206  20.136  0.00  0.00    +0.210 HD
ENDBRANCH  10   3
BRANCH  11   7
ATOM      7  N   UNL     1      -8.036 -11.105  16.141  0.00  0.00    -0.305 NA
ATOM     29  H   UNL     1      -8.968 -10.956  15.753  0.00  0.00    +0.123 HD
BRANCH   7  20
ATOM     20  C   UNL     1      -7.235  -9.902  16.000  0.00  0.00    +0.116 C 
BRANCH  20  22
ATOM     22  C   UNL     1      -5.783 -10.221  15.760  0.00  0.00    -0.033 A 
ATOM     23  C   UNL     1      -4.896 -10.289  16.834  0.00  0.00    +0.008 A 
ATOM     24  C   UNL     1      -5.326 -10.452  14.462  0.00  0.00    +0.008 A 
ATOM     25  C   UNL     1      -3.552 -10.587  16.611  0.00  0.00    +0.046 A 
ATOM     26  C   UNL     1      -3.982 -10.751  14.240  0.00  0.00    +0.046 A 
ATOM     27  C   UNL     1      -3.095 -10.817  15.315  0.00  0.00    +0.120 A 
BRANCH  27   5
ATOM      5  O   UNL     1      -1.783 -11.110  15.097  0.00  0.00    -0.495 OA
ATOM     28  C   UNL     1      -0.818 -10.270  15.729  0.00  0.00    +0.277 C 
ENDBRANCH  27   5
ENDBRANCH  20  22
ENDBRANCH   7  20
ENDBRANCH  11   7
TORSDOF 7
ENDMDL
MODEL 6
REMARK VINA RESULT:      -5.4      2.402      6.887
REMARK  Name = 28960500
REMARK  8 active torsions:
REMARK  status: ('A' for Active; 'I' for Inactive)
REMARK    1  A    between atoms: O_3  and  C_10
REMARK    2  A    between atoms: O_5  and  C_27
REMARK    3  A    between atoms: O_5  and  C_28
REMARK    4  A    between atoms: N_6  and  C_9
REMARK    5  A    between atoms: N_7  and  C_11
REMARK    6  A    between atoms: N_7  and  C_20
REMARK    7  A    between atoms: C_19  and  C_21
REMARK    8  A    between atoms: C_20  and  C_22
REMARK                            x       y       z     vdW  Elec       q    Type
REMARK                         _______ _______ _______ _____ _____    ______ ____
ROOT
ATOM      1  O   UNL     1     -10.143 -13.276  18.029  0.00  0.00    -0.343 OA
ATOM      2  O   UNL     1     -11.721 -11.968  19.114  0.00  0.00    -0.347 OA
ATOM      9  C   UNL     1      -9.770 -10.895  18.171  0.00  0.00    +0.143 C 
ATOM     10  C   UNL     1      -9.000 -11.079  19.499  0.00  0.00    +0.156 C 
ATOM     11  C   UNL     1      -8.793 -12.559  19.903  0.00  0.00    +0.116 C 
ATOM     12  C   UNL     1     -10.817 -12.011  17.997  0.00  0.00    +0.270 C 
ATOM     13  C   UNL     1      -9.952 -13.470  19.435  0.00  0.00    +0.166 C 
ATOM     14  C   UNL     1     -11.317 -13.057  19.957  0.00  0.00    +0.196 C 
ENDROOT
BRANCH   9   6
ATOM      6  N   UNL     1      -8.849 -10.893  17.034  0.00  0.00    -0.293 NA
ATOM     15  C   UNL     1      -9.589 -11.037  15.772  0.00  0.00    +0.085 C 
ATOM     16  C   UNL     1      -8.034  -9.669  17.034  0.00  0.00    +0.085 C 
ATOM     17  C   UNL     1      -8.635 -11.092  14.577  0.00  0.00    +0.028 C 
ATOM     18  C   UNL     1      -7.028  -9.677  15.883  0.00  0.00    +0.028 C 
ATOM     19  C   UNL     1      -7.726  -9.864  14.537  0.00  0.00    +0.077 C 
BRANCH  19  21
ATOM      4  O   UNL     1      -6.011 -11.025  13.346  0.00  0.00    -0.276 OA
ATOM      8  N   UNL     1      -6.601  -8.920  12.630  0.00  0.00    -0.329 N 
ATOM     21  C   UNL     1      -6.701 -10.015  13.456  0.00  0.00    +0.214 C 
ATOM     31  H   UNL     1      -7.175  -8.091  12.752  0.00  0.00    +0.145 HD
ATOM     32  H   UNL     1      -5.937  -8.904  11.863  0.00  0.00    +0.145 HD
ENDBRANCH  19  21
ENDBRANCH   9   6
BRANCH  10   3
ATOM      3  O   UNL     1      -9.754 -10.426  20.531  0.00  0.00    -0.388 OA
ATOM     30  H   UNL     1      -9.600 -10.913  21.359  0.00  0.00    +0.210 HD
ENDBRANCH  10   3
BRANCH  11   7
ATOM      7  N   UNL     1      -7.545 -13.079  19.333  0.00  0.00    -0.305 NA
ATOM     29  H   UNL     1      -7.686 -13.302  18.348  0.00  0.00    +0.123 HD
BRANCH   7  20
ATOM     20  C   UNL     1      -6.474 -12.109  19.482  0.00  0.00    +0.116 C 
BRANCH  20  22
ATOM     22  C   UNL     1      -5.585 -12.065  18.268  0.00  0.00    -0.033 A 
ATOM     23  C   UNL     1      -5.801 -12.950  17.212  0.00  0.00    +0.008 A 
ATOM     24  C   UNL     1      -4.547 -11.136  18.198  0.00  0.00    +0.008 A 
ATOM     25  C   UNL     1      -4.978 -12.907  16.086  0.00  0.00    +0.046 A 
ATOM     26  C   UNL     1      -3.724 -11.093  17.072  0.00  0.00    +0.046 A 
ATOM     27  C   UNL     1      -3.940 -11.979  16.017  0.00  0.00    +0.120 A 
BRANCH  27   5
ATOM      5  O   UNL     1      -3.138 -11.937  14.917  0.00  0.00    -0.495 OA
ATOM     28  C   UNL     1      -2.532 -10.683  14.604  0.00  0.00    +0.277 C 
ENDBRANCH  27   5
ENDBRANCH  20  22
ENDBRANCH   7  20
ENDBRANCH  11   7
TORSDOF 7
ENDMDL
MODEL 7
REMARK VINA RESULT:      -5.4     25.427     28.775
REMARK  Name = 28960500
REMARK  8 active torsions:
REMARK  status: ('A' for Active; 'I' for Inactive)
REMARK    1  A    between atoms: O_3  and  C_10
REMARK    2  A    between atoms: O_5  and  C_27
REMARK    3  A    between atoms: O_5  and  C_28
REMARK    4  A    between atoms: N_6  and  C_9
REMARK    5  A    between atoms: N_7  and  C_11
REMARK    6  A    between atoms: N_7  and  C_20
REMARK    7  A    between atoms: C_19  and  C_21
REMARK    8  A    between atoms: C_20  and  C_22
REMARK                            x       y       z     vdW  Elec       q    Type
REMARK                         _______ _______ _______ _____ _____    ______ ____
ROOT
ATOM      1  O   UNL     1      10.242   5.684   6.860  0.00  0.00    -0.343 OA
ATOM      2  O   UNL     1       8.279   6.853   6.464  0.00  0.00    -0.347 OA
ATOM      9  C   UNL     1       9.964   6.786   4.730  0.00  0.00    +0.143 C 
ATOM     10  C   UNL     1      10.621   8.068   5.291  0.00  0.00    +0.156 C 
ATOM     11  C   UNL     1      11.168   7.914   6.731  0.00  0.00    +0.116 C 
ATOM     12  C   UNL     1       9.267   6.002   5.858  0.00  0.00    +0.270 C 
ATOM     13  C   UNL     1      10.339   6.920   7.577  0.00  0.00    +0.166 C 
ATOM     14  C   UNL     1       8.870   7.282   7.700  0.00  0.00    +0.196 C 
ENDROOT
BRANCH   9   6
ATOM      6  N   UNL     1      10.958   5.938   4.073  0.00  0.00    -0.293 NA
ATOM     15  C   UNL     1      10.310   4.780   3.441  0.00  0.00    +0.085 C 
ATOM     16  C   UNL     1      11.729   6.715   3.092  0.00  0.00    +0.085 C 
ATOM     17  C   UNL     1      11.343   3.854   2.797  0.00  0.00    +0.028 C 
ATOM     18  C   UNL     1      12.810   5.856   2.435  0.00  0.00    +0.028 C 
ATOM     19  C   UNL     1      12.211   4.607   1.790  0.00  0.00    +0.077 C 
BRANCH  19  21
ATOM      4  O   UNL     1      13.179   3.018   0.293  0.00  0.00    -0.276 OA
ATOM      8  N   UNL     1      14.449   3.766   2.059  0.00  0.00    -0.329 N 
ATOM     21  C   UNL     1      13.311   3.722   1.290  0.00  0.00    +0.214 C 
ATOM     31  H   UNL     1      14.526   4.348   2.887  0.00  0.00    +0.145 HD
ATOM     32  H   UNL     1      15.260   3.205   1.821  0.00  0.00    +0.145 HD
ENDBRANCH  19  21
ENDBRANCH   9   6
BRANCH  10   3
ATOM      3  O   UNL     1       9.627   9.102   5.290  0.00  0.00    -0.388 OA
ATOM     30  H   UNL     1       8.770   8.686   5.089  0.00  0.00    +0.210 HD
ENDBRANCH  10   3
BRANCH  11   7
ATOM      7  N   UNL     1      12.558   7.445   6.707  0.00  0.00    -0.305 NA
ATOM     29  H   UNL     1      12.748   6.983   5.817  0.00  0.00    +0.123 HD
BRANCH   7  20
ATOM     20  C   UNL     1      13.474   8.555   6.903  0.00  0.00    +0.116 C 
BRANCH  20  22
ATOM     22  C   UNL     1      14.697   8.432   6.033  0.00  0.00    -0.033 A 
ATOM     23  C   UNL     1      14.773   7.424   5.073  0.00  0.00    +0.008 A 
ATOM     24  C   UNL     1      15.754   9.330   6.187  0.00  0.00    +0.008 A 
ATOM     25  C   UNL     1      15.905   7.313   4.266  0.00  0.00    +0.046 A 
ATOM     26  C   UNL     1      16.886   9.218   5.380  0.00  0.00    +0.046 A 
ATOM     27  C   UNL     1      16.962   8.209   4.420  0.00  0.00    +0.120 A 
BRANCH  27   5
ATOM      5  O   UNL     1      18.067   8.101   3.632  0.00  0.00    -0.495 OA
ATOM     28  C   UNL     1      19.329   8.019   4.292  0.00  0.00    +0.277 C 
ENDBRANCH  27   5
ENDBRANCH  20  22
ENDBRANCH   7  20
ENDBRANCH  11   7
TORSDOF 7
ENDMDL
MODEL 8
REMARK VINA RESULT:      -5.3     23.394     27.259
REMARK  Name = 28960500
REMARK  8 active torsions:
REMARK  status: ('A' for Active; 'I' for Inactive)
REMARK    1  A    between atoms: O_3  and  C_10
REMARK    2  A    between atoms: O_5  and  C_27
REMARK    3  A    between atoms: O_5  and  C_28
REMARK    4  A    between atoms: N_6  and  C_9
REMARK    5  A    between atoms: N_7  and  C_11
REMARK    6  A    between atoms: N_7  and  C_20
REMARK    7  A    between atoms: C_19  and  C_21
REMARK    8  A    between atoms: C_20  and  C_22
REMARK                            x       y       z     vdW  Elec       q    Type
REMARK                         _______ _______ _______ _____ _____    ______ ____
ROOT
ATOM      1  O   UNL     1      11.494   8.889   4.674  0.00  0.00    -0.343 OA
ATOM      2  O   UNL     1       9.812  10.059   3.588  0.00  0.00    -0.347 OA
ATOM      9  C   UNL     1       9.218   8.118   4.903  0.00  0.00    +0.143 C 
ATOM     10  C   UNL     1       9.387   7.203   3.668  0.00  0.00    +0.156 C 
ATOM     11  C   UNL     1      10.826   7.182   3.095  0.00  0.00    +0.116 C 
ATOM     12  C   UNL     1      10.141   9.346   4.793  0.00  0.00    +0.270 C 
ATOM     13  C   UNL     1      11.561   8.529   3.289  0.00  0.00    +0.166 C 
ATOM     14  C   UNL     1      10.855   9.718   2.662  0.00  0.00    +0.196 C 
ENDROOT
BRANCH   9   6
ATOM      6  N   UNL     1       9.508   7.384   6.135  0.00  0.00    -0.293 NA
ATOM     15  C   UNL     1       8.874   8.041   7.286  0.00  0.00    +0.085 C 
ATOM     16  C   UNL     1       9.073   5.985   6.015  0.00  0.00    +0.085 C 
ATOM     17  C   UNL     1       9.214   7.317   8.590  0.00  0.00    +0.028 C 
ATOM     18  C   UNL     1       9.418   5.191   7.275  0.00  0.00    +0.028 C 
ATOM     19  C   UNL     1       8.823   5.841   8.523  0.00  0.00    +0.077 C 
BRANCH  19  21
ATOM      4  O   UNL     1      10.488   4.836   9.909  0.00  0.00    -0.276 OA
ATOM      8  N   UNL     1       8.304   4.803  10.631  0.00  0.00    -0.329 N 
ATOM     21  C   UNL     1       9.305   5.121   9.744  0.00  0.00    +0.214 C 
ATOM     31  H   UNL     1       7.331   5.040  10.464  0.00  0.00    +0.145 HD
ATOM     32  H   UNL     1       8.509   4.311  11.494  0.00  0.00    +0.145 HD
ENDBRANCH  19  21
ENDBRANCH   9   6
BRANCH  10   3
ATOM      3  O   UNL     1       8.499   7.682   2.649  0.00  0.00    -0.388 OA
ATOM     30  H   UNL     1       7.606   7.359   2.860  0.00  0.00    +0.210 HD
ENDBRANCH  10   3
BRANCH  11   7
ATOM      7  N   UNL     1      11.622   6.131   3.740  0.00  0.00    -0.305 NA
ATOM     29  H   UNL     1      11.616   6.270   4.751  0.00  0.00    +0.123 HD
BRANCH   7  20
ATOM     20  C   UNL     1      11.096   4.818   3.408  0.00  0.00    +0.116 C 
BRANCH  20  22
ATOM     22  C   UNL     1      11.562   4.355   2.054  0.00  0.00    -0.033 A 
ATOM     23  C   UNL     1      10.709   4.441   0.954  0.00  0.00    +0.008 A 
ATOM     24  C   UNL     1      12.850   3.841   1.899  0.00  0.00    +0.008 A 
ATOM     25  C   UNL     1      11.142   4.014  -0.301  0.00  0.00    +0.046 A 
ATOM     26  C   UNL     1      13.283   3.413   0.644  0.00  0.00    +0.046 A 
ATOM     27  C   UNL     1      12.429   3.500  -0.456  0.00  0.00    +0.120 A 
BRANCH  27   5
ATOM      5  O   UNL     1      12.852   3.083  -1.681  0.00  0.00    -0.495 OA
ATOM     28  C   UNL     1      11.963   2.253  -2.427  0.00  0.00    +0.277 C 
ENDBRANCH  27   5
ENDBRANCH  20  22
ENDBRANCH   7  20
ENDBRANCH  11   7
TORSDOF 7
ENDMDL
MODEL 9
REMARK VINA RESULT:      -5.2     24.630     28.702
REMARK  Name = 28960500
REMARK  8 active torsions:
REMARK  status: ('A' for Active; 'I' for Inactive)
REMARK    1  A    between atoms: O_3  and  C_10
REMARK    2  A    between atoms: O_5  and  C_27
REMARK    3  A    between atoms: O_5  and  C_28
REMARK    4  A    between atoms: N_6  and  C_9
REMARK    5  A    between atoms: N_7  and  C_11
REMARK    6  A    between atoms: N_7  and  C_20
REMARK    7  A    between atoms: C_19  and  C_21
REMARK    8  A    between atoms: C_20  and  C_22
REMARK                            x       y       z     vdW  Elec       q    Type
REMARK                         _______ _______ _______ _____ _____    ______ ____
ROOT
ATOM      1  O   UNL     1      14.428   6.844   3.786  0.00  0.00    -0.343 OA
ATOM      2  O   UNL     1      13.947   8.879   2.784  0.00  0.00    -0.347 OA
ATOM      9  C   UNL     1      12.128   7.571   3.696  0.00  0.00    +0.143 C 
ATOM     10  C   UNL     1      11.938   6.852   2.341  0.00  0.00    +0.156 C 
ATOM     11  C   UNL     1      13.168   6.026   1.891  0.00  0.00    +0.116 C 
ATOM     12  C   UNL     1      13.595   8.007   3.872  0.00  0.00    +0.270 C 
ATOM     13  C   UNL     1      14.503   6.641   2.370  0.00  0.00    +0.166 C 
ATOM     14  C   UNL     1      14.735   8.066   1.901  0.00  0.00    +0.196 C 
ENDROOT
BRANCH   9   6
ATOM      6  N   UNL     1      11.729   6.703   4.804  0.00  0.00    -0.293 NA
ATOM     15  C   UNL     1      11.824   7.423   6.081  0.00  0.00    +0.085 C 
ATOM     16  C   UNL     1      10.370   6.185   4.587  0.00  0.00    +0.085 C 
ATOM     17  C   UNL     1      11.463   6.512   7.256  0.00  0.00    +0.028 C 
ATOM     18  C   UNL     1       9.958   5.232   5.710  0.00  0.00    +0.028 C 
ATOM     19  C   UNL     1      10.072   5.903   7.077  0.00  0.00    +0.077 C 
BRANCH  19  21
ATOM      4  O   UNL     1       9.258   5.204   9.211  0.00  0.00    -0.276 OA
ATOM      8  N   UNL     1      10.244   3.631   7.852  0.00  0.00    -0.329 N 
ATOM     21  C   UNL     1       9.805   4.898   8.155  0.00  0.00    +0.214 C 
ATOM     31  H   UNL     1      10.705   3.409   6.975  0.00  0.00    +0.145 HD
ATOM     32  H   UNL     1      10.122   2.867   8.507  0.00  0.00    +0.145 HD
ENDBRANCH  19  21
ENDBRANCH   9   6
BRANCH  10   3
ATOM      3  O   UNL     1      11.678   7.857   1.350  0.00  0.00    -0.388 OA
ATOM     30  H   UNL     1      10.954   8.416   1.681  0.00  0.00    +0.210 HD
ENDBRANCH  10   3
BRANCH  11   7
ATOM      7  N   UNL     1      13.085   4.655   2.409  0.00  0.00    -0.305 NA
ATOM     29  H   UNL     1      12.140   4.295   2.272  0.00  0.00    +0.123 HD
BRANCH   7  20
ATOM     20  C   UNL     1      14.051   3.799   1.743  0.00  0.00    +0.116 C 
BRANCH  20  22
ATOM     22  C   UNL     1      13.833   3.762   0.253  0.00  0.00    -0.033 A 
ATOM     23  C   UNL     1      12.658   3.222  -0.268  0.00  0.00    +0.008 A 
ATOM     24  C   UNL     1      14.809   4.270  -0.605  0.00  0.00    +0.008 A 
ATOM     25  C   UNL     1      12.456   3.191  -1.648  0.00  0.00    +0.046 A 
ATOM     26  C   UNL     1      14.607   4.238  -1.985  0.00  0.00    +0.046 A 
ATOM     27  C   UNL     1      13.431   3.698  -2.506  0.00  0.00    +0.120 A 
BRANCH  27   5
ATOM      5  O   UNL     1      13.234   3.668  -3.853  0.00  0.00    -0.495 OA
ATOM     28  C   UNL     1      11.948   3.254  -4.311  0.00  0.00    +0.277 C 
ENDBRANCH  27   5
ENDBRANCH  20  22
ENDBRANCH   7  20
ENDBRANCH  11   7
TORSDOF 7
ENDMDL
MODEL 10
REMARK VINA RESULT:      -5.2      3.371      6.298
REMARK  Name = 28960500
REMARK  8 active torsions:
REMARK  status: ('A' for Active; 'I' for Inactive)
REMARK    1  A    between atoms: O_3  and  C_10
REMARK    2  A    between atoms: O_5  and  C_27
REMARK    3  A    between atoms: O_5  and  C_28
REMARK    4  A    between atoms: N_6  and  C_9
REMARK    5  A    between atoms: N_7  and  C_11
REMARK    6  A    between atoms: N_7  and  C_20
REMARK    7  A    between atoms: C_19  and  C_21
REMARK    8  A    between atoms: C_20  and  C_22
REMARK                            x       y       z     vdW  Elec       q    Type
REMARK                         _______ _______ _______ _____ _____    ______ ____
ROOT
ATOM      1  O   UNL     1      -4.966 -10.278  17.835  0.00  0.00    -0.343 OA
ATOM      2  O   UNL     1      -4.376 -12.082  19.167  0.00  0.00    -0.347 OA
ATOM      9  C   UNL     1      -4.242 -12.317  16.764  0.00  0.00    +0.143 C 
ATOM     10  C   UNL     1      -5.701 -12.826  16.712  0.00  0.00    +0.156 C 
ATOM     11  C   UNL     1      -6.744 -11.791  17.204  0.00  0.00    +0.116 C 
ATOM     12  C   UNL     1      -4.046 -11.370  17.963  0.00  0.00    +0.270 C 
ATOM     13  C   UNL     1      -6.184 -10.865  18.307  0.00  0.00    +0.166 C 
ATOM     14  C   UNL     1      -5.676 -11.597  19.537  0.00  0.00    +0.196 C 
ENDROOT
BRANCH   9   6
ATOM      6  N   UNL     1      -3.887 -11.631  15.522  0.00  0.00    -0.293 NA
ATOM     15  C   UNL     1      -2.469 -11.244  15.536  0.00  0.00    +0.085 C 
ATOM     16  C   UNL     1      -4.194 -12.478  14.361  0.00  0.00    +0.085 C 
ATOM     17  C   UNL     1      -2.095 -10.476  14.266  0.00  0.00    +0.028 C 
ATOM     18  C   UNL     1      -3.879 -11.754  13.051  0.00  0.00    +0.028 C 
ATOM     19  C   UNL     1      -2.426 -11.284  13.012  0.00  0.00    +0.077 C 
BRANCH  19  21
ATOM      4  O   UNL     1      -1.228  -9.710  11.674  0.00  0.00    -0.276 OA
ATOM      8  N   UNL     1      -3.177 -10.596  10.832  0.00  0.00    -0.329 N 
ATOM     21  C   UNL     1      -2.198 -10.455  11.787  0.00  0.00    +0.214 C 
ATOM     31  H   UNL     1      -3.976 -11.210  10.957  0.00  0.00    +0.145 HD
ATOM     32  H   UNL     1      -3.133 -10.080   9.960  0.00  0.00    +0.145 HD
ENDBRANCH  19  21
ENDBRANCH   9   6
BRANCH  10   3
ATOM      3  O   UNL     1      -5.785 -13.989  17.546  0.00  0.00    -0.388 OA
ATOM     30  H   UNL     1      -6.725 -14.137  17.750  0.00  0.00    +0.210 HD
ENDBRANCH  10   3
BRANCH  11   7
ATOM      7  N   UNL     1      -7.201 -10.952  16.090  0.00  0.00    -0.305 NA
ATOM     29  H   UNL     1      -6.706 -11.215  15.238  0.00  0.00    +0.123 HD
BRANCH   7  20
ATOM     20  C   UNL     1      -8.635 -11.090  15.903  0.00  0.00    +0.116 C 
BRANCH  20  22
ATOM     22  C   UNL     1      -9.340  -9.762  15.976  0.00  0.00    -0.033 A 
ATOM     23  C   UNL     1      -9.198  -8.956  17.105  0.00  0.00    +0.008 A 
ATOM     24  C   UNL     1     -10.133  -9.336  14.910  0.00  0.00    +0.008 A 
ATOM     25  C   UNL     1      -9.850  -7.725  17.171  0.00  0.00    +0.046 A 
ATOM     26  C   UNL     1     -10.784  -8.104  14.975  0.00  0.00    +0.046 A 
ATOM     27  C   UNL     1     -10.643  -7.299  16.106  0.00  0.00    +0.120 A 
BRANCH  27   5
ATOM      5  O   UNL     1     -11.278  -6.096  16.169  0.00  0.00    -0.495 OA
ATOM     28  C   UNL     1     -12.267  -5.832  15.175  0.00  0.00    +0.277 C 
ENDBRANCH  27   5
ENDBRANCH  20  22
ENDBRANCH   7  20
ENDBRANCH  11   7
TORSDOF 7
ENDMDL
