MODEL 1
REMARK VINA RESULT:      -7.2      0.000      0.000
REMARK  Name = 7674707
REMARK  6 active torsions:
REMARK  status: ('A' for Active; 'I' for Inactive)
REMARK    1  A    between atoms: O_6  and  C_32
REMARK    2  A    between atoms: O_6  and  C_34
REMARK    3  A    between atoms: O_7  and  C_33
REMARK    4  A    between atoms: O_7  and  C_35
REMARK    5  A    between atoms: C_19  and  C_22
REMARK    6  A    between atoms: C_20  and  C_23
REMARK                            x       y       z     vdW  Elec       q    Type
REMARK                         _______ _______ _______ _____ _____    ______ ____
ROOT
ATOM      4  O   UNL     1     -13.099  10.068  20.531  0.00  0.00    -0.267 OA
ATOM      5  O   UNL     1     -14.396  11.950  15.967  0.00  0.00    -0.270 OA
ATOM      8  N   UNL     1     -12.061  11.828  16.001  0.00  0.00    -0.297 N 
ATOM      9  N   UNL     1     -11.574  10.483  18.816  0.00  0.00    -0.311 N 
ATOM     10  C   UNL     1     -11.016  12.851  18.012  0.00  0.00    +0.027 C 
ATOM     11  C   UNL     1      -9.952  10.909  16.938  0.00  0.00    +0.054 C 
ATOM     12  C   UNL     1      -9.673  12.249  17.615  0.00  0.00    +0.018 C 
ATOM     13  C   UNL     1     -11.898  13.063  16.768  0.00  0.00    +0.113 C 
ATOM     14  C   UNL     1     -11.683  11.932  19.043  0.00  0.00    +0.130 C 
ATOM     15  C   UNL     1     -10.803  11.137  15.670  0.00  0.00    +0.117 C 
ATOM     16  C   UNL     1     -10.682   9.965  17.873  0.00  0.00    +0.027 A 
ATOM     17  C   UNL     1     -10.508   8.638  17.768  0.00  0.00    +0.022 A 
ATOM     18  C   UNL     1     -12.329   9.650  19.666  0.00  0.00    +0.259 A 
ATOM     19  C   UNL     1     -13.345  11.374  15.692  0.00  0.00    +0.247 C 
ATOM     20  C   UNL     1     -12.146   8.167  19.490  0.00  0.00    +0.047 A 
ATOM     21  C   UNL     1     -11.256   7.728  18.587  0.00  0.00    +0.015 A 
ENDROOT
BRANCH  19  22
ATOM     22  C   UNL     1     -13.473  10.088  15.000  0.00  0.00    +0.037 A 
ATOM     24  C   UNL     1     -13.358  10.033  13.613  0.00  0.00    +0.016 A 
ATOM     25  C   UNL     1     -13.710   8.926  15.732  0.00  0.00    +0.016 A 
ATOM     28  C   UNL     1     -13.480   8.810  12.955  0.00  0.00    +0.046 A 
ATOM     29  C   UNL     1     -13.832   7.703  15.073  0.00  0.00    +0.046 A 
ATOM     32  C   UNL     1     -13.716   7.645  13.684  0.00  0.00    +0.120 A 
BRANCH  32   6
ATOM      6  O   UNL     1     -13.834   6.451  13.042  0.00  0.00    -0.495 OA
ATOM     34  C   UNL     1     -15.106   6.141  12.473  0.00  0.00    +0.277 C 
ENDBRANCH  32   6
ENDBRANCH  19  22
BRANCH  20  23
ATOM     23  C   UNL     1     -12.934   7.203  20.277  0.00  0.00    -0.012 A 
ATOM     26  C   UNL     1     -14.313   7.107  20.085  0.00  0.00    +0.012 A 
ATOM     27  C   UNL     1     -12.303   6.385  21.214  0.00  0.00    +0.012 A 
ATOM     30  C   UNL     1     -15.059   6.195  20.830  0.00  0.00    +0.046 A 
ATOM     31  C   UNL     1     -13.049   5.471  21.959  0.00  0.00    +0.046 A 
ATOM     33  C   UNL     1     -14.428   5.376  21.767  0.00  0.00    +0.130 A 
BRANCH  33   7
ATOM      7  O   UNL     1     -15.156   4.487  22.494  0.00  0.00    -0.406 OA
BRANCH   7  35
ATOM      1  F   UNL     1     -17.120   4.714  23.584  0.00  0.00    -0.133 F 
ATOM      2  F   UNL     1     -15.333   4.289  24.766  0.00  0.00    -0.133 F 
ATOM      3  F   UNL     1     -15.614   6.276  23.842  0.00  0.00    -0.133 F 
ATOM     35  C   UNL     1     -15.792   4.948  23.682  0.00  0.00    +0.575 C 
ENDBRANCH   7  35
ENDBRANCH  33   7
ENDBRANCH  20  23
TORSDOF 5
ENDMDL
MODEL 2
REMARK VINA RESULT:      -7.0     27.661     29.968
REMARK  Name = 7674707
REMARK  6 active torsions:
REMARK  status: ('A' for Active; 'I' for Inactive)
REMARK    1  A    between atoms: O_6  and  C_32
REMARK    2  A    between atoms: O_6  and  C_34
REMARK    3  A    between atoms: O_7  and  C_33
REMARK    4  A    between atoms: O_7  and  C_35
REMARK    5  A    between atoms: C_19  and  C_22
REMARK    6  A    between atoms: C_20  and  C_23
REMARK                            x       y       z     vdW  Elec       q    Type
REMARK                         _______ _______ _______ _____ _____    ______ ____
ROOT
ATOM      4  O   UNL     1      10.594   3.825   3.143  0.00  0.00    -0.267 OA
ATOM      5  O   UNL     1      15.352   3.928   1.296  0.00  0.00    -0.270 OA
ATOM      8  N   UNL     1      14.011   5.065  -0.246  0.00  0.00    -0.297 N 
ATOM      9  N   UNL     1      11.219   4.999   1.228  0.00  0.00    -0.311 N 
ATOM     10  C   UNL     1      11.965   3.827  -0.926  0.00  0.00    +0.027 C 
ATOM     11  C   UNL     1      11.926   6.286  -0.819  0.00  0.00    +0.054 C 
ATOM     12  C   UNL     1      11.444   5.079  -1.622  0.00  0.00    +0.018 C 
ATOM     13  C   UNL     1      13.504   3.844  -0.871  0.00  0.00    +0.113 C 
ATOM     14  C   UNL     1      11.338   3.743   0.472  0.00  0.00    +0.130 C 
ATOM     15  C   UNL     1      13.469   6.316  -0.804  0.00  0.00    +0.117 C 
ATOM     16  C   UNL     1      11.407   6.236   0.605  0.00  0.00    +0.027 A 
ATOM     17  C   UNL     1      11.173   7.373   1.280  0.00  0.00    +0.022 A 
ATOM     18  C   UNL     1      10.804   4.895   2.570  0.00  0.00    +0.259 A 
ATOM     19  C   UNL     1      14.898   4.971   0.829  0.00  0.00    +0.247 C 
ATOM     20  C   UNL     1      10.596   6.186   3.313  0.00  0.00    +0.047 A 
ATOM     21  C   UNL     1      10.766   7.344   2.656  0.00  0.00    +0.015 A 
ENDROOT
BRANCH  19  22
ATOM     22  C   UNL     1      15.317   6.212   1.488  0.00  0.00    +0.037 A 
ATOM     24  C   UNL     1      16.373   6.953   0.963  0.00  0.00    +0.016 A 
ATOM     25  C   UNL     1      14.657   6.645   2.637  0.00  0.00    +0.016 A 
ATOM     28  C   UNL     1      16.771   8.134   1.589  0.00  0.00    +0.046 A 
ATOM     29  C   UNL     1      15.057   7.826   3.263  0.00  0.00    +0.046 A 
ATOM     32  C   UNL     1      16.113   8.570   2.739  0.00  0.00    +0.120 A 
BRANCH  32   6
ATOM      6  O   UNL     1      16.501   9.723   3.349  0.00  0.00    -0.495 OA
ATOM     34  C   UNL     1      15.894  10.030   4.604  0.00  0.00    +0.277 C 
ENDBRANCH  32   6
ENDBRANCH  19  22
BRANCH  20  23
ATOM     23  C   UNL     1      10.228   6.195   4.739  0.00  0.00    -0.012 A 
ATOM     26  C   UNL     1      11.223   6.203   5.717  0.00  0.00    +0.012 A 
ATOM     27  C   UNL     1       8.884   6.197   5.113  0.00  0.00    +0.012 A 
ATOM     30  C   UNL     1      10.875   6.211   7.067  0.00  0.00    +0.046 A 
ATOM     31  C   UNL     1       8.536   6.205   6.464  0.00  0.00    +0.046 A 
ATOM     33  C   UNL     1       9.531   6.213   7.441  0.00  0.00    +0.130 A 
BRANCH  33   7
ATOM      7  O   UNL     1       9.192   6.220   8.758  0.00  0.00    -0.406 OA
BRANCH   7  35
ATOM      1  F   UNL     1       8.293   4.860  10.321  0.00  0.00    -0.133 F 
ATOM      2  F   UNL     1       9.418   3.945   8.687  0.00  0.00    -0.133 F 
ATOM      3  F   UNL     1      10.467   5.073  10.271  0.00  0.00    -0.133 F 
ATOM     35  C   UNL     1       9.358   5.018   9.503  0.00  0.00    +0.575 C 
ENDBRANCH   7  35
ENDBRANCH  33   7
ENDBRANCH  20  23
TORSDOF 5
ENDMDL
MODEL 3
REMARK VINA RESULT:      -7.0     18.814     21.530
REMARK  Name = 7674707
REMARK  6 active torsions:
REMARK  status: ('A' for Active; 'I' for Inactive)
REMARK    1  A    between atoms: O_6  and  C_32
REMARK    2  A    between atoms: O_6  and  C_34
REMARK    3  A    between atoms: O_7  and  C_33
REMARK    4  A    between atoms: O_7  and  C_35
REMARK    5  A    between atoms: C_19  and  C_22
REMARK    6  A    between atoms: C_20  and  C_23
REMARK                            x       y       z     vdW  Elec       q    Type
REMARK                         _______ _______ _______ _____ _____    ______ ____
ROOT
ATOM      4  O   UNL     1      -6.589 -13.231  15.233  0.00  0.00    -0.267 OA
ATOM      5  O   UNL     1     -11.432 -12.206  16.481  0.00  0.00    -0.270 OA
ATOM      8  N   UNL     1     -10.138 -11.725  18.370  0.00  0.00    -0.297 N 
ATOM      9  N   UNL     1      -7.233 -12.268  17.257  0.00  0.00    -0.311 N 
ATOM     10  C   UNL     1      -8.577 -13.545  19.026  0.00  0.00    +0.027 C 
ATOM     11  C   UNL     1      -7.951 -11.198  19.421  0.00  0.00    +0.054 C 
ATOM     12  C   UNL     1      -7.902 -12.603  20.017  0.00  0.00    +0.018 C 
ATOM     13  C   UNL     1     -10.038 -13.122  18.792  0.00  0.00    +0.113 C 
ATOM     14  C   UNL     1      -7.764 -13.557  17.725  0.00  0.00    +0.130 C 
ATOM     15  C   UNL     1      -9.420 -10.768  19.228  0.00  0.00    +0.117 C 
ATOM     16  C   UNL     1      -7.229 -11.144  18.088  0.00  0.00    +0.027 A 
ATOM     17  C   UNL     1      -6.629 -10.011  17.688  0.00  0.00    +0.022 A 
ATOM     18  C   UNL     1      -6.636 -12.254  15.981  0.00  0.00    +0.259 A 
ATOM     19  C   UNL     1     -10.831 -11.408  17.199  0.00  0.00    +0.247 C 
ATOM     20  C   UNL     1      -6.014 -10.956  15.542  0.00  0.00    +0.047 A 
ATOM     21  C   UNL     1      -6.018  -9.918  16.393  0.00  0.00    +0.015 A 
ENDROOT
BRANCH  19  22
ATOM     22  C   UNL     1     -10.836 -10.010  16.757  0.00  0.00    +0.037 A 
ATOM     24  C   UNL     1      -9.817  -9.540  15.932  0.00  0.00    +0.016 A 
ATOM     25  C   UNL     1     -11.860  -9.157  17.165  0.00  0.00    +0.016 A 
ATOM     28  C   UNL     1      -9.822  -8.211  15.512  0.00  0.00    +0.046 A 
ATOM     29  C   UNL     1     -11.863  -7.827  16.744  0.00  0.00    +0.046 A 
ATOM     32  C   UNL     1     -10.845  -7.354  15.917  0.00  0.00    +0.120 A 
BRANCH  32   6
ATOM      6  O   UNL     1     -10.850  -6.057  15.506  0.00  0.00    -0.495 OA
ATOM     34  C   UNL     1     -11.910  -5.655  14.640  0.00  0.00    +0.277 C 
ENDBRANCH  32   6
ENDBRANCH  19  22
BRANCH  20  23
ATOM     23  C   UNL     1      -5.424 -10.808  14.202  0.00  0.00    -0.012 A 
ATOM     26  C   UNL     1      -4.038 -10.823  14.043  0.00  0.00    +0.012 A 
ATOM     27  C   UNL     1      -6.250 -10.653  13.088  0.00  0.00    +0.012 A 
ATOM     30  C   UNL     1      -3.479 -10.683  12.773  0.00  0.00    +0.046 A 
ATOM     31  C   UNL     1      -5.691 -10.514  11.818  0.00  0.00    +0.046 A 
ATOM     33  C   UNL     1      -4.305 -10.528  11.660  0.00  0.00    +0.130 A 
BRANCH  33   7
ATOM      7  O   UNL     1      -3.760 -10.390  10.422  0.00  0.00    -0.406 OA
BRANCH   7  35
ATOM      1  F   UNL     1      -4.142  -8.180  10.676  0.00  0.00    -0.133 F 
ATOM      2  F   UNL     1      -2.109  -8.824  10.203  0.00  0.00    -0.133 F 
ATOM      3  F   UNL     1      -3.696  -8.922   8.670  0.00  0.00    -0.133 F 
ATOM     35  C   UNL     1      -3.414  -9.082   9.980  0.00  0.00    +0.575 C 
ENDBRANCH   7  35
ENDBRANCH  33   7
ENDBRANCH  20  23
TORSDOF 5
ENDMDL
MODEL 4
REMARK VINA RESULT:      -6.9     29.527     31.425
REMARK  Name = 7674707
REMARK  6 active torsions:
REMARK  status: ('A' for Active; 'I' for Inactive)
REMARK    1  A    between atoms: O_6  and  C_32
REMARK    2  A    between atoms: O_6  and  C_34
REMARK    3  A    between atoms: O_7  and  C_33
REMARK    4  A    between atoms: O_7  and  C_35
REMARK    5  A    between atoms: C_19  and  C_22
REMARK    6  A    between atoms: C_20  and  C_23
REMARK                            x       y       z     vdW  Elec       q    Type
REMARK                         _______ _______ _______ _____ _____    ______ ____
ROOT
ATOM      4  O   UNL     1       9.510  -9.358  32.462  0.00  0.00    -0.267 OA
ATOM      5  O   UNL     1       9.080  -8.136  37.400  0.00  0.00    -0.270 OA
ATOM      8  N   UNL     1       8.517  -6.218  36.184  0.00  0.00    -0.297 N 
ATOM      9  N   UNL     1       8.691  -7.313  33.227  0.00  0.00    -0.311 N 
ATOM     10  C   UNL     1      10.169  -5.601  34.432  0.00  0.00    +0.027 C 
ATOM     11  C   UNL     1       7.780  -5.126  34.079  0.00  0.00    +0.054 C 
ATOM     12  C   UNL     1       9.189  -4.574  33.876  0.00  0.00    +0.018 C 
ATOM     13  C   UNL     1       9.906  -5.839  35.930  0.00  0.00    +0.113 C 
ATOM     14  C   UNL     1      10.047  -6.892  33.612  0.00  0.00    +0.130 C 
ATOM     15  C   UNL     1       7.513  -5.322  35.587  0.00  0.00    +0.117 C 
ATOM     16  C   UNL     1       7.602  -6.447  33.358  0.00  0.00    +0.027 A 
ATOM     17  C   UNL     1       6.396  -6.805  32.887  0.00  0.00    +0.022 A 
ATOM     18  C   UNL     1       8.568  -8.581  32.626  0.00  0.00    +0.259 A 
ATOM     19  C   UNL     1       8.243  -7.386  36.900  0.00  0.00    +0.247 C 
ATOM     20  C   UNL     1       7.195  -8.972  32.152  0.00  0.00    +0.047 A 
ATOM     21  C   UNL     1       6.192  -8.089  32.280  0.00  0.00    +0.015 A 
ENDROOT
BRANCH  19  22
ATOM     22  C   UNL     1       6.840  -7.784  37.059  0.00  0.00    +0.037 A 
ATOM     24  C   UNL     1       6.111  -7.326  38.153  0.00  0.00    +0.016 A 
ATOM     25  C   UNL     1       6.244  -8.619  36.116  0.00  0.00    +0.016 A 
ATOM     28  C   UNL     1       4.777  -7.703  38.305  0.00  0.00    +0.046 A 
ATOM     29  C   UNL     1       4.911  -8.996  36.269  0.00  0.00    +0.046 A 
ATOM     32  C   UNL     1       4.176  -8.538  37.363  0.00  0.00    +0.120 A 
BRANCH  32   6
ATOM      6  O   UNL     1       2.875  -8.905  37.510  0.00  0.00    -0.495 OA
ATOM     34  C   UNL     1       2.420 -10.014  36.734  0.00  0.00    +0.277 C 
ENDBRANCH  32   6
ENDBRANCH  19  22
BRANCH  20  23
ATOM     23  C   UNL     1       6.938 -10.300  31.571  0.00  0.00    -0.012 A 
ATOM     26  C   UNL     1       6.454 -11.333  32.376  0.00  0.00    +0.012 A 
ATOM     27  C   UNL     1       7.176 -10.527  30.215  0.00  0.00    +0.012 A 
ATOM     30  C   UNL     1       6.211 -12.591  31.826  0.00  0.00    +0.046 A 
ATOM     31  C   UNL     1       6.931 -11.786  29.665  0.00  0.00    +0.046 A 
ATOM     33  C   UNL     1       6.449 -12.818  30.470  0.00  0.00    +0.130 A 
BRANCH  33   7
ATOM      7  O   UNL     1       6.212 -14.045  29.933  0.00  0.00    -0.406 OA
BRANCH   7  35
ATOM      1  F   UNL     1       4.832 -15.193  28.563  0.00  0.00    -0.133 F 
ATOM      2  F   UNL     1       4.348 -15.130  30.693  0.00  0.00    -0.133 F 
ATOM      3  F   UNL     1       4.097 -13.330  29.437  0.00  0.00    -0.133 F 
ATOM     35  C   UNL     1       4.863 -14.417  29.670  0.00  0.00    +0.575 C 
ENDBRANCH   7  35
ENDBRANCH  33   7
ENDBRANCH  20  23
TORSDOF 5
ENDMDL
MODEL 5
REMARK VINA RESULT:      -6.9     26.856     29.535
REMARK  Name = 7674707
REMARK  6 active torsions:
REMARK  status: ('A' for Active; 'I' for Inactive)
REMARK    1  A    between atoms: O_6  and  C_32
REMARK    2  A    between atoms: O_6  and  C_34
REMARK    3  A    between atoms: O_7  and  C_33
REMARK    4  A    between atoms: O_7  and  C_35
REMARK    5  A    between atoms: C_19  and  C_22
REMARK    6  A    between atoms: C_20  and  C_23
REMARK                            x       y       z     vdW  Elec       q    Type
REMARK                         _______ _______ _______ _____ _____    ______ ____
ROOT
ATOM      4  O   UNL     1      12.652   8.085   3.523  0.00  0.00    -0.267 OA
ATOM      5  O   UNL     1       9.069  11.181   5.429  0.00  0.00    -0.270 OA
ATOM      8  N   UNL     1       8.579   9.031   6.209  0.00  0.00    -0.297 N 
ATOM      9  N   UNL     1      11.020   7.402   5.043  0.00  0.00    -0.311 N 
ATOM     10  C   UNL     1       8.532   7.290   4.435  0.00  0.00    +0.027 C 
ATOM     11  C   UNL     1       9.268   6.698   6.709  0.00  0.00    +0.054 C 
ATOM     12  C   UNL     1       8.464   6.207   5.507  0.00  0.00    +0.018 C 
ATOM     13  C   UNL     1       7.938   8.608   4.965  0.00  0.00    +0.113 C 
ATOM     14  C   UNL     1       9.992   7.452   3.991  0.00  0.00    +0.130 C 
ATOM     15  C   UNL     1       8.639   7.997   7.256  0.00  0.00    +0.117 C 
ATOM     16  C   UNL     1      10.713   6.956   6.331  0.00  0.00    +0.027 A 
ATOM     17  C   UNL     1      11.689   6.800   7.241  0.00  0.00    +0.022 A 
ATOM     18  C   UNL     1      12.336   7.721   4.657  0.00  0.00    +0.259 A 
ATOM     19  C   UNL     1       9.118  10.316   6.302  0.00  0.00    +0.247 C 
ATOM     20  C   UNL     1      13.400   7.582   5.712  0.00  0.00    +0.047 A 
ATOM     21  C   UNL     1      13.051   7.124   6.924  0.00  0.00    +0.015 A 
ENDROOT
BRANCH  19  22
ATOM     22  C   UNL     1       9.832  10.677   7.532  0.00  0.00    +0.037 A 
ATOM     24  C   UNL     1       9.117  11.107   8.647  0.00  0.00    +0.016 A 
ATOM     25  C   UNL     1      11.222  10.588   7.579  0.00  0.00    +0.016 A 
ATOM     28  C   UNL     1       9.795  11.450   9.816  0.00  0.00    +0.046 A 
ATOM     29  C   UNL     1      11.899  10.932   8.748  0.00  0.00    +0.046 A 
ATOM     32  C   UNL     1      11.186  11.362   9.867  0.00  0.00    +0.120 A 
BRANCH  32   6
ATOM      6  O   UNL     1      11.848  11.695  11.008  0.00  0.00    -0.495 OA
ATOM     34  C   UNL     1      11.060  12.160  12.104  0.00  0.00    +0.277 C 
ENDBRANCH  32   6
ENDBRANCH  19  22
BRANCH  20  23
ATOM     23  C   UNL     1      14.798   7.954   5.439  0.00  0.00    -0.012 A 
ATOM     26  C   UNL     1      15.392   9.004   6.140  0.00  0.00    +0.012 A 
ATOM     27  C   UNL     1      15.532   7.253   4.481  0.00  0.00    +0.012 A 
ATOM     30  C   UNL     1      16.716   9.356   5.881  0.00  0.00    +0.046 A 
ATOM     31  C   UNL     1      16.857   7.605   4.223  0.00  0.00    +0.046 A 
ATOM     33  C   UNL     1      17.449   8.656   4.923  0.00  0.00    +0.130 A 
BRANCH  33   7
ATOM      7  O   UNL     1      18.741   9.000   4.670  0.00  0.00    -0.406 OA
BRANCH   7  35
ATOM      1  F   UNL     1      20.915   8.989   5.278  0.00  0.00    -0.133 F 
ATOM      2  F   UNL     1      19.469   8.045   6.616  0.00  0.00    -0.133 F 
ATOM      3  F   UNL     1      20.001   7.091   4.696  0.00  0.00    -0.133 F 
ATOM     35  C   UNL     1      19.773   8.266   5.320  0.00  0.00    +0.575 C 
ENDBRANCH   7  35
ENDBRANCH  33   7
ENDBRANCH  20  23
TORSDOF 5
ENDMDL
MODEL 6
REMARK VINA RESULT:      -6.8     17.564     20.439
REMARK  Name = 7674707
REMARK  6 active torsions:
REMARK  status: ('A' for Active; 'I' for Inactive)
REMARK    1  A    between atoms: O_6  and  C_32
REMARK    2  A    between atoms: O_6  and  C_34
REMARK    3  A    between atoms: O_7  and  C_33
REMARK    4  A    between atoms: O_7  and  C_35
REMARK    5  A    between atoms: C_19  and  C_22
REMARK    6  A    between atoms: C_20  and  C_23
REMARK                            x       y       z     vdW  Elec       q    Type
REMARK                         _______ _______ _______ _____ _____    ______ ____
ROOT
ATOM      4  O   UNL     1     -11.251  -9.397  18.651  0.00  0.00    -0.267 OA
ATOM      5  O   UNL     1      -6.516 -10.723  20.022  0.00  0.00    -0.270 OA
ATOM      8  N   UNL     1      -7.520 -12.644  19.142  0.00  0.00    -0.297 N 
ATOM      9  N   UNL     1     -10.315 -11.491  18.229  0.00  0.00    -0.311 N 
ATOM     10  C   UNL     1      -9.758 -13.153  20.098  0.00  0.00    +0.027 C 
ATOM     11  C   UNL     1      -9.270 -13.733  17.756  0.00  0.00    +0.054 C 
ATOM     12  C   UNL     1      -9.970 -14.215  19.025  0.00  0.00    +0.018 C 
ATOM     13  C   UNL     1      -8.255 -12.954  20.367  0.00  0.00    +0.113 C 
ATOM     14  C   UNL     1     -10.441 -11.855  19.649  0.00  0.00    +0.130 C 
ATOM     15  C   UNL     1      -7.759 -13.575  18.026  0.00  0.00    +0.117 C 
ATOM     16  C   UNL     1      -9.841 -12.409  17.288  0.00  0.00    +0.027 A 
ATOM     17  C   UNL     1      -9.850 -12.099  15.981  0.00  0.00    +0.022 A 
ATOM     18  C   UNL     1     -10.794 -10.220  17.856  0.00  0.00    +0.259 A 
ATOM     19  C   UNL     1      -6.717 -11.503  19.091  0.00  0.00    +0.247 C 
ATOM     20  C   UNL     1     -10.747  -9.885  16.390  0.00  0.00    +0.047 A 
ATOM     21  C   UNL     1     -10.306 -10.816  15.529  0.00  0.00    +0.015 A 
ENDROOT
BRANCH  19  22
ATOM     22  C   UNL     1      -6.065 -11.173  17.819  0.00  0.00    +0.037 A 
ATOM     24  C   UNL     1      -4.807 -11.697  17.529  0.00  0.00    +0.016 A 
ATOM     25  C   UNL     1      -6.707 -10.338  16.907  0.00  0.00    +0.016 A 
ATOM     28  C   UNL     1      -4.188 -11.384  16.320  0.00  0.00    +0.046 A 
ATOM     29  C   UNL     1      -6.086 -10.026  15.697  0.00  0.00    +0.046 A 
ATOM     32  C   UNL     1      -4.827 -10.549  15.403  0.00  0.00    +0.120 A 
BRANCH  32   6
ATOM      6  O   UNL     1      -4.223 -10.246  14.223  0.00  0.00    -0.495 OA
ATOM     34  C   UNL     1      -2.858 -10.633  14.073  0.00  0.00    +0.277 C 
ENDBRANCH  32   6
ENDBRANCH  19  22
BRANCH  20  23
ATOM     23  C   UNL     1     -11.158  -8.560  15.896  0.00  0.00    -0.012 A 
ATOM     26  C   UNL     1     -12.458  -8.360  15.432  0.00  0.00    +0.012 A 
ATOM     27  C   UNL     1     -10.247  -7.503  15.894  0.00  0.00    +0.012 A 
ATOM     30  C   UNL     1     -12.847  -7.105  14.965  0.00  0.00    +0.046 A 
ATOM     31  C   UNL     1     -10.636  -6.247  15.427  0.00  0.00    +0.046 A 
ATOM     33  C   UNL     1     -11.937  -6.048  14.962  0.00  0.00    +0.130 A 
BRANCH  33   7
ATOM      7  O   UNL     1     -12.316  -4.825  14.505  0.00  0.00    -0.406 OA
BRANCH   7  35
ATOM      1  F   UNL     1     -12.061  -3.485  12.706  0.00  0.00    -0.133 F 
ATOM      2  F   UNL     1     -11.954  -5.645  12.401  0.00  0.00    -0.133 F 
ATOM      3  F   UNL     1     -13.887  -4.675  12.850  0.00  0.00    -0.133 F 
ATOM     35  C   UNL     1     -12.563  -4.673  13.111  0.00  0.00    +0.575 C 
ENDBRANCH   7  35
ENDBRANCH  33   7
ENDBRANCH  20  23
TORSDOF 5
ENDMDL
MODEL 7
REMARK VINA RESULT:      -6.7      7.763     14.189
REMARK  Name = 7674707
REMARK  6 active torsions:
REMARK  status: ('A' for Active; 'I' for Inactive)
REMARK    1  A    between atoms: O_6  and  C_32
REMARK    2  A    between atoms: O_6  and  C_34
REMARK    3  A    between atoms: O_7  and  C_33
REMARK    4  A    between atoms: O_7  and  C_35
REMARK    5  A    between atoms: C_19  and  C_22
REMARK    6  A    between atoms: C_20  and  C_23
REMARK                            x       y       z     vdW  Elec       q    Type
REMARK                         _______ _______ _______ _____ _____    ______ ____
ROOT
ATOM      4  O   UNL     1     -17.026   6.984  28.046  0.00  0.00    -0.267 OA
ATOM      5  O   UNL     1     -14.479   5.732  32.289  0.00  0.00    -0.270 OA
ATOM      8  N   UNL     1     -16.740   5.319  32.720  0.00  0.00    -0.297 N 
ATOM      9  N   UNL     1     -18.016   5.997  29.912  0.00  0.00    -0.311 N 
ATOM     10  C   UNL     1     -18.248   7.214  32.156  0.00  0.00    +0.027 C 
ATOM     11  C   UNL     1     -19.056   4.900  31.927  0.00  0.00    +0.054 C 
ATOM     12  C   UNL     1     -19.456   6.308  32.363  0.00  0.00    +0.018 C 
ATOM     13  C   UNL     1     -17.056   6.720  32.996  0.00  0.00    +0.113 C 
ATOM     14  C   UNL     1     -17.918   7.261  30.658  0.00  0.00    +0.130 C 
ATOM     15  C   UNL     1     -17.888   4.400  32.802  0.00  0.00    +0.117 C 
ATOM     16  C   UNL     1     -18.641   4.877  30.469  0.00  0.00    +0.027 A 
ATOM     17  C   UNL     1     -18.831   3.773  29.728  0.00  0.00    +0.022 A 
ATOM     18  C   UNL     1     -17.550   6.007  28.583  0.00  0.00    +0.259 A 
ATOM     19  C   UNL     1     -15.438   4.966  32.358  0.00  0.00    +0.247 C 
ATOM     20  C   UNL     1     -17.735   4.739  27.794  0.00  0.00    +0.047 A 
ATOM     21  C   UNL     1     -18.365   3.705  28.372  0.00  0.00    +0.015 A 
ENDROOT
BRANCH  19  22
ATOM     22  C   UNL     1     -15.177   3.567  32.002  0.00  0.00    +0.037 A 
ATOM     24  C   UNL     1     -14.902   2.638  33.001  0.00  0.00    +0.016 A 
ATOM     25  C   UNL     1     -15.205   3.175  30.665  0.00  0.00    +0.016 A 
ATOM     28  C   UNL     1     -14.654   1.308  32.663  0.00  0.00    +0.046 A 
ATOM     29  C   UNL     1     -14.956   1.845  30.327  0.00  0.00    +0.046 A 
ATOM     32  C   UNL     1     -14.682   0.911  31.326  0.00  0.00    +0.120 A 
BRANCH  32   6
ATOM      6  O   UNL     1     -14.441  -0.387  30.996  0.00  0.00    -0.495 OA
ATOM     34  C   UNL     1     -13.906  -0.638  29.697  0.00  0.00    +0.277 C 
ENDBRANCH  32   6
ENDBRANCH  19  22
BRANCH  20  23
ATOM     23  C   UNL     1     -17.224   4.616  26.419  0.00  0.00    -0.012 A 
ATOM     26  C   UNL     1     -17.810   5.349  25.387  0.00  0.00    +0.012 A 
ATOM     27  C   UNL     1     -16.152   3.765  26.146  0.00  0.00    +0.012 A 
ATOM     30  C   UNL     1     -17.327   5.232  24.084  0.00  0.00    +0.046 A 
ATOM     31  C   UNL     1     -15.667   3.649  24.843  0.00  0.00    +0.046 A 
ATOM     33  C   UNL     1     -16.255   4.382  23.812  0.00  0.00    +0.130 A 
BRANCH  33   7
ATOM      7  O   UNL     1     -15.784   4.267  22.541  0.00  0.00    -0.406 OA
BRANCH   7  35
ATOM      1  F   UNL     1     -14.685   6.187  22.992  0.00  0.00    -0.133 F 
ATOM      2  F   UNL     1     -13.552   4.535  22.121  0.00  0.00    -0.133 F 
ATOM      3  F   UNL     1     -15.010   5.656  20.897  0.00  0.00    -0.133 F 
ATOM     35  C   UNL     1     -14.751   5.153  22.123  0.00  0.00    +0.575 C 
ENDBRANCH   7  35
ENDBRANCH  33   7
ENDBRANCH  20  23
TORSDOF 5
ENDMDL
MODEL 8
REMARK VINA RESULT:      -6.5     19.788     21.812
REMARK  Name = 7674707
REMARK  6 active torsions:
REMARK  status: ('A' for Active; 'I' for Inactive)
REMARK    1  A    between atoms: O_6  and  C_32
REMARK    2  A    between atoms: O_6  and  C_34
REMARK    3  A    between atoms: O_7  and  C_33
REMARK    4  A    between atoms: O_7  and  C_35
REMARK    5  A    between atoms: C_19  and  C_22
REMARK    6  A    between atoms: C_20  and  C_23
REMARK                            x       y       z     vdW  Elec       q    Type
REMARK                         _______ _______ _______ _____ _____    ______ ____
ROOT
ATOM      4  O   UNL     1      -5.029 -12.096  16.475  0.00  0.00    -0.267 OA
ATOM      5  O   UNL     1      -1.757 -10.115  13.094  0.00  0.00    -0.270 OA
ATOM      8  N   UNL     1      -2.412 -12.197  12.251  0.00  0.00    -0.297 N 
ATOM      9  N   UNL     1      -4.531 -13.079  14.420  0.00  0.00    -0.311 N 
ATOM     10  C   UNL     1      -2.226 -14.062  13.884  0.00  0.00    +0.027 C 
ATOM     11  C   UNL     1      -4.002 -14.103  12.181  0.00  0.00    +0.054 C 
ATOM     12  C   UNL     1      -2.991 -14.970  12.927  0.00  0.00    +0.018 C 
ATOM     13  C   UNL     1      -1.496 -12.953  13.104  0.00  0.00    +0.113 C 
ATOM     14  C   UNL     1      -3.209 -13.492  14.915  0.00  0.00    +0.130 C 
ATOM     15  C   UNL     1      -3.258 -13.020  11.371  0.00  0.00    +0.117 C 
ATOM     16  C   UNL     1      -4.969 -13.440  13.142  0.00  0.00    +0.027 A 
ATOM     17  C   UNL     1      -6.224 -13.160  12.755  0.00  0.00    +0.022 A 
ATOM     18  C   UNL     1      -5.366 -12.401  15.330  0.00  0.00    +0.259 A 
ATOM     19  C   UNL     1      -2.463 -10.805  12.360  0.00  0.00    +0.247 C 
ATOM     20  C   UNL     1      -6.750 -12.060  14.850  0.00  0.00    +0.047 A 
ATOM     21  C   UNL     1      -7.124 -12.455  13.623  0.00  0.00    +0.015 A 
ENDROOT
BRANCH  19  22
ATOM     22  C   UNL     1      -3.455 -10.086  11.554  0.00  0.00    +0.037 A 
ATOM     24  C   UNL     1      -4.755  -9.933  12.029  0.00  0.00    +0.016 A 
ATOM     25  C   UNL     1      -3.092  -9.559  10.316  0.00  0.00    +0.016 A 
ATOM     28  C   UNL     1      -5.698  -9.248  11.263  0.00  0.00    +0.046 A 
ATOM     29  C   UNL     1      -4.036  -8.875   9.550  0.00  0.00    +0.046 A 
ATOM     32  C   UNL     1      -5.339  -8.719  10.024  0.00  0.00    +0.120 A 
BRANCH  32   6
ATOM      6  O   UNL     1      -6.259  -8.050   9.277  0.00  0.00    -0.495 OA
ATOM     34  C   UNL     1      -7.630  -8.395   9.474  0.00  0.00    +0.277 C 
ENDBRANCH  32   6
ENDBRANCH  19  22
BRANCH  20  23
ATOM     23  C   UNL     1      -7.682 -11.293  15.693  0.00  0.00    -0.012 A 
ATOM     26  C   UNL     1      -8.537 -11.957  16.574  0.00  0.00    +0.012 A 
ATOM     27  C   UNL     1      -7.711  -9.900  15.613  0.00  0.00    +0.012 A 
ATOM     30  C   UNL     1      -9.419 -11.231  17.372  0.00  0.00    +0.046 A 
ATOM     31  C   UNL     1      -8.594  -9.173  16.412  0.00  0.00    +0.046 A 
ATOM     33  C   UNL     1      -9.448  -9.838  17.292  0.00  0.00    +0.130 A 
BRANCH  33   7
ATOM      7  O   UNL     1     -10.310  -9.129  18.070  0.00  0.00    -0.406 OA
BRANCH   7  35
ATOM      1  F   UNL     1     -11.779  -9.436  16.383  0.00  0.00    -0.133 F 
ATOM      2  F   UNL     1     -12.568  -8.904  18.349  0.00  0.00    -0.133 F 
ATOM      3  F   UNL     1     -11.489  -7.406  17.137  0.00  0.00    -0.133 F 
ATOM     35  C   UNL     1     -11.542  -8.706  17.496  0.00  0.00    +0.575 C 
ENDBRANCH   7  35
ENDBRANCH  33   7
ENDBRANCH  20  23
TORSDOF 5
ENDMDL
MODEL 9
REMARK VINA RESULT:      -6.4     16.634     19.841
REMARK  Name = 7674707
REMARK  6 active torsions:
REMARK  status: ('A' for Active; 'I' for Inactive)
REMARK    1  A    between atoms: O_6  and  C_32
REMARK    2  A    between atoms: O_6  and  C_34
REMARK    3  A    between atoms: O_7  and  C_33
REMARK    4  A    between atoms: O_7  and  C_35
REMARK    5  A    between atoms: C_19  and  C_22
REMARK    6  A    between atoms: C_20  and  C_23
REMARK                            x       y       z     vdW  Elec       q    Type
REMARK                         _______ _______ _______ _____ _____    ______ ____
ROOT
ATOM      4  O   UNL     1     -13.733  -8.874  17.476  0.00  0.00    -0.267 OA
ATOM      5  O   UNL     1      -9.929 -10.343  20.547  0.00  0.00    -0.270 OA
ATOM      8  N   UNL     1     -10.473 -12.193  19.223  0.00  0.00    -0.297 N 
ATOM      9  N   UNL     1     -12.681 -10.951  17.339  0.00  0.00    -0.311 N 
ATOM     10  C   UNL     1     -12.900 -12.730  19.170  0.00  0.00    +0.027 C 
ATOM     11  C   UNL     1     -11.507 -13.173  17.189  0.00  0.00    +0.054 C 
ATOM     12  C   UNL     1     -12.651 -13.722  18.040  0.00  0.00    +0.018 C 
ATOM     13  C   UNL     1     -11.633 -12.567  20.030  0.00  0.00    +0.113 C 
ATOM     14  C   UNL     1     -13.361 -11.398  18.564  0.00  0.00    +0.130 C 
ATOM     15  C   UNL     1     -10.233 -13.052  18.051  0.00  0.00    +0.117 C 
ATOM     16  C   UNL     1     -11.858 -11.816  16.613  0.00  0.00    +0.027 A 
ATOM     17  C   UNL     1     -11.347 -11.428  15.433  0.00  0.00    +0.022 A 
ATOM     18  C   UNL     1     -12.986  -9.653  16.883  0.00  0.00    +0.259 A 
ATOM     19  C   UNL     1      -9.730 -11.061  19.568  0.00  0.00    +0.247 C 
ATOM     20  C   UNL     1     -12.359  -9.231  15.582  0.00  0.00    +0.047 A 
ATOM     21  C   UNL     1     -11.599 -10.114  14.915  0.00  0.00    +0.015 A 
ENDROOT
BRANCH  19  22
ATOM     22  C   UNL     1      -8.627 -10.664  18.687  0.00  0.00    +0.037 A 
ATOM     24  C   UNL     1      -7.343 -11.149  18.922  0.00  0.00    +0.016 A 
ATOM     25  C   UNL     1      -8.870  -9.804  17.617  0.00  0.00    +0.016 A 
ATOM     28  C   UNL     1      -6.295 -10.772  18.084  0.00  0.00    +0.046 A 
ATOM     29  C   UNL     1      -7.820  -9.428  16.779  0.00  0.00    +0.046 A 
ATOM     32  C   UNL     1      -6.533  -9.912  17.012  0.00  0.00    +0.120 A 
BRANCH  32   6
ATOM      6  O   UNL     1      -5.510  -9.545  16.193  0.00  0.00    -0.495 OA
ATOM     34  C   UNL     1      -4.366 -10.398  16.161  0.00  0.00    +0.277 C 
ENDBRANCH  32   6
ENDBRANCH  19  22
BRANCH  20  23
ATOM     23  C   UNL     1     -12.554  -7.874  15.046  0.00  0.00    -0.012 A 
ATOM     26  C   UNL     1     -13.667  -7.588  14.255  0.00  0.00    +0.012 A 
ATOM     27  C   UNL     1     -11.627  -6.871  15.331  0.00  0.00    +0.012 A 
ATOM     30  C   UNL     1     -13.852  -6.302  13.748  0.00  0.00    +0.046 A 
ATOM     31  C   UNL     1     -11.811  -5.584  14.824  0.00  0.00    +0.046 A 
ATOM     33  C   UNL     1     -12.924  -5.300  14.033  0.00  0.00    +0.130 A 
BRANCH  33   7
ATOM      7  O   UNL     1     -13.103  -4.046  13.537  0.00  0.00    -0.406 OA
BRANCH   7  35
ATOM      1  F   UNL     1     -11.986  -4.860  11.752  0.00  0.00    -0.133 F 
ATOM      2  F   UNL     1     -13.597  -3.429  11.391  0.00  0.00    -0.133 F 
ATOM      3  F   UNL     1     -11.688  -2.761  12.280  0.00  0.00    -0.133 F 
ATOM     35  C   UNL     1     -12.599  -3.757  12.237  0.00  0.00    +0.575 C 
ENDBRANCH   7  35
ENDBRANCH  33   7
ENDBRANCH  20  23
TORSDOF 5
ENDMDL
MODEL 10
REMARK VINA RESULT:      -6.4     20.739     22.834
REMARK  Name = 7674707
REMARK  6 active torsions:
REMARK  status: ('A' for Active; 'I' for Inactive)
REMARK    1  A    between atoms: O_6  and  C_32
REMARK    2  A    between atoms: O_6  and  C_34
REMARK    3  A    between atoms: O_7  and  C_33
REMARK    4  A    between atoms: O_7  and  C_35
REMARK    5  A    between atoms: C_19  and  C_22
REMARK    6  A    between atoms: C_20  and  C_23
REMARK                            x       y       z     vdW  Elec       q    Type
REMARK                         _______ _______ _______ _____ _____    ______ ____
ROOT
ATOM      4  O   UNL     1      -6.547  -9.652  13.606  0.00  0.00    -0.267 OA
ATOM      5  O   UNL     1      -7.523 -12.508   9.488  0.00  0.00    -0.270 OA
ATOM      8  N   UNL     1      -5.706 -11.140   8.939  0.00  0.00    -0.297 N 
ATOM      9  N   UNL     1      -5.227  -9.654  11.684  0.00  0.00    -0.311 N 
ATOM     10  C   UNL     1      -6.056  -8.731   9.441  0.00  0.00    +0.027 C 
ATOM     11  C   UNL     1      -3.799  -9.699   9.610  0.00  0.00    +0.054 C 
ATOM     12  C   UNL     1      -4.580  -8.464   9.165  0.00  0.00    +0.018 C 
ATOM     13  C   UNL     1      -6.534  -9.968   8.658  0.00  0.00    +0.113 C 
ATOM     14  C   UNL     1      -6.253  -8.893  10.954  0.00  0.00    +0.130 C 
ATOM     15  C   UNL     1      -4.257 -10.924   8.791  0.00  0.00    +0.117 C 
ATOM     16  C   UNL     1      -4.004  -9.972  11.087  0.00  0.00    +0.027 A 
ATOM     17  C   UNL     1      -3.034 -10.558  11.808  0.00  0.00    +0.022 A 
ATOM     18  C   UNL     1      -5.497  -9.947  13.035  0.00  0.00    +0.259 A 
ATOM     19  C   UNL     1      -6.313 -12.325   9.364  0.00  0.00    +0.247 C 
ATOM     20  C   UNL     1      -4.408 -10.646  13.803  0.00  0.00    +0.047 A 
ATOM     21  C   UNL     1      -3.244 -10.903  13.185  0.00  0.00    +0.015 A 
ENDROOT
BRANCH  19  22
ATOM     22  C   UNL     1      -5.448 -13.453   9.722  0.00  0.00    +0.037 A 
ATOM     24  C   UNL     1      -5.013 -13.603  11.037  0.00  0.00    +0.016 A 
ATOM     25  C   UNL     1      -5.065 -14.371   8.746  0.00  0.00    +0.016 A 
ATOM     28  C   UNL     1      -4.191 -14.677  11.377  0.00  0.00    +0.046 A 
ATOM     29  C   UNL     1      -4.242 -15.444   9.087  0.00  0.00    +0.046 A 
ATOM     32  C   UNL     1      -3.806 -15.597  10.403  0.00  0.00    +0.120 A 
BRANCH  32   6
ATOM      6  O   UNL     1      -3.005 -16.646  10.735  0.00  0.00    -0.495 OA
ATOM     34  C   UNL     1      -1.745 -16.337  11.331  0.00  0.00    +0.277 C 
ENDBRANCH  32   6
ENDBRANCH  19  22
BRANCH  20  23
ATOM     23  C   UNL     1      -4.607 -11.061  15.202  0.00  0.00    -0.012 A 
ATOM     26  C   UNL     1      -4.018 -10.334  16.237  0.00  0.00    +0.012 A 
ATOM     27  C   UNL     1      -5.387 -12.180  15.493  0.00  0.00    +0.012 A 
ATOM     30  C   UNL     1      -4.206 -10.727  17.561  0.00  0.00    +0.046 A 
ATOM     31  C   UNL     1      -5.576 -12.573  16.819  0.00  0.00    +0.046 A 
ATOM     33  C   UNL     1      -4.986 -11.846  17.853  0.00  0.00    +0.130 A 
BRANCH  33   7
ATOM      7  O   UNL     1      -5.169 -12.230  19.145  0.00  0.00    -0.406 OA
BRANCH   7  35
ATOM      1  F   UNL     1      -5.805 -11.268  21.086  0.00  0.00    -0.133 F 
ATOM      2  F   UNL     1      -6.739 -10.570  19.239  0.00  0.00    -0.133 F 
ATOM      3  F   UNL     1      -7.240 -12.559  20.060  0.00  0.00    -0.133 F 
ATOM     35  C   UNL     1      -6.252 -11.658  19.870  0.00  0.00    +0.575 C 
ENDBRANCH   7  35
ENDBRANCH  33   7
ENDBRANCH  20  23
TORSDOF 5
ENDMDL
