MODEL 1
REMARK VINA RESULT:      -7.7      0.000      0.000
REMARK  Name = 11941628
REMARK  2 active torsions:
REMARK  status: ('A' for Active; 'I' for Inactive)
REMARK    1  A    between atoms: O_3  and  C_10
REMARK    2  A    between atoms: C_18  and  C_20
REMARK                            x       y       z     vdW  Elec       q    Type
REMARK                         _______ _______ _______ _____ _____    ______ ____
ROOT
ATOM      4  O   UNL     1      13.152  11.138  18.878  0.00  0.00    -0.273 OA
ATOM      5  O   UNL     1      14.354   6.219  20.366  0.00  0.00    -0.270 OA
ATOM      6  N   UNL     1      13.740   7.888  18.908  0.00  0.00    -0.283 N 
ATOM      7  N   UNL     1      14.995  10.338  19.956  0.00  0.00    -0.283 N 
ATOM      8  C   UNL     1      14.046   9.045  18.091  0.00  0.00    +0.165 C 
ATOM      9  C   UNL     1      12.972   9.036  17.004  0.00  0.00    +0.065 C 
ATOM     10  C   UNL     1      11.783   8.356  17.680  0.00  0.00    +0.134 C 
ATOM     11  C   UNL     1      12.449   7.312  18.562  0.00  0.00    +0.140 C 
ATOM     12  C   UNL     1      13.987  10.243  19.017  0.00  0.00    +0.238 C 
ATOM     13  C   UNL     1      14.595   7.290  19.808  0.00  0.00    +0.249 C 
ATOM     14  C   UNL     1      15.863   7.991  20.140  0.00  0.00    +0.059 A 
ATOM     15  C   UNL     1      15.983   9.384  20.285  0.00  0.00    +0.046 A 
ATOM     16  C   UNL     1      16.946   7.163  20.489  0.00  0.00    +0.023 A 
ATOM     17  C   UNL     1      17.165   9.908  20.838  0.00  0.00    +0.024 A 
ATOM     18  C   UNL     1      18.126   7.706  20.993  0.00  0.00    -0.014 A 
ATOM     19  C   UNL     1      18.232   9.077  21.179  0.00  0.00    +0.010 A 
ATOM     26  H   UNL     1      15.085  11.245  20.406  0.00  0.00    +0.155 HD
ENDROOT
BRANCH  18  20
ATOM      1  F   UNL     1      19.543   7.983  23.403  0.00  0.00    -0.205 F 
ATOM      2  F   UNL     1      22.387   4.361  22.321  0.00  0.00    -0.205 F 
ATOM     20  C   UNL     1      19.232   6.839  21.341  0.00  0.00    +0.018 A 
ATOM     21  C   UNL     1      19.906   7.014  22.549  0.00  0.00    +0.134 A 
ATOM     22  C   UNL     1      19.624   5.828  20.464  0.00  0.00    +0.014 A 
ATOM     23  C   UNL     1      20.972   6.177  22.881  0.00  0.00    +0.077 A 
ATOM     24  C   UNL     1      20.689   4.992  20.794  0.00  0.00    +0.039 A 
ATOM     25  C   UNL     1      21.363   5.166  22.004  0.00  0.00    +0.126 A 
ENDBRANCH  18  20
BRANCH  10   3
ATOM      3  O   UNL     1      10.927   7.750  16.732  0.00  0.00    -0.390 OA
ATOM     27  H   UNL     1      10.729   8.415  16.051  0.00  0.00    +0.210 HD
ENDBRANCH  10   3
TORSDOF 2
ENDMDL
MODEL 2
REMARK VINA RESULT:      -7.7     31.810     33.498
REMARK  Name = 11941628
REMARK  2 active torsions:
REMARK  status: ('A' for Active; 'I' for Inactive)
REMARK    1  A    between atoms: O_3  and  C_10
REMARK    2  A    between atoms: C_18  and  C_20
REMARK                            x       y       z     vdW  Elec       q    Type
REMARK                         _______ _______ _______ _____ _____    ______ ____
ROOT
ATOM      4  O   UNL     1     -17.431   2.462  29.423  0.00  0.00    -0.273 OA
ATOM      5  O   UNL     1     -14.309   2.822  33.663  0.00  0.00    -0.270 OA
ATOM      6  N   UNL     1     -14.918   2.163  31.547  0.00  0.00    -0.283 N 
ATOM      7  N   UNL     1     -16.677   4.300  30.541  0.00  0.00    -0.283 N 
ATOM      8  C   UNL     1     -15.131   2.430  30.139  0.00  0.00    +0.165 C 
ATOM      9  C   UNL     1     -14.978   1.068  29.466  0.00  0.00    +0.065 C 
ATOM     10  C   UNL     1     -15.404   0.081  30.553  0.00  0.00    +0.134 C 
ATOM     11  C   UNL     1     -14.882   0.734  31.823  0.00  0.00    +0.140 C 
ATOM     12  C   UNL     1     -16.519   3.029  30.027  0.00  0.00    +0.238 C 
ATOM     13  C   UNL     1     -14.637   3.106  32.511  0.00  0.00    +0.249 C 
ATOM     14  C   UNL     1     -14.762   4.541  32.143  0.00  0.00    +0.059 A 
ATOM     15  C   UNL     1     -15.766   5.060  31.307  0.00  0.00    +0.046 A 
ATOM     16  C   UNL     1     -13.909   5.424  32.830  0.00  0.00    +0.023 A 
ATOM     17  C   UNL     1     -15.930   6.454  31.231  0.00  0.00    +0.024 A 
ATOM     18  C   UNL     1     -14.058   6.804  32.704  0.00  0.00    -0.014 A 
ATOM     19  C   UNL     1     -15.077   7.320  31.915  0.00  0.00    +0.010 A 
ATOM     26  H   UNL     1     -17.528   4.781  30.257  0.00  0.00    +0.155 HD
ENDROOT
BRANCH  18  20
ATOM      1  F   UNL     1     -12.263   8.498  31.363  0.00  0.00    -0.205 F 
ATOM      2  F   UNL     1     -10.628  10.243  35.445  0.00  0.00    -0.205 F 
ATOM     20  C   UNL     1     -13.167   7.698  33.413  0.00  0.00    +0.018 A 
ATOM     21  C   UNL     1     -12.293   8.522  32.704  0.00  0.00    +0.134 A 
ATOM     22  C   UNL     1     -13.183   7.733  34.807  0.00  0.00    +0.014 A 
ATOM     23  C   UNL     1     -11.435   9.382  33.390  0.00  0.00    +0.077 A 
ATOM     24  C   UNL     1     -12.326   8.592  35.493  0.00  0.00    +0.039 A 
ATOM     25  C   UNL     1     -11.451   9.417  34.784  0.00  0.00    +0.126 A 
ENDBRANCH  18  20
BRANCH  10   3
ATOM      3  O   UNL     1     -14.816  -1.190  30.356  0.00  0.00    -0.390 OA
ATOM     27  H   UNL     1     -15.465  -1.857  30.633  0.00  0.00    +0.210 HD
ENDBRANCH  10   3
TORSDOF 2
ENDMDL
MODEL 3
REMARK VINA RESULT:      -7.6     27.795     29.684
REMARK  Name = 11941628
REMARK  2 active torsions:
REMARK  status: ('A' for Active; 'I' for Inactive)
REMARK    1  A    between atoms: O_3  and  C_10
REMARK    2  A    between atoms: C_18  and  C_20
REMARK                            x       y       z     vdW  Elec       q    Type
REMARK                         _______ _______ _______ _____ _____    ______ ____
ROOT
ATOM      4  O   UNL     1      -3.340 -11.719  19.123  0.00  0.00    -0.273 OA
ATOM      5  O   UNL     1      -6.572 -12.786  15.091  0.00  0.00    -0.270 OA
ATOM      6  N   UNL     1      -5.936 -11.834  17.084  0.00  0.00    -0.283 N 
ATOM      7  N   UNL     1      -3.020 -11.474  16.879  0.00  0.00    -0.283 N 
ATOM      8  C   UNL     1      -5.193 -10.855  17.851  0.00  0.00    +0.165 C 
ATOM      9  C   UNL     1      -5.978 -10.718  19.154  0.00  0.00    +0.065 C 
ATOM     10  C   UNL     1      -6.638 -12.086  19.321  0.00  0.00    +0.134 C 
ATOM     11  C   UNL     1      -6.964 -12.479  17.889  0.00  0.00    +0.140 C 
ATOM     12  C   UNL     1      -3.797 -11.420  18.019  0.00  0.00    +0.238 C 
ATOM     13  C   UNL     1      -5.815 -12.056  15.730  0.00  0.00    +0.249 C 
ATOM     14  C   UNL     1      -4.693 -11.397  15.011  0.00  0.00    +0.059 A 
ATOM     15  C   UNL     1      -3.402 -11.230  15.542  0.00  0.00    +0.046 A 
ATOM     16  C   UNL     1      -4.930 -11.090  13.659  0.00  0.00    +0.023 A 
ATOM     17  C   UNL     1      -2.366 -10.819  14.685  0.00  0.00    +0.024 A 
ATOM     18  C   UNL     1      -3.898 -10.640  12.837  0.00  0.00    -0.014 A 
ATOM     19  C   UNL     1      -2.613 -10.516  13.346  0.00  0.00    +0.010 A 
ATOM     26  H   UNL     1      -2.027 -11.626  17.037  0.00  0.00    +0.155 HD
ENDROOT
BRANCH  18  20
ATOM      1  F   UNL     1      -3.367 -12.455  10.759  0.00  0.00    -0.205 F 
ATOM      2  F   UNL     1      -4.918  -9.403   7.495  0.00  0.00    -0.205 F 
ATOM     20  C   UNL     1      -4.162 -10.322  11.449  0.00  0.00    +0.018 A 
ATOM     21  C   UNL     1      -3.883 -11.256  10.452  0.00  0.00    +0.134 A 
ATOM     22  C   UNL     1      -4.696  -9.079  11.112  0.00  0.00    +0.014 A 
ATOM     23  C   UNL     1      -4.138 -10.946   9.116  0.00  0.00    +0.077 A 
ATOM     24  C   UNL     1      -4.952  -8.768   9.777  0.00  0.00    +0.039 A 
ATOM     25  C   UNL     1      -4.672  -9.703   8.778  0.00  0.00    +0.126 A 
ENDBRANCH  18  20
BRANCH  10   3
ATOM      3  O   UNL     1      -7.812 -12.002  20.104  0.00  0.00    -0.390 OA
ATOM     27  H   UNL     1      -8.429 -11.410  19.642  0.00  0.00    +0.210 HD
ENDBRANCH  10   3
TORSDOF 2
ENDMDL
MODEL 4
REMARK VINA RESULT:      -7.4      4.084      7.691
REMARK  Name = 11941628
REMARK  2 active torsions:
REMARK  status: ('A' for Active; 'I' for Inactive)
REMARK    1  A    between atoms: O_3  and  C_10
REMARK    2  A    between atoms: C_18  and  C_20
REMARK                            x       y       z     vdW  Elec       q    Type
REMARK                         _______ _______ _______ _____ _____    ______ ____
ROOT
ATOM      4  O   UNL     1      22.149   8.008  21.917  0.00  0.00    -0.273 OA
ATOM      5  O   UNL     1      18.269   5.585  19.285  0.00  0.00    -0.270 OA
ATOM      6  N   UNL     1      19.918   5.808  20.871  0.00  0.00    -0.283 N 
ATOM      7  N   UNL     1      20.012   8.683  21.499  0.00  0.00    -0.283 N 
ATOM      8  C   UNL     1      20.423   6.339  22.120  0.00  0.00    +0.165 C 
ATOM      9  C   UNL     1      21.492   5.338  22.554  0.00  0.00    +0.065 C 
ATOM     10  C   UNL     1      21.997   4.757  21.234  0.00  0.00    +0.134 C 
ATOM     11  C   UNL     1      20.737   4.706  20.385  0.00  0.00    +0.140 C 
ATOM     12  C   UNL     1      20.955   7.723  21.806  0.00  0.00    +0.238 C 
ATOM     13  C   UNL     1      18.737   6.171  20.261  0.00  0.00    +0.249 C 
ATOM     14  C   UNL     1      18.007   7.349  20.797  0.00  0.00    +0.059 A 
ATOM     15  C   UNL     1      18.628   8.517  21.273  0.00  0.00    +0.046 A 
ATOM     16  C   UNL     1      16.609   7.323  20.644  0.00  0.00    +0.023 A 
ATOM     17  C   UNL     1      17.836   9.651  21.522  0.00  0.00    +0.024 A 
ATOM     18  C   UNL     1      15.836   8.444  20.941  0.00  0.00    -0.014 A 
ATOM     19  C   UNL     1      16.451   9.613  21.369  0.00  0.00    +0.010 A 
ATOM     26  H   UNL     1      20.346   9.644  21.522  0.00  0.00    +0.155 HD
ENDROOT
BRANCH  18  20
ATOM      1  F   UNL     1      14.590   8.824  18.452  0.00  0.00    -0.205 F 
ATOM      2  F   UNL     1      10.294   8.260  20.350  0.00  0.00    -0.205 F 
ATOM     20  C   UNL     1      14.398   8.397  20.784  0.00  0.00    +0.018 A 
ATOM     21  C   UNL     1      13.824   8.590  19.528  0.00  0.00    +0.134 A 
ATOM     22  C   UNL     1      13.587   8.157  21.893  0.00  0.00    +0.014 A 
ATOM     23  C   UNL     1      12.437   8.544  19.381  0.00  0.00    +0.077 A 
ATOM     24  C   UNL     1      12.201   8.111  21.747  0.00  0.00    +0.039 A 
ATOM     25  C   UNL     1      11.626   8.305  20.490  0.00  0.00    +0.126 A 
ENDBRANCH  18  20
BRANCH  10   3
ATOM      3  O   UNL     1      22.542   3.465  21.414  0.00  0.00    -0.390 OA
ATOM     27  H   UNL     1      22.997   3.457  22.272  0.00  0.00    +0.210 HD
ENDBRANCH  10   3
TORSDOF 2
ENDMDL
MODEL 5
REMARK VINA RESULT:      -7.3     15.272     18.456
REMARK  Name = 11941628
REMARK  2 active torsions:
REMARK  status: ('A' for Active; 'I' for Inactive)
REMARK    1  A    between atoms: O_3  and  C_10
REMARK    2  A    between atoms: C_18  and  C_20
REMARK                            x       y       z     vdW  Elec       q    Type
REMARK                         _______ _______ _______ _____ _____    ______ ____
ROOT
ATOM      4  O   UNL     1      10.911   6.905  -1.009  0.00  0.00    -0.273 OA
ATOM      5  O   UNL     1      11.425   3.122   2.635  0.00  0.00    -0.270 OA
ATOM      6  N   UNL     1      12.138   4.715   1.139  0.00  0.00    -0.283 N 
ATOM      7  N   UNL     1       9.996   6.735   1.072  0.00  0.00    -0.283 N 
ATOM      8  C   UNL     1      12.348   6.094   0.747  0.00  0.00    +0.165 C 
ATOM      9  C   UNL     1      13.489   6.031  -0.266  0.00  0.00    +0.065 C 
ATOM     10  C   UNL     1      13.344   4.642  -0.886  0.00  0.00    +0.134 C 
ATOM     11  C   UNL     1      12.882   3.796   0.290  0.00  0.00    +0.140 C 
ATOM     12  C   UNL     1      11.031   6.575   0.173  0.00  0.00    +0.238 C 
ATOM     13  C   UNL     1      11.447   4.292   2.253  0.00  0.00    +0.249 C 
ATOM     14  C   UNL     1      10.668   5.301   3.018  0.00  0.00    +0.059 A 
ATOM     15  C   UNL     1       9.944   6.354   2.431  0.00  0.00    +0.046 A 
ATOM     16  C   UNL     1      10.531   5.052   4.396  0.00  0.00    +0.023 A 
ATOM     17  C   UNL     1       9.052   7.090   3.230  0.00  0.00    +0.024 A 
ATOM     18  C   UNL     1       9.677   5.824   5.180  0.00  0.00    -0.014 A 
ATOM     19  C   UNL     1       8.927   6.836   4.595  0.00  0.00    +0.010 A 
ATOM     26  H   UNL     1       9.202   7.273   0.731  0.00  0.00    +0.155 HD
ENDROOT
BRANCH  18  20
ATOM      1  F   UNL     1       9.994   3.246   6.251  0.00  0.00    -0.205 F 
ATOM      2  F   UNL     1       9.203   4.813  10.644  0.00  0.00    -0.205 F 
ATOM     20  C   UNL     1       9.555   5.558   6.598  0.00  0.00    +0.018 A 
ATOM     21  C   UNL     1       9.722   4.262   7.084  0.00  0.00    +0.134 A 
ATOM     22  C   UNL     1       9.269   6.602   7.477  0.00  0.00    +0.014 A 
ATOM     23  C   UNL     1       9.603   4.009   8.451  0.00  0.00    +0.077 A 
ATOM     24  C   UNL     1       9.150   6.351   8.843  0.00  0.00    +0.039 A 
ATOM     25  C   UNL     1       9.317   5.053   9.331  0.00  0.00    +0.126 A 
ENDBRANCH  18  20
BRANCH  10   3
ATOM      3  O   UNL     1      14.575   4.173  -1.397  0.00  0.00    -0.390 OA
ATOM     27  H   UNL     1      15.117   3.892  -0.641  0.00  0.00    +0.210 HD
ENDBRANCH  10   3
TORSDOF 2
ENDMDL
MODEL 6
REMARK VINA RESULT:      -7.2     28.220     30.684
REMARK  Name = 11941628
REMARK  2 active torsions:
REMARK  status: ('A' for Active; 'I' for Inactive)
REMARK    1  A    between atoms: O_3  and  C_10
REMARK    2  A    between atoms: C_18  and  C_20
REMARK                            x       y       z     vdW  Elec       q    Type
REMARK                         _______ _______ _______ _____ _____    ______ ____
ROOT
ATOM      4  O   UNL     1     -15.381   3.925  24.090  0.00  0.00    -0.273 OA
ATOM      5  O   UNL     1     -16.097   6.739  19.683  0.00  0.00    -0.270 OA
ATOM      6  N   UNL     1     -16.340   6.211  21.908  0.00  0.00    -0.283 N 
ATOM      7  N   UNL     1     -13.853   4.821  22.655  0.00  0.00    -0.283 N 
ATOM      8  C   UNL     1     -15.837   6.141  23.264  0.00  0.00    +0.165 C 
ATOM      9  C   UNL     1     -17.091   6.169  24.136  0.00  0.00    +0.065 C 
ATOM     10  C   UNL     1     -18.161   5.540  23.246  0.00  0.00    +0.134 C 
ATOM     11  C   UNL     1     -17.785   6.043  21.861  0.00  0.00    +0.140 C 
ATOM     12  C   UNL     1     -15.043   4.854  23.355  0.00  0.00    +0.238 C 
ATOM     13  C   UNL     1     -15.601   6.538  20.792  0.00  0.00    +0.249 C 
ATOM     14  C   UNL     1     -14.123   6.625  20.933  0.00  0.00    +0.059 A 
ATOM     15  C   UNL     1     -13.351   5.761  21.729  0.00  0.00    +0.046 A 
ATOM     16  C   UNL     1     -13.480   7.530  20.069  0.00  0.00    +0.023 A 
ATOM     17  C   UNL     1     -11.952   5.783  21.591  0.00  0.00    +0.024 A 
ATOM     18  C   UNL     1     -12.089   7.568  19.981  0.00  0.00    -0.014 A 
ATOM     19  C   UNL     1     -11.325   6.686  20.733  0.00  0.00    +0.010 A 
ATOM     26  H   UNL     1     -13.223   4.062  22.904  0.00  0.00    +0.155 HD
ENDROOT
BRANCH  18  20
ATOM      1  F   UNL     1     -11.373  10.156  20.808  0.00  0.00    -0.205 F 
ATOM      2  F   UNL     1      -9.604  11.190  16.545  0.00  0.00    -0.205 F 
ATOM     20  C   UNL     1     -11.444   8.510  19.092  0.00  0.00    +0.018 A 
ATOM     21  C   UNL     1     -11.106   9.784  19.547  0.00  0.00    +0.134 A 
ATOM     22  C   UNL     1     -11.161   8.142  17.777  0.00  0.00    +0.014 A 
ATOM     23  C   UNL     1     -10.484  10.690  18.687  0.00  0.00    +0.077 A 
ATOM     24  C   UNL     1     -10.540   9.046  16.917  0.00  0.00    +0.039 A 
ATOM     25  C   UNL     1     -10.201  10.321  17.373  0.00  0.00    +0.126 A 
ENDBRANCH  18  20
BRANCH  10   3
ATOM      3  O   UNL     1     -19.457   5.974  23.610  0.00  0.00    -0.390 OA
ATOM     27  H   UNL     1     -19.354   6.662  24.288  0.00  0.00    +0.210 HD
ENDBRANCH  10   3
TORSDOF 2
ENDMDL
MODEL 7
REMARK VINA RESULT:      -6.9     15.351     18.225
REMARK  Name = 11941628
REMARK  2 active torsions:
REMARK  status: ('A' for Active; 'I' for Inactive)
REMARK    1  A    between atoms: O_3  and  C_10
REMARK    2  A    between atoms: C_18  and  C_20
REMARK                            x       y       z     vdW  Elec       q    Type
REMARK                         _______ _______ _______ _____ _____    ______ ____
ROOT
ATOM      4  O   UNL     1       8.567   7.432   8.459  0.00  0.00    -0.273 OA
ATOM      5  O   UNL     1       9.425   8.699   3.408  0.00  0.00    -0.270 OA
ATOM      6  N   UNL     1       9.723   8.803   5.685  0.00  0.00    -0.283 N 
ATOM      7  N   UNL     1       9.085   6.106   6.679  0.00  0.00    -0.283 N 
ATOM      8  C   UNL     1      10.231   8.267   6.931  0.00  0.00    +0.165 C 
ATOM      9  C   UNL     1      10.394   9.489   7.833  0.00  0.00    +0.065 C 
ATOM     10  C   UNL     1       9.332  10.459   7.317  0.00  0.00    +0.134 C 
ATOM     11  C   UNL     1       9.340  10.202   5.819  0.00  0.00    +0.140 C 
ATOM     12  C   UNL     1       9.198   7.269   7.414  0.00  0.00    +0.238 C 
ATOM     13  C   UNL     1       9.721   8.153   4.471  0.00  0.00    +0.249 C 
ATOM     14  C   UNL     1      10.069   6.708   4.451  0.00  0.00    +0.059 A 
ATOM     15  C   UNL     1       9.681   5.786   5.439  0.00  0.00    +0.046 A 
ATOM     16  C   UNL     1      10.676   6.242   3.270  0.00  0.00    +0.023 A 
ATOM     17  C   UNL     1       9.855   4.414   5.190  0.00  0.00    +0.024 A 
ATOM     18  C   UNL     1      10.882   4.879   3.063  0.00  0.00    -0.014 A 
ATOM     19  C   UNL     1      10.460   3.964   4.017  0.00  0.00    +0.010 A 
ATOM     26  H   UNL     1       8.572   5.353   7.132  0.00  0.00    +0.155 HD
ENDROOT
BRANCH  18  20
ATOM      1  F   UNL     1       9.530   4.831   0.600  0.00  0.00    -0.205 F 
ATOM      2  F   UNL     1      13.331   3.100  -1.621  0.00  0.00    -0.205 F 
ATOM     20  C   UNL     1      11.515   4.418   1.845  0.00  0.00    +0.018 A 
ATOM     21  C   UNL     1      10.804   4.413   0.645  0.00  0.00    +0.134 A 
ATOM     22  C   UNL     1      12.838   3.979   1.875  0.00  0.00    +0.014 A 
ATOM     23  C   UNL     1      11.417   3.968  -0.526  0.00  0.00    +0.077 A 
ATOM     24  C   UNL     1      13.451   3.534   0.704  0.00  0.00    +0.039 A 
ATOM     25  C   UNL     1      12.740   3.528  -0.497  0.00  0.00    +0.126 A 
ENDBRANCH  18  20
BRANCH  10   3
ATOM      3  O   UNL     1       9.675  11.801   7.604  0.00  0.00    -0.390 OA
ATOM     27  H   UNL     1       8.852  12.318   7.607  0.00  0.00    +0.210 HD
ENDBRANCH  10   3
TORSDOF 2
ENDMDL
MODEL 8
REMARK VINA RESULT:      -6.8      5.210      6.917
REMARK  Name = 11941628
REMARK  2 active torsions:
REMARK  status: ('A' for Active; 'I' for Inactive)
REMARK    1  A    between atoms: O_3  and  C_10
REMARK    2  A    between atoms: C_18  and  C_20
REMARK                            x       y       z     vdW  Elec       q    Type
REMARK                         _______ _______ _______ _____ _____    ______ ____
ROOT
ATOM      4  O   UNL     1      15.954  14.566  15.619  0.00  0.00    -0.273 OA
ATOM      5  O   UNL     1      13.515   9.921  15.042  0.00  0.00    -0.270 OA
ATOM      6  N   UNL     1      15.282  11.392  15.000  0.00  0.00    -0.283 N 
ATOM      7  N   UNL     1      14.698  13.372  17.100  0.00  0.00    -0.283 N 
ATOM      8  C   UNL     1      16.300  12.183  15.662  0.00  0.00    +0.165 C 
ATOM      9  C   UNL     1      17.390  12.358  14.606  0.00  0.00    +0.065 C 
ATOM     10  C   UNL     1      16.625  12.295  13.285  0.00  0.00    +0.134 C 
ATOM     11  C   UNL     1      15.542  11.267  13.573  0.00  0.00    +0.140 C 
ATOM     12  C   UNL     1      15.625  13.473  16.082  0.00  0.00    +0.238 C 
ATOM     13  C   UNL     1      14.263  10.706  15.625  0.00  0.00    +0.249 C 
ATOM     14  C   UNL     1      14.043  10.951  17.075  0.00  0.00    +0.059 A 
ATOM     15  C   UNL     1      14.166  12.207  17.694  0.00  0.00    +0.046 A 
ATOM     16  C   UNL     1      13.514   9.869  17.803  0.00  0.00    +0.023 A 
ATOM     17  C   UNL     1      13.696  12.362  19.010  0.00  0.00    +0.024 A 
ATOM     18  C   UNL     1      13.096  10.033  19.122  0.00  0.00    -0.014 A 
ATOM     19  C   UNL     1      13.176  11.282  19.722  0.00  0.00    +0.010 A 
ATOM     26  H   UNL     1      14.429  14.253  17.532  0.00  0.00    +0.155 HD
ENDROOT
BRANCH  18  20
ATOM      1  F   UNL     1      14.671   7.811  19.812  0.00  0.00    -0.205 F 
ATOM      2  F   UNL     1      11.021   5.703  21.959  0.00  0.00    -0.205 F 
ATOM     20  C   UNL     1      12.561   8.907  19.859  0.00  0.00    +0.018 A 
ATOM     21  C   UNL     1      13.381   7.826  20.180  0.00  0.00    +0.134 A 
ATOM     22  C   UNL     1      11.221   8.906  20.246  0.00  0.00    +0.014 A 
ATOM     23  C   UNL     1      12.861   6.743  20.889  0.00  0.00    +0.077 A 
ATOM     24  C   UNL     1      10.701   7.824  20.956  0.00  0.00    +0.039 A 
ATOM     25  C   UNL     1      11.522   6.742  21.277  0.00  0.00    +0.126 A 
ENDBRANCH  18  20
BRANCH  10   3
ATOM      3  O   UNL     1      17.459  11.871  12.225  0.00  0.00    -0.390 OA
ATOM     27  H   UNL     1      16.887  11.687  11.461  0.00  0.00    +0.210 HD
ENDBRANCH  10   3
TORSDOF 2
ENDMDL
MODEL 9
REMARK VINA RESULT:      -6.7     15.927     19.060
REMARK  Name = 11941628
REMARK  2 active torsions:
REMARK  status: ('A' for Active; 'I' for Inactive)
REMARK    1  A    between atoms: O_3  and  C_10
REMARK    2  A    between atoms: C_18  and  C_20
REMARK                            x       y       z     vdW  Elec       q    Type
REMARK                         _______ _______ _______ _____ _____    ______ ____
ROOT
ATOM      4  O   UNL     1      12.445   8.490   6.814  0.00  0.00    -0.273 OA
ATOM      5  O   UNL     1      10.264   4.123   4.808  0.00  0.00    -0.270 OA
ATOM      6  N   UNL     1      10.295   6.228   5.731  0.00  0.00    -0.283 N 
ATOM      7  N   UNL     1      12.822   7.439   4.827  0.00  0.00    -0.283 N 
ATOM      8  C   UNL     1      10.512   7.657   5.642  0.00  0.00    +0.165 C 
ATOM      9  C   UNL     1       9.635   8.245   6.745  0.00  0.00    +0.065 C 
ATOM     10  C   UNL     1       9.572   7.129   7.787  0.00  0.00    +0.134 C 
ATOM     11  C   UNL     1       9.552   5.872   6.932  0.00  0.00    +0.140 C 
ATOM     12  C   UNL     1      11.998   7.872   5.846  0.00  0.00    +0.238 C 
ATOM     13  C   UNL     1      10.606   5.304   4.758  0.00  0.00    +0.249 C 
ATOM     14  C   UNL     1      11.422   5.757   3.600  0.00  0.00    +0.059 A 
ATOM     15  C   UNL     1      12.487   6.670   3.690  0.00  0.00    +0.046 A 
ATOM     16  C   UNL     1      11.194   5.078   2.389  0.00  0.00    +0.023 A 
ATOM     17  C   UNL     1      13.336   6.832   2.581  0.00  0.00    +0.024 A 
ATOM     18  C   UNL     1      12.019   5.287   1.287  0.00  0.00    -0.014 A 
ATOM     19  C   UNL     1      13.098   6.155   1.386  0.00  0.00    +0.010 A 
ATOM     26  H   UNL     1      13.776   7.792   4.858  0.00  0.00    +0.155 HD
ENDROOT
BRANCH  18  20
ATOM      1  F   UNL     1      13.575   3.097   0.462  0.00  0.00    -0.205 F 
ATOM      2  F   UNL     1      11.031   2.590  -3.494  0.00  0.00    -0.205 F 
ATOM     20  C   UNL     1      11.765   4.584   0.046  0.00  0.00    +0.018 A 
ATOM     21  C   UNL     1      12.563   3.502  -0.322  0.00  0.00    +0.134 A 
ATOM     22  C   UNL     1      10.720   4.993  -0.781  0.00  0.00    +0.014 A 
ATOM     23  C   UNL     1      12.316   2.827  -1.518  0.00  0.00    +0.077 A 
ATOM     24  C   UNL     1      10.472   4.320  -1.976  0.00  0.00    +0.039 A 
ATOM     25  C   UNL     1      11.270   3.236  -2.345  0.00  0.00    +0.126 A 
ENDBRANCH  18  20
BRANCH  10   3
ATOM      3  O   UNL     1       8.404   7.225   8.577  0.00  0.00    -0.390 OA
ATOM     27  H   UNL     1       8.603   6.825   9.441  0.00  0.00    +0.210 HD
ENDBRANCH  10   3
TORSDOF 2
ENDMDL
MODEL 10
REMARK VINA RESULT:      -6.7     27.970     31.240
REMARK  Name = 11941628
REMARK  2 active torsions:
REMARK  status: ('A' for Active; 'I' for Inactive)
REMARK    1  A    between atoms: O_3  and  C_10
REMARK    2  A    between atoms: C_18  and  C_20
REMARK                            x       y       z     vdW  Elec       q    Type
REMARK                         _______ _______ _______ _____ _____    ______ ____
ROOT
ATOM      4  O   UNL     1     -17.652   6.308  25.188  0.00  0.00    -0.273 OA
ATOM      5  O   UNL     1     -13.051   4.791  23.095  0.00  0.00    -0.270 OA
ATOM      6  N   UNL     1     -15.302   4.666  23.548  0.00  0.00    -0.283 N 
ATOM      7  N   UNL     1     -16.187   7.456  23.872  0.00  0.00    -0.283 N 
ATOM      8  C   UNL     1     -16.669   5.101  23.350  0.00  0.00    +0.165 C 
ATOM      9  C   UNL     1     -17.513   3.890  23.740  0.00  0.00    +0.065 C 
ATOM     10  C   UNL     1     -16.648   3.166  24.771  0.00  0.00    +0.134 C 
ATOM     11  C   UNL     1     -15.240   3.388  24.243  0.00  0.00    +0.140 C 
ATOM     12  C   UNL     1     -16.861   6.310  24.243  0.00  0.00    +0.238 C 
ATOM     13  C   UNL     1     -14.180   5.279  23.034  0.00  0.00    +0.249 C 
ATOM     14  C   UNL     1     -14.342   6.612  22.397  0.00  0.00    +0.059 A 
ATOM     15  C   UNL     1     -15.209   7.614  22.866  0.00  0.00    +0.046 A 
ATOM     16  C   UNL     1     -13.430   6.912  21.368  0.00  0.00    +0.023 A 
ATOM     17  C   UNL     1     -15.096   8.911  22.334  0.00  0.00    +0.024 A 
ATOM     18  C   UNL     1     -13.365   8.193  20.822  0.00  0.00    -0.014 A 
ATOM     19  C   UNL     1     -14.190   9.196  21.313  0.00  0.00    +0.010 A 
ATOM     26  H   UNL     1     -16.500   8.311  24.326  0.00  0.00    +0.155 HD
ENDROOT
BRANCH  18  20
ATOM      1  F   UNL     1     -13.951   7.669  18.124  0.00  0.00    -0.205 F 
ATOM      2  F   UNL     1      -9.737   9.309  16.736  0.00  0.00    -0.205 F 
ATOM     20  C   UNL     1     -12.426   8.482  19.759  0.00  0.00    +0.018 A 
ATOM     21  C   UNL     1     -12.761   8.206  18.434  0.00  0.00    +0.134 A 
ATOM     22  C   UNL     1     -11.184   9.037  20.063  0.00  0.00    +0.014 A 
ATOM     23  C   UNL     1     -11.853   8.485  17.412  0.00  0.00    +0.077 A 
ATOM     24  C   UNL     1     -10.276   9.317  19.043  0.00  0.00    +0.039 A 
ATOM     25  C   UNL     1     -10.611   9.040  17.716  0.00  0.00    +0.126 A 
ENDBRANCH  18  20
BRANCH  10   3
ATOM      3  O   UNL     1     -16.958   1.788  24.829  0.00  0.00    -0.390 OA
ATOM     27  H   UNL     1     -17.678   1.678  25.472  0.00  0.00    +0.210 HD
ENDBRANCH  10   3
TORSDOF 2
ENDMDL
