MODEL 1
REMARK VINA RESULT:      -5.8      0.000      0.000
REMARK  Name = 56775651
REMARK  8 active torsions:
REMARK  status: ('A' for Active; 'I' for Inactive)
REMARK    1  A    between atoms: O_4  and  C_17
REMARK    2  A    between atoms: O_4  and  C_20
REMARK    3  A    between atoms: N_5  and  C_7
REMARK    4  A    between atoms: N_5  and  C_12
REMARK    5  A    between atoms: C_7  and  C_10
REMARK    6  A    between atoms: C_10  and  C_11
REMARK    7  A    between atoms: C_12  and  C_14
REMARK    8  A    between atoms: C_15  and  C_17
REMARK                            x       y       z     vdW  Elec       q    Type
REMARK                         _______ _______ _______ _____ _____    ______ ____
ROOT
ATOM     10  C   UNL     1       9.207   5.651   5.805  0.00  0.00    +0.085 C 
ENDROOT
BRANCH  10  11
ATOM      2  O   UNL     1      11.374   5.745   2.968  0.00  0.00    -0.356 OA
ATOM      6  N   UNL     1      10.694   6.355   4.016  0.00  0.00    -0.083 NA
ATOM     11  C   UNL     1      10.043   5.362   4.629  0.00  0.00    +0.086 A 
ATOM     13  C   UNL     1      10.272   4.117   4.018  0.00  0.00    +0.074 A 
ATOM     15  C   UNL     1      11.114   4.413   2.980  0.00  0.00    +0.175 A 
BRANCH  15  17
ATOM     17  C   UNL     1      11.771   3.593   1.909  0.00  0.00    +0.306 C 
BRANCH  17   4
ATOM      4  O   UNL     1      13.187   3.663   2.072  0.00  0.00    -0.484 OA
BRANCH   4  20
ATOM     20  C   UNL     1      13.930   3.856   0.947  0.00  0.00    +0.121 A 
ATOM     21  C   UNL     1      13.304   3.948  -0.296  0.00  0.00    +0.045 A 
ATOM     22  C   UNL     1      15.318   3.962   1.038  0.00  0.00    +0.045 A 
ATOM     23  C   UNL     1      14.065   4.146  -1.447  0.00  0.00    +0.004 A 
ATOM     24  C   UNL     1      16.079   4.159  -0.113  0.00  0.00    +0.004 A 
ATOM     25  C   UNL     1      15.454   4.252  -1.357  0.00  0.00    +0.000 A 
ENDBRANCH   4  20
ENDBRANCH  17   4
ENDBRANCH  15  17
ENDBRANCH  10  11
BRANCH  10   7
ATOM      1  O   UNL     1       9.562   5.088   9.120  0.00  0.00    -0.376 OA
ATOM      7  C   UNL     1      10.030   5.591   7.098  0.00  0.00    +0.072 C 
ATOM      8  C   UNL     1       9.508   6.305   8.340  0.00  0.00    +0.184 C 
ATOM      9  C   UNL     1       9.969   4.332   7.956  0.00  0.00    +0.184 C 
BRANCH   7   5
ATOM      5  N   UNL     1      11.427   5.956   6.900  0.00  0.00    -0.300 NA
ATOM     26  H   UNL     1      11.787   5.793   5.961  0.00  0.00    +0.123 HD
BRANCH   5  12
ATOM     12  C   UNL     1      11.629   7.353   7.273  0.00  0.00    +0.156 C 
BRANCH  12  14
ATOM      3  O   UNL     1      13.958   6.901   6.729  0.00  0.00    -0.467 OA
ATOM     14  C   UNL     1      12.994   7.848   6.875  0.00  0.00    +0.119 A 
ATOM     16  C   UNL     1      13.503   9.099   6.614  0.00  0.00    +0.046 A 
ATOM     18  C   UNL     1      14.867   8.909   6.287  0.00  0.00    +0.041 A 
ATOM     19  C   UNL     1      15.095   7.556   6.372  0.00  0.00    +0.195 A 
ENDBRANCH  12  14
ENDBRANCH   5  12
ENDBRANCH   7   5
ENDBRANCH  10   7
TORSDOF 8
ENDMDL
MODEL 2
REMARK VINA RESULT:      -5.7     22.959     26.393
REMARK  Name = 56775651
REMARK  8 active torsions:
REMARK  status: ('A' for Active; 'I' for Inactive)
REMARK    1  A    between atoms: O_4  and  C_17
REMARK    2  A    between atoms: O_4  and  C_20
REMARK    3  A    between atoms: N_5  and  C_7
REMARK    4  A    between atoms: N_5  and  C_12
REMARK    5  A    between atoms: C_7  and  C_10
REMARK    6  A    between atoms: C_10  and  C_11
REMARK    7  A    between atoms: C_12  and  C_14
REMARK    8  A    between atoms: C_15  and  C_17
REMARK                            x       y       z     vdW  Elec       q    Type
REMARK                         _______ _______ _______ _____ _____    ______ ____
ROOT
ATOM     10  C   UNL     1      -4.741 -10.101  17.008  0.00  0.00    +0.085 C 
ENDROOT
BRANCH  10  11
ATOM      2  O   UNL     1      -1.775 -11.291  15.415  0.00  0.00    -0.356 OA
ATOM      6  N   UNL     1      -2.458 -10.766  16.506  0.00  0.00    -0.083 NA
ATOM     11  C   UNL     1      -3.722 -10.636  16.092  0.00  0.00    +0.086 A 
ATOM     13  C   UNL     1      -3.893 -11.058  14.762  0.00  0.00    +0.074 A 
ATOM     15  C   UNL     1      -2.640 -11.460  14.384  0.00  0.00    +0.175 A 
BRANCH  15  17
ATOM     17  C   UNL     1      -2.069 -12.022  13.115  0.00  0.00    +0.306 C 
BRANCH  17   4
ATOM      4  O   UNL     1      -1.750 -10.948  12.232  0.00  0.00    -0.484 OA
BRANCH   4  20
ATOM     20  C   UNL     1      -2.617 -10.710  11.209  0.00  0.00    +0.121 A 
ATOM     21  C   UNL     1      -2.727  -9.428  10.672  0.00  0.00    +0.045 A 
ATOM     22  C   UNL     1      -3.396 -11.749  10.700  0.00  0.00    +0.045 A 
ATOM     23  C   UNL     1      -3.614  -9.185   9.624  0.00  0.00    +0.004 A 
ATOM     24  C   UNL     1      -4.284 -11.506   9.654  0.00  0.00    +0.004 A 
ATOM     25  C   UNL     1      -4.394 -10.224   9.114  0.00  0.00    +0.000 A 
ENDBRANCH   4  20
ENDBRANCH  17   4
ENDBRANCH  15  17
ENDBRANCH  10  11
BRANCH  10   7
ATOM      1  O   UNL     1      -4.566 -13.141  18.476  0.00  0.00    -0.376 OA
ATOM      7  C   UNL     1      -5.254 -11.186  17.963  0.00  0.00    +0.072 C 
ATOM      8  C   UNL     1      -5.424 -12.608  17.441  0.00  0.00    +0.184 C 
ATOM      9  C   UNL     1      -4.287 -11.808  18.964  0.00  0.00    +0.184 C 
BRANCH   7   5
ATOM      5  N   UNL     1      -6.469 -10.796  18.665  0.00  0.00    -0.300 NA
ATOM     26  H   UNL     1      -6.547  -9.802  18.875  0.00  0.00    +0.123 HD
BRANCH   5  12
ATOM     12  C   UNL     1      -7.639 -11.235  17.908  0.00  0.00    +0.156 C 
BRANCH  12  14
ATOM      3  O   UNL     1      -8.235  -9.114  16.872  0.00  0.00    -0.467 OA
ATOM     14  C   UNL     1      -8.626 -10.117  17.702  0.00  0.00    +0.119 A 
ATOM     16  C   UNL     1      -9.890  -9.876  18.187  0.00  0.00    +0.046 A 
ATOM     18  C   UNL     1     -10.303  -8.647  17.619  0.00  0.00    +0.041 A 
ATOM     19  C   UNL     1      -9.261  -8.224  16.828  0.00  0.00    +0.195 A 
ENDBRANCH  12  14
ENDBRANCH   5  12
ENDBRANCH   7   5
ENDBRANCH  10   7
TORSDOF 8
ENDMDL
MODEL 3
REMARK VINA RESULT:      -5.7      2.175      3.797
REMARK  Name = 56775651
REMARK  8 active torsions:
REMARK  status: ('A' for Active; 'I' for Inactive)
REMARK    1  A    between atoms: O_4  and  C_17
REMARK    2  A    between atoms: O_4  and  C_20
REMARK    3  A    between atoms: N_5  and  C_7
REMARK    4  A    between atoms: N_5  and  C_12
REMARK    5  A    between atoms: C_7  and  C_10
REMARK    6  A    between atoms: C_10  and  C_11
REMARK    7  A    between atoms: C_12  and  C_14
REMARK    8  A    between atoms: C_15  and  C_17
REMARK                            x       y       z     vdW  Elec       q    Type
REMARK                         _______ _______ _______ _____ _____    ______ ____
ROOT
ATOM     10  C   UNL     1      11.283   7.545   5.256  0.00  0.00    +0.085 C 
ENDROOT
BRANCH  10  11
ATOM      2  O   UNL     1      10.506   4.703   3.238  0.00  0.00    -0.356 OA
ATOM      6  N   UNL     1      10.610   5.347   4.465  0.00  0.00    -0.083 NA
ATOM     11  C   UNL     1      11.056   6.573   4.175  0.00  0.00    +0.086 A 
ATOM     13  C   UNL     1      11.250   6.757   2.795  0.00  0.00    +0.074 A 
ATOM     15  C   UNL     1      10.891   5.552   2.252  0.00  0.00    +0.175 A 
BRANCH  15  17
ATOM     17  C   UNL     1      10.841   5.017   0.851  0.00  0.00    +0.306 C 
BRANCH  17   4
ATOM      4  O   UNL     1      11.549   3.779   0.800  0.00  0.00    -0.484 OA
BRANCH   4  20
ATOM     20  C   UNL     1      12.896   3.844   0.610  0.00  0.00    +0.121 A 
ATOM     21  C   UNL     1      13.409   4.283  -0.610  0.00  0.00    +0.045 A 
ATOM     22  C   UNL     1      13.763   3.470   1.638  0.00  0.00    +0.045 A 
ATOM     23  C   UNL     1      14.788   4.350  -0.803  0.00  0.00    +0.004 A 
ATOM     24  C   UNL     1      15.142   3.536   1.444  0.00  0.00    +0.004 A 
ATOM     25  C   UNL     1      15.656   3.976   0.224  0.00  0.00    +0.000 A 
ENDBRANCH   4  20
ENDBRANCH  17   4
ENDBRANCH  15  17
ENDBRANCH  10  11
BRANCH  10   7
ATOM      1  O   UNL     1       9.331  10.281   5.624  0.00  0.00    -0.376 OA
ATOM      7  C   UNL     1       9.979   8.246   5.655  0.00  0.00    +0.072 C 
ATOM      8  C   UNL     1      10.044   9.458   6.577  0.00  0.00    +0.184 C 
ATOM      9  C   UNL     1       9.318   9.198   4.664  0.00  0.00    +0.184 C 
BRANCH   7   5
ATOM      5  N   UNL     1       8.972   7.325   6.163  0.00  0.00    -0.300 NA
ATOM     26  H   UNL     1       9.079   6.357   5.862  0.00  0.00    +0.123 HD
BRANCH   5  12
ATOM     12  C   UNL     1       8.936   7.388   7.622  0.00  0.00    +0.156 C 
BRANCH  12  14
ATOM      3  O   UNL     1       8.786   5.889   9.534  0.00  0.00    -0.467 OA
ATOM     14  C   UNL     1       9.196   6.044   8.248  0.00  0.00    +0.119 A 
ATOM     16  C   UNL     1       9.781   4.887   7.785  0.00  0.00    +0.046 A 
ATOM     18  C   UNL     1       9.726   3.963   8.855  0.00  0.00    +0.041 A 
ATOM     19  C   UNL     1       9.113   4.620   9.896  0.00  0.00    +0.195 A 
ENDBRANCH  12  14
ENDBRANCH   5  12
ENDBRANCH   7   5
ENDBRANCH  10   7
TORSDOF 8
ENDMDL
MODEL 4
REMARK VINA RESULT:      -5.6     23.123     25.933
REMARK  Name = 56775651
REMARK  8 active torsions:
REMARK  status: ('A' for Active; 'I' for Inactive)
REMARK    1  A    between atoms: O_4  and  C_17
REMARK    2  A    between atoms: O_4  and  C_20
REMARK    3  A    between atoms: N_5  and  C_7
REMARK    4  A    between atoms: N_5  and  C_12
REMARK    5  A    between atoms: C_7  and  C_10
REMARK    6  A    between atoms: C_10  and  C_11
REMARK    7  A    between atoms: C_12  and  C_14
REMARK    8  A    between atoms: C_15  and  C_17
REMARK                            x       y       z     vdW  Elec       q    Type
REMARK                         _______ _______ _______ _____ _____    ______ ____
ROOT
ATOM     10  C   UNL     1      -4.430 -10.662  17.266  0.00  0.00    +0.085 C 
ENDROOT
BRANCH  10  11
ATOM      2  O   UNL     1      -3.315 -12.972  14.781  0.00  0.00    -0.356 OA
ATOM      6  N   UNL     1      -4.019 -12.656  15.937  0.00  0.00    -0.083 NA
ATOM     11  C   UNL     1      -3.819 -11.347  16.116  0.00  0.00    +0.086 A 
ATOM     13  C   UNL     1      -3.006 -10.790  15.114  0.00  0.00    +0.074 A 
ATOM     15  C   UNL     1      -2.717 -11.853  14.301  0.00  0.00    +0.175 A 
BRANCH  15  17
ATOM     17  C   UNL     1      -1.909 -12.012  13.046  0.00  0.00    +0.306 C 
BRANCH  17   4
ATOM      4  O   UNL     1      -1.866 -10.763  12.358  0.00  0.00    -0.484 OA
BRANCH   4  20
ATOM     20  C   UNL     1      -2.679 -10.625  11.275  0.00  0.00    +0.121 A 
ATOM     21  C   UNL     1      -2.851  -9.374  10.685  0.00  0.00    +0.045 A 
ATOM     22  C   UNL     1      -3.341 -11.738  10.755  0.00  0.00    +0.045 A 
ATOM     23  C   UNL     1      -3.683  -9.234   9.575  0.00  0.00    +0.004 A 
ATOM     24  C   UNL     1      -4.174 -11.598   9.646  0.00  0.00    +0.004 A 
ATOM     25  C   UNL     1      -4.346 -10.346   9.055  0.00  0.00    +0.000 A 
ENDBRANCH   4  20
ENDBRANCH  17   4
ENDBRANCH  15  17
ENDBRANCH  10  11
BRANCH  10   7
ATOM      1  O   UNL     1      -7.172 -11.334  19.127  0.00  0.00    -0.376 OA
ATOM      7  C   UNL     1      -5.902 -11.063  17.432  0.00  0.00    +0.072 C 
ATOM      8  C   UNL     1      -6.256 -12.186  18.400  0.00  0.00    +0.184 C 
ATOM      9  C   UNL     1      -6.809 -10.201  18.303  0.00  0.00    +0.184 C 
BRANCH   7   5
ATOM      5  N   UNL     1      -6.569 -11.312  16.162  0.00  0.00    -0.300 NA
ATOM     26  H   UNL     1      -7.267 -12.055  16.178  0.00  0.00    +0.123 HD
BRANCH   5  12
ATOM     12  C   UNL     1      -7.174 -10.076  15.672  0.00  0.00    +0.156 C 
BRANCH  12  14
ATOM      3  O   UNL     1      -8.160  -9.573  13.503  0.00  0.00    -0.467 OA
ATOM     14  C   UNL     1      -7.039  -9.939  14.178  0.00  0.00    +0.119 A 
ATOM     16  C   UNL     1      -5.985 -10.107  13.310  0.00  0.00    +0.046 A 
ATOM     18  C   UNL     1      -6.492  -9.827  12.018  0.00  0.00    +0.041 A 
ATOM     19  C   UNL     1      -7.819  -9.509  12.190  0.00  0.00    +0.195 A 
ENDBRANCH  12  14
ENDBRANCH   5  12
ENDBRANCH   7   5
ENDBRANCH  10   7
TORSDOF 8
ENDMDL
MODEL 5
REMARK VINA RESULT:      -5.6      3.200      8.163
REMARK  Name = 56775651
REMARK  8 active torsions:
REMARK  status: ('A' for Active; 'I' for Inactive)
REMARK    1  A    between atoms: O_4  and  C_17
REMARK    2  A    between atoms: O_4  and  C_20
REMARK    3  A    between atoms: N_5  and  C_7
REMARK    4  A    between atoms: N_5  and  C_12
REMARK    5  A    between atoms: C_7  and  C_10
REMARK    6  A    between atoms: C_10  and  C_11
REMARK    7  A    between atoms: C_12  and  C_14
REMARK    8  A    between atoms: C_15  and  C_17
REMARK                            x       y       z     vdW  Elec       q    Type
REMARK                         _______ _______ _______ _____ _____    ______ ____
ROOT
ATOM     10  C   UNL     1      10.568   5.910  -1.106  0.00  0.00    +0.085 C 
ENDROOT
BRANCH  10  11
ATOM      2  O   UNL     1       9.904   4.191   1.953  0.00  0.00    -0.356 OA
ATOM      6  N   UNL     1       9.764   4.354   0.580  0.00  0.00    -0.083 NA
ATOM     11  C   UNL     1      10.488   5.438   0.285  0.00  0.00    +0.086 A 
ATOM     13  C   UNL     1      11.099   5.996   1.421  0.00  0.00    +0.074 A 
ATOM     15  C   UNL     1      10.700   5.175   2.442  0.00  0.00    +0.175 A 
BRANCH  15  17
ATOM     17  C   UNL     1      10.960   5.153   3.920  0.00  0.00    +0.306 C 
BRANCH  17   4
ATOM      4  O   UNL     1       9.749   4.830   4.601  0.00  0.00    -0.484 OA
BRANCH   4  20
ATOM     20  C   UNL     1       9.422   5.596   5.678  0.00  0.00    +0.121 A 
ATOM     21  C   UNL     1       8.600   6.711   5.518  0.00  0.00    +0.045 A 
ATOM     22  C   UNL     1       9.909   5.265   6.943  0.00  0.00    +0.045 A 
ATOM     23  C   UNL     1       8.265   7.496   6.621  0.00  0.00    +0.004 A 
ATOM     24  C   UNL     1       9.575   6.049   8.046  0.00  0.00    +0.004 A 
ATOM     25  C   UNL     1       8.753   7.165   7.886  0.00  0.00    +0.000 A 
ENDBRANCH   4  20
ENDBRANCH  17   4
ENDBRANCH  15  17
ENDBRANCH  10  11
BRANCH  10   7
ATOM      1  O   UNL     1      10.627   4.501  -4.179  0.00  0.00    -0.376 OA
ATOM      7  C   UNL     1      10.847   4.749  -2.070  0.00  0.00    +0.072 C 
ATOM      8  C   UNL     1       9.754   4.316  -3.040  0.00  0.00    +0.184 C 
ATOM      9  C   UNL     1      11.675   5.011  -3.323  0.00  0.00    +0.184 C 
BRANCH   7   5
ATOM      5  N   UNL     1      11.373   3.568  -1.399  0.00  0.00    -0.300 NA
ATOM     26  H   UNL     1      10.887   2.698  -1.610  0.00  0.00    +0.123 HD
BRANCH   5  12
ATOM     12  C   UNL     1      12.796   3.425  -1.696  0.00  0.00    +0.156 C 
BRANCH  12  14
ATOM      3  O   UNL     1      14.904   4.007  -0.627  0.00  0.00    -0.467 OA
ATOM     14  C   UNL     1      13.642   3.534  -0.455  0.00  0.00    +0.119 A 
ATOM     16  C   UNL     1      13.408   3.251   0.871  0.00  0.00    +0.046 A 
ATOM     18  C   UNL     1      14.604   3.570   1.558  0.00  0.00    +0.041 A 
ATOM     19  C   UNL     1      15.483   4.025   0.603  0.00  0.00    +0.195 A 
ENDBRANCH  12  14
ENDBRANCH   5  12
ENDBRANCH   7   5
ENDBRANCH  10   7
TORSDOF 8
ENDMDL
MODEL 6
REMARK VINA RESULT:      -5.6     23.898     28.158
REMARK  Name = 56775651
REMARK  8 active torsions:
REMARK  status: ('A' for Active; 'I' for Inactive)
REMARK    1  A    between atoms: O_4  and  C_17
REMARK    2  A    between atoms: O_4  and  C_20
REMARK    3  A    between atoms: N_5  and  C_7
REMARK    4  A    between atoms: N_5  and  C_12
REMARK    5  A    between atoms: C_7  and  C_10
REMARK    6  A    between atoms: C_10  and  C_11
REMARK    7  A    between atoms: C_12  and  C_14
REMARK    8  A    between atoms: C_15  and  C_17
REMARK                            x       y       z     vdW  Elec       q    Type
REMARK                         _______ _______ _______ _____ _____    ______ ____
ROOT
ATOM     10  C   UNL     1      -2.601 -10.801  15.986  0.00  0.00    +0.085 C 
ENDROOT
BRANCH  10  11
ATOM      2  O   UNL     1      -5.767 -10.271  17.551  0.00  0.00    -0.356 OA
ATOM      6  N   UNL     1      -4.862 -10.081  16.513  0.00  0.00    -0.083 NA
ATOM     11  C   UNL     1      -3.778 -10.776  16.869  0.00  0.00    +0.086 A 
ATOM     13  C   UNL     1      -3.940 -11.418  18.109  0.00  0.00    +0.074 A 
ATOM     15  C   UNL     1      -5.206 -11.068  18.494  0.00  0.00    +0.175 A 
BRANCH  15  17
ATOM     17  C   UNL     1      -6.050 -11.380  19.695  0.00  0.00    +0.306 C 
BRANCH  17   4
ATOM      4  O   UNL     1      -6.918 -12.469  19.385  0.00  0.00    -0.484 OA
BRANCH   4  20
ATOM     20  C   UNL     1      -8.236 -12.318  19.692  0.00  0.00    +0.121 A 
ATOM     21  C   UNL     1      -8.849 -11.075  19.540  0.00  0.00    +0.045 A 
ATOM     22  C   UNL     1      -8.972 -13.407  20.159  0.00  0.00    +0.045 A 
ATOM     23  C   UNL     1     -10.199 -10.920  19.854  0.00  0.00    +0.004 A 
ATOM     24  C   UNL     1     -10.321 -13.252  20.474  0.00  0.00    +0.004 A 
ATOM     25  C   UNL     1     -10.936 -12.009  20.322  0.00  0.00    +0.000 A 
ENDBRANCH   4  20
ENDBRANCH  17   4
ENDBRANCH  15  17
ENDBRANCH  10  11
BRANCH  10   7
ATOM      1  O   UNL     1      -2.492 -13.646  14.163  0.00  0.00    -0.376 OA
ATOM      7  C   UNL     1      -2.875 -11.620  14.719  0.00  0.00    +0.072 C 
ATOM      8  C   UNL     1      -1.735 -12.416  14.093  0.00  0.00    +0.184 C 
ATOM      9  C   UNL     1      -3.573 -12.969  14.847  0.00  0.00    +0.184 C 
BRANCH   7   5
ATOM      5  N   UNL     1      -3.535 -10.848  13.675  0.00  0.00    -0.300 NA
ATOM     26  H   UNL     1      -3.919  -9.953  13.977  0.00  0.00    +0.123 HD
BRANCH   5  12
ATOM     12  C   UNL     1      -2.617 -10.641  12.559  0.00  0.00    +0.156 C 
BRANCH  12  14
ATOM      3  O   UNL     1      -4.654 -10.160  11.314  0.00  0.00    -0.467 OA
ATOM     14  C   UNL     1      -3.304 -10.010  11.377  0.00  0.00    +0.119 A 
ATOM     16  C   UNL     1      -2.849  -9.281  10.302  0.00  0.00    +0.046 A 
ATOM     18  C   UNL     1      -3.991  -8.964   9.529  0.00  0.00    +0.041 A 
ATOM     19  C   UNL     1      -5.063  -9.522  10.186  0.00  0.00    +0.195 A 
ENDBRANCH  12  14
ENDBRANCH   5  12
ENDBRANCH   7   5
ENDBRANCH  10   7
TORSDOF 8
ENDMDL
MODEL 7
REMARK VINA RESULT:      -5.5     23.885     27.212
REMARK  Name = 56775651
REMARK  8 active torsions:
REMARK  status: ('A' for Active; 'I' for Inactive)
REMARK    1  A    between atoms: O_4  and  C_17
REMARK    2  A    between atoms: O_4  and  C_20
REMARK    3  A    between atoms: N_5  and  C_7
REMARK    4  A    between atoms: N_5  and  C_12
REMARK    5  A    between atoms: C_7  and  C_10
REMARK    6  A    between atoms: C_10  and  C_11
REMARK    7  A    between atoms: C_12  and  C_14
REMARK    8  A    between atoms: C_15  and  C_17
REMARK                            x       y       z     vdW  Elec       q    Type
REMARK                         _______ _______ _______ _____ _____    ______ ____
ROOT
ATOM     10  C   UNL     1      -9.308 -11.645  17.103  0.00  0.00    +0.085 C 
ENDROOT
BRANCH  10  11
ATOM      2  O   UNL     1      -8.892  -9.162  14.570  0.00  0.00    -0.356 OA
ATOM      6  N   UNL     1      -9.502  -9.658  15.716  0.00  0.00    -0.083 NA
ATOM     11  C   UNL     1      -8.905 -10.831  15.946  0.00  0.00    +0.086 A 
ATOM     13  C   UNL     1      -7.921 -11.125  14.986  0.00  0.00    +0.074 A 
ATOM     15  C   UNL     1      -7.953 -10.045  14.145  0.00  0.00    +0.175 A 
BRANCH  15  17
ATOM     17  C   UNL     1      -7.191  -9.668  12.908  0.00  0.00    +0.306 C 
BRANCH  17   4
ATOM      4  O   UNL     1      -5.841 -10.112  13.040  0.00  0.00    -0.484 OA
BRANCH   4  20
ATOM     20  C   UNL     1      -4.984  -9.792  12.032  0.00  0.00    +0.121 A 
ATOM     21  C   UNL     1      -5.394  -8.932  11.014  0.00  0.00    +0.045 A 
ATOM     22  C   UNL     1      -3.695 -10.325  12.018  0.00  0.00    +0.045 A 
ATOM     23  C   UNL     1      -4.515  -8.603   9.982  0.00  0.00    +0.004 A 
ATOM     24  C   UNL     1      -2.817  -9.998  10.986  0.00  0.00    +0.004 A 
ATOM     25  C   UNL     1      -3.225  -9.137   9.967  0.00  0.00    +0.000 A 
ENDBRANCH   4  20
ENDBRANCH  17   4
ENDBRANCH  15  17
ENDBRANCH  10  11
BRANCH  10   7
ATOM      1  O   UNL     1      -9.907 -11.007  20.369  0.00  0.00    -0.376 OA
ATOM      7  C   UNL     1      -9.039 -10.907  18.421  0.00  0.00    +0.072 C 
ATOM      8  C   UNL     1     -10.207 -10.268  19.162  0.00  0.00    +0.184 C 
ATOM      9  C   UNL     1      -8.843 -11.719  19.696  0.00  0.00    +0.184 C 
BRANCH   7   5
ATOM      5  N   UNL     1      -7.961  -9.932  18.315  0.00  0.00    -0.300 NA
ATOM     26  H   UNL     1      -8.201  -8.989  18.617  0.00  0.00    +0.123 HD
BRANCH   5  12
ATOM     12  C   UNL     1      -6.794 -10.406  19.054  0.00  0.00    +0.156 C 
BRANCH  12  14
ATOM      3  O   UNL     1      -5.583  -9.908  17.001  0.00  0.00    -0.467 OA
ATOM     14  C   UNL     1      -5.613 -10.636  18.148  0.00  0.00    +0.119 A 
ATOM     16  C   UNL     1      -4.509 -11.453  18.231  0.00  0.00    +0.046 A 
ATOM     18  C   UNL     1      -3.753 -11.212  17.059  0.00  0.00    +0.041 A 
ATOM     19  C   UNL     1      -4.448 -10.265  16.344  0.00  0.00    +0.195 A 
ENDBRANCH  12  14
ENDBRANCH   5  12
ENDBRANCH   7   5
ENDBRANCH  10   7
TORSDOF 8
ENDMDL
MODEL 8
REMARK VINA RESULT:      -5.5      3.170      6.548
REMARK  Name = 56775651
REMARK  8 active torsions:
REMARK  status: ('A' for Active; 'I' for Inactive)
REMARK    1  A    between atoms: O_4  and  C_17
REMARK    2  A    between atoms: O_4  and  C_20
REMARK    3  A    between atoms: N_5  and  C_7
REMARK    4  A    between atoms: N_5  and  C_12
REMARK    5  A    between atoms: C_7  and  C_10
REMARK    6  A    between atoms: C_10  and  C_11
REMARK    7  A    between atoms: C_12  and  C_14
REMARK    8  A    between atoms: C_15  and  C_17
REMARK                            x       y       z     vdW  Elec       q    Type
REMARK                         _______ _______ _______ _____ _____    ______ ____
ROOT
ATOM     10  C   UNL     1      11.828   8.044   5.785  0.00  0.00    +0.085 C 
ENDROOT
BRANCH  10  11
ATOM      2  O   UNL     1      15.350   7.590   6.166  0.00  0.00    -0.356 OA
ATOM      6  N   UNL     1      14.032   7.197   6.365  0.00  0.00    -0.083 NA
ATOM     11  C   UNL     1      13.296   8.141   5.771  0.00  0.00    +0.086 A 
ATOM     13  C   UNL     1      14.088   9.145   5.186  0.00  0.00    +0.074 A 
ATOM     15  C   UNL     1      15.370   8.751   5.463  0.00  0.00    +0.175 A 
BRANCH  15  17
ATOM     17  C   UNL     1      16.722   9.324   5.156  0.00  0.00    +0.306 C 
BRANCH  17   4
ATOM      4  O   UNL     1      17.555   8.294   4.625  0.00  0.00    -0.484 OA
BRANCH   4  20
ATOM     20  C   UNL     1      18.811   8.187   5.140  0.00  0.00    +0.121 A 
ATOM     21  C   UNL     1      19.062   8.579   6.455  0.00  0.00    +0.045 A 
ATOM     22  C   UNL     1      19.847   7.686   4.352  0.00  0.00    +0.045 A 
ATOM     23  C   UNL     1      20.348   8.468   6.982  0.00  0.00    +0.004 A 
ATOM     24  C   UNL     1      21.133   7.576   4.879  0.00  0.00    +0.004 A 
ATOM     25  C   UNL     1      21.385   7.967   6.194  0.00  0.00    +0.000 A 
ENDBRANCH   4  20
ENDBRANCH  17   4
ENDBRANCH  15  17
ENDBRANCH  10  11
BRANCH  10   7
ATOM      1  O   UNL     1      10.600   6.880   2.858  0.00  0.00    -0.376 OA
ATOM      7  C   UNL     1      11.338   6.922   4.861  0.00  0.00    +0.072 C 
ATOM      8  C   UNL     1       9.995   7.079   4.157  0.00  0.00    +0.184 C 
ATOM      9  C   UNL     1      11.916   6.816   3.454  0.00  0.00    +0.184 C 
BRANCH   7   5
ATOM      5  N   UNL     1      11.387   5.608   5.488  0.00  0.00    -0.300 NA
ATOM     26  H   UNL     1      11.949   5.555   6.337  0.00  0.00    +0.123 HD
BRANCH   5  12
ATOM     12  C   UNL     1      10.031   5.140   5.762  0.00  0.00    +0.156 C 
BRANCH  12  14
ATOM      3  O   UNL     1       9.790   3.901   7.843  0.00  0.00    -0.467 OA
ATOM     14  C   UNL     1       9.733   5.116   7.237  0.00  0.00    +0.119 A 
ATOM     16  C   UNL     1       9.404   6.095   8.147  0.00  0.00    +0.046 A 
ATOM     18  C   UNL     1       9.249   5.438   9.391  0.00  0.00    +0.041 A 
ATOM     19  C   UNL     1       9.493   4.106   9.153  0.00  0.00    +0.195 A 
ENDBRANCH  12  14
ENDBRANCH   5  12
ENDBRANCH   7   5
ENDBRANCH  10   7
TORSDOF 8
ENDMDL
MODEL 9
REMARK VINA RESULT:      -5.5     24.774     28.253
REMARK  Name = 56775651
REMARK  8 active torsions:
REMARK  status: ('A' for Active; 'I' for Inactive)
REMARK    1  A    between atoms: O_4  and  C_17
REMARK    2  A    between atoms: O_4  and  C_20
REMARK    3  A    between atoms: N_5  and  C_7
REMARK    4  A    between atoms: N_5  and  C_12
REMARK    5  A    between atoms: C_7  and  C_10
REMARK    6  A    between atoms: C_10  and  C_11
REMARK    7  A    between atoms: C_12  and  C_14
REMARK    8  A    between atoms: C_15  and  C_17
REMARK                            x       y       z     vdW  Elec       q    Type
REMARK                         _______ _______ _______ _____ _____    ______ ____
ROOT
ATOM     10  C   UNL     1     -10.175  -9.863  17.910  0.00  0.00    +0.085 C 
ENDROOT
BRANCH  10  11
ATOM      2  O   UNL     1      -6.957  -9.228  16.496  0.00  0.00    -0.356 OA
ATOM      6  N   UNL     1      -7.965  -8.975  17.419  0.00  0.00    -0.083 NA
ATOM     11  C   UNL     1      -8.933  -9.846  17.119  0.00  0.00    +0.086 A 
ATOM     13  C   UNL     1      -8.595 -10.664  16.028  0.00  0.00    +0.074 A 
ATOM     15  C   UNL     1      -7.344 -10.235  15.674  0.00  0.00    +0.175 A 
BRANCH  15  17
ATOM     17  C   UNL     1      -6.369 -10.641  14.608  0.00  0.00    +0.306 C 
BRANCH  17   4
ATOM      4  O   UNL     1      -5.055 -10.254  15.006  0.00  0.00    -0.484 OA
BRANCH   4  20
ATOM     20  C   UNL     1      -4.021 -10.691  14.236  0.00  0.00    +0.121 A 
ATOM     21  C   UNL     1      -4.068 -10.536  12.851  0.00  0.00    +0.045 A 
ATOM     22  C   UNL     1      -2.914 -11.294  14.833  0.00  0.00    +0.045 A 
ATOM     23  C   UNL     1      -3.008 -10.983  12.062  0.00  0.00    +0.004 A 
ATOM     24  C   UNL     1      -1.855 -11.742  14.044  0.00  0.00    +0.004 A 
ATOM     25  C   UNL     1      -1.901 -11.587  12.659  0.00  0.00    +0.000 A 
ENDBRANCH   4  20
ENDBRANCH  17   4
ENDBRANCH  15  17
ENDBRANCH  10  11
BRANCH  10   7
ATOM      1  O   UNL     1     -11.330 -11.810  20.420  0.00  0.00    -0.376 OA
ATOM      7  C   UNL     1      -9.998 -10.669  19.202  0.00  0.00    +0.072 C 
ATOM      8  C   UNL     1     -10.950 -10.416  20.366  0.00  0.00    +0.184 C 
ATOM      9  C   UNL     1     -10.519 -12.101  19.258  0.00  0.00    +0.184 C 
BRANCH   7   5
ATOM      5  N   UNL     1      -8.630 -10.648  19.702  0.00  0.00    -0.300 NA
ATOM     26  H   UNL     1      -8.519 -10.268  20.641  0.00  0.00    +0.123 HD
BRANCH   5  12
ATOM     12  C   UNL     1      -8.062 -11.992  19.642  0.00  0.00    +0.156 C 
BRANCH  12  14
ATOM      3  O   UNL     1      -5.888 -10.966  19.259  0.00  0.00    -0.467 OA
ATOM     14  C   UNL     1      -6.717 -12.003  18.967  0.00  0.00    +0.119 A 
ATOM     16  C   UNL     1      -6.114 -12.869  18.085  0.00  0.00    +0.046 A 
ATOM     18  C   UNL     1      -4.833 -12.329  17.816  0.00  0.00    +0.041 A 
ATOM     19  C   UNL     1      -4.745 -11.172  18.554  0.00  0.00    +0.195 A 
ENDBRANCH  12  14
ENDBRANCH   5  12
ENDBRANCH   7   5
ENDBRANCH  10   7
TORSDOF 8
ENDMDL
MODEL 10
REMARK VINA RESULT:      -5.5     30.727     35.140
REMARK  Name = 56775651
REMARK  8 active torsions:
REMARK  status: ('A' for Active; 'I' for Inactive)
REMARK    1  A    between atoms: O_4  and  C_17
REMARK    2  A    between atoms: O_4  and  C_20
REMARK    3  A    between atoms: N_5  and  C_7
REMARK    4  A    between atoms: N_5  and  C_12
REMARK    5  A    between atoms: C_7  and  C_10
REMARK    6  A    between atoms: C_10  and  C_11
REMARK    7  A    between atoms: C_12  and  C_14
REMARK    8  A    between atoms: C_15  and  C_17
REMARK                            x       y       z     vdW  Elec       q    Type
REMARK                         _______ _______ _______ _____ _____    ______ ____
ROOT
ATOM     10  C   UNL     1     -18.142   3.205  25.669  0.00  0.00    +0.085 C 
ENDROOT
BRANCH  10  11
ATOM      2  O   UNL     1     -15.993   3.706  22.860  0.00  0.00    -0.356 OA
ATOM      6  N   UNL     1     -17.176   3.262  23.438  0.00  0.00    -0.083 NA
ATOM     11  C   UNL     1     -17.053   3.544  24.739  0.00  0.00    +0.086 A 
ATOM     13  C   UNL     1     -15.825   4.160  25.036  0.00  0.00    +0.074 A 
ATOM     15  C   UNL     1     -15.197   4.238  23.822  0.00  0.00    +0.175 A 
BRANCH  15  17
ATOM     17  C   UNL     1     -13.869   4.771  23.372  0.00  0.00    +0.306 C 
BRANCH  17   4
ATOM      4  O   UNL     1     -13.939   5.086  21.982  0.00  0.00    -0.484 OA
BRANCH   4  20
ATOM     20  C   UNL     1     -13.403   6.274  21.588  0.00  0.00    +0.121 A 
ATOM     21  C   UNL     1     -14.115   7.458  21.777  0.00  0.00    +0.045 A 
ATOM     22  C   UNL     1     -12.141   6.306  20.995  0.00  0.00    +0.045 A 
ATOM     23  C   UNL     1     -13.565   8.675  21.375  0.00  0.00    +0.004 A 
ATOM     24  C   UNL     1     -11.591   7.523  20.592  0.00  0.00    +0.004 A 
ATOM     25  C   UNL     1     -12.303   8.708  20.781  0.00  0.00    +0.000 A 
ENDBRANCH   4  20
ENDBRANCH  17   4
ENDBRANCH  15  17
ENDBRANCH  10  11
BRANCH  10   7
ATOM      1  O   UNL     1     -17.830  -0.161  25.610  0.00  0.00    -0.376 OA
ATOM      7  C   UNL     1     -17.898   1.846  26.336  0.00  0.00    +0.072 C 
ATOM      8  C   UNL     1     -18.883   0.711  26.081  0.00  0.00    +0.184 C 
ATOM      9  C   UNL     1     -16.859   0.904  25.739  0.00  0.00    +0.184 C 
BRANCH   7   5
ATOM      5  N   UNL     1     -17.666   1.951  27.771  0.00  0.00    -0.300 NA
ATOM     26  H   UNL     1     -18.005   1.165  28.323  0.00  0.00    +0.123 HD
BRANCH   5  12
ATOM     12  C   UNL     1     -16.243   2.158  28.026  0.00  0.00    +0.156 C 
BRANCH  12  14
ATOM      3  O   UNL     1     -15.934   0.141  29.354  0.00  0.00    -0.467 OA
ATOM     14  C   UNL     1     -15.800   1.492  29.302  0.00  0.00    +0.119 A 
ATOM     16  C   UNL     1     -15.264   1.970  30.475  0.00  0.00    +0.046 A 
ATOM     18  C   UNL     1     -15.055   0.840  31.301  0.00  0.00    +0.041 A 
ATOM     19  C   UNL     1     -15.480  -0.248  30.574  0.00  0.00    +0.195 A 
ENDBRANCH  12  14
ENDBRANCH   5  12
ENDBRANCH   7   5
ENDBRANCH  10   7
TORSDOF 8
ENDMDL
