MODEL 1
REMARK VINA RESULT:      -7.1      0.000      0.000
REMARK  Name = 11882552
REMARK  14 active torsions:
REMARK  status: ('A' for Active; 'I' for Inactive)
REMARK    1  A    between atoms: S_2  and  C_31
REMARK    2  A    between atoms: S_2  and  C_35
REMARK    3  A    between atoms: O_3  and  C_13
REMARK    4  A    between atoms: O_4  and  C_16
REMARK    5  A    between atoms: O_5  and  C_18
REMARK    6  A    between atoms: O_9  and  C_26
REMARK    7  A    between atoms: O_9  and  C_34
REMARK    8  A    between atoms: N_10  and  C_14
REMARK    9  A    between atoms: N_11  and  C_21
REMARK   10  A    between atoms: C_13  and  C_19
REMARK   11  A    between atoms: C_20  and  C_23
REMARK   12  A    between atoms: C_21  and  C_22
REMARK   13  A    between atoms: C_21  and  C_24
REMARK   14  A    between atoms: C_22  and  C_25
REMARK                            x       y       z     vdW  Elec       q    Type
REMARK                         _______ _______ _______ _____ _____    ______ ____
ROOT
ATOM     13  C   UNL     1      -6.668 -10.856  19.021  0.00  0.00    +0.146 C 
ATOM     14  C   UNL     1      -4.974 -10.258  17.224  0.00  0.00    +0.107 C 
ATOM     15  C   UNL     1      -6.458 -10.423  17.569  0.00  0.00    +0.069 C 
ATOM     16  C   UNL     1      -4.164 -11.516  17.568  0.00  0.00    +0.163 C 
ATOM     17  C   UNL     1      -5.873 -12.118  19.345  0.00  0.00    +0.078 C 
ATOM     18  C   UNL     1      -4.388 -11.965  19.014  0.00  0.00    +0.148 C 
ENDROOT
BRANCH  13  19
ATOM      6  O   UNL     1      -8.516 -11.989  20.023  0.00  0.00    -0.273 OA
ATOM     11  N   UNL     1      -8.929 -10.159  18.645  0.00  0.00    -0.301 N 
ATOM     19  C   UNL     1      -8.126 -11.075  19.302  0.00  0.00    +0.246 C 
ATOM     40  H   UNL     1      -8.515  -9.483  18.013  0.00  0.00    +0.150 HD
BRANCH  11  21
ATOM     21  C   UNL     1     -10.372 -10.168  18.732  0.00  0.00    +0.163 C 
BRANCH  21  24
ATOM      8  O   UNL     1     -11.967  -9.110  17.235  0.00  0.00    -0.274 OA
ATOM     12  N   UNL     1     -10.018  -7.999  17.728  0.00  0.00    -0.328 N 
ATOM     24  C   UNL     1     -10.882  -9.071  17.811  0.00  0.00    +0.231 C 
ATOM     41  H   UNL     1     -10.244  -7.191  17.158  0.00  0.00    +0.145 HD
ATOM     42  H   UNL     1      -9.125  -7.979  18.211  0.00  0.00    +0.145 HD
ENDBRANCH  21  24
BRANCH  21  22
ATOM     22  C   UNL     1     -10.867  -9.936  20.165  0.00  0.00    +0.074 C 
BRANCH  22  25
ATOM      1  S   UNL     1     -12.600 -12.079  20.298  0.00  0.00    -0.102 S 
ATOM     25  C   UNL     1     -12.284 -10.413  20.376  0.00  0.00    -0.008 A 
ATOM     29  C   UNL     1     -13.383  -9.655  20.631  0.00  0.00    +0.011 A 
ATOM     32  C   UNL     1     -14.544 -10.468  20.771  0.00  0.00    +0.008 A 
ATOM     33  C   UNL     1     -14.261 -11.807  20.612  0.00  0.00    +0.045 A 
ENDBRANCH  22  25
ENDBRANCH  21  22
ENDBRANCH  11  21
ENDBRANCH  13  19
BRANCH  14  10
ATOM      7  O   UNL     1      -5.906 -11.809  14.995  0.00  0.00    -0.270 OA
ATOM     10  N   UNL     1      -4.832  -9.929  15.823  0.00  0.00    -0.306 N 
ATOM     20  C   UNL     1      -5.318 -10.745  14.816  0.00  0.00    +0.248 C 
ATOM     36  H   UNL     1      -4.253  -9.125  15.597  0.00  0.00    +0.149 HD
BRANCH  20  23
ATOM     23  C   UNL     1      -5.066 -10.279  13.428  0.00  0.00    +0.078 A 
ATOM     26  C   UNL     1      -3.833 -10.492  12.845  0.00  0.00    +0.133 A 
ATOM     27  C   UNL     1      -6.093  -9.641  12.761  0.00  0.00    +0.018 A 
ATOM     28  C   UNL     1      -3.617 -10.046  11.541  0.00  0.00    +0.061 A 
ATOM     30  C   UNL     1      -5.876  -9.196  11.457  0.00  0.00    +0.015 A 
ATOM     31  C   UNL     1      -4.639  -9.399  10.846  0.00  0.00    +0.011 A 
BRANCH  31   2
ATOM      2  S   UNL     1      -4.364  -8.830   9.180  0.00  0.00    -0.128 S 
ATOM     35  C   UNL     1      -5.371  -9.996   8.221  0.00  0.00    +0.090 C 
ENDBRANCH  31   2
BRANCH  26   9
ATOM      9  O   UNL     1      -2.822 -11.122  13.507  0.00  0.00    -0.494 OA
ATOM     34  C   UNL     1      -1.752 -10.309  13.981  0.00  0.00    +0.277 C 
ENDBRANCH  26   9
ENDBRANCH  20  23
ENDBRANCH  14  10
BRANCH  13   3
ATOM      3  O   UNL     1      -6.273  -9.817  19.912  0.00  0.00    -0.379 OA
ATOM     37  H   UNL     1      -5.443 -10.065  20.348  0.00  0.00    +0.211 HD
ENDBRANCH  13   3
BRANCH  16   4
ATOM      4  O   UNL     1      -2.772 -11.231  17.414  0.00  0.00    -0.387 OA
ATOM     38  H   UNL     1      -2.509 -10.656  18.154  0.00  0.00    +0.210 HD
ENDBRANCH  16   4
BRANCH  18   5
ATOM      5  O   UNL     1      -3.741 -13.224  19.201  0.00  0.00    -0.389 OA
ATOM     39  H   UNL     1      -3.227 -13.180  20.025  0.00  0.00    +0.210 HD
ENDBRANCH  18   5
TORSDOF 12
ENDMDL
MODEL 2
REMARK VINA RESULT:      -7.0     28.503     31.615
REMARK  Name = 11882552
REMARK  14 active torsions:
REMARK  status: ('A' for Active; 'I' for Inactive)
REMARK    1  A    between atoms: S_2  and  C_31
REMARK    2  A    between atoms: S_2  and  C_35
REMARK    3  A    between atoms: O_3  and  C_13
REMARK    4  A    between atoms: O_4  and  C_16
REMARK    5  A    between atoms: O_5  and  C_18
REMARK    6  A    between atoms: O_9  and  C_26
REMARK    7  A    between atoms: O_9  and  C_34
REMARK    8  A    between atoms: N_10  and  C_14
REMARK    9  A    between atoms: N_11  and  C_21
REMARK   10  A    between atoms: C_13  and  C_19
REMARK   11  A    between atoms: C_20  and  C_23
REMARK   12  A    between atoms: C_21  and  C_22
REMARK   13  A    between atoms: C_21  and  C_24
REMARK   14  A    between atoms: C_22  and  C_25
REMARK                            x       y       z     vdW  Elec       q    Type
REMARK                         _______ _______ _______ _____ _____    ______ ____
ROOT
ATOM     13  C   UNL     1      15.412   7.014  20.425  0.00  0.00    +0.146 C 
ATOM     14  C   UNL     1      17.793   7.052  21.315  0.00  0.00    +0.107 C 
ATOM     15  C   UNL     1      16.478   7.825  21.166  0.00  0.00    +0.069 C 
ATOM     16  C   UNL     1      18.306   6.534  19.964  0.00  0.00    +0.163 C 
ATOM     17  C   UNL     1      15.929   6.521  19.076  0.00  0.00    +0.078 C 
ATOM     18  C   UNL     1      17.237   5.740  19.210  0.00  0.00    +0.148 C 
ENDROOT
BRANCH  13  19
ATOM      6  O   UNL     1      13.878   8.332  19.156  0.00  0.00    -0.273 OA
ATOM     11  N   UNL     1      13.433   7.940  21.406  0.00  0.00    -0.301 N 
ATOM     19  C   UNL     1      14.165   7.827  20.237  0.00  0.00    +0.246 C 
ATOM     40  H   UNL     1      13.791   7.545  22.269  0.00  0.00    +0.150 HD
BRANCH  11  21
ATOM     21  C   UNL     1      12.201   8.691  21.497  0.00  0.00    +0.163 C 
BRANCH  21  24
ATOM      8  O   UNL     1      10.601   6.880  21.236  0.00  0.00    -0.274 OA
ATOM     12  N   UNL     1      10.787   8.435  19.554  0.00  0.00    -0.328 N 
ATOM     24  C   UNL     1      11.133   7.886  20.772  0.00  0.00    +0.231 C 
ATOM     41  H   UNL     1      10.074   8.004  18.974  0.00  0.00    +0.145 HD
ATOM     42  H   UNL     1      11.233   9.267  19.183  0.00  0.00    +0.145 HD
ENDBRANCH  21  24
BRANCH  21  22
ATOM     22  C   UNL     1      12.327  10.089  20.880  0.00  0.00    +0.074 C 
BRANCH  22  25
ATOM      1  S   UNL     1      11.271  10.767  23.337  0.00  0.00    -0.102 S 
ATOM     25  C   UNL     1      11.736  11.168  21.754  0.00  0.00    -0.008 A 
ATOM     29  C   UNL     1      11.517  12.469  21.429  0.00  0.00    +0.011 A 
ATOM     32  C   UNL     1      10.942  13.180  22.521  0.00  0.00    +0.008 A 
ATOM     33  C   UNL     1      10.753  12.373  23.622  0.00  0.00    +0.045 A 
ENDBRANCH  22  25
ENDBRANCH  21  22
ENDBRANCH  11  21
ENDBRANCH  13  19
BRANCH  14  10
ATOM      7  O   UNL     1      19.869   6.200  23.104  0.00  0.00    -0.270 OA
ATOM     10  N   UNL     1      18.784   7.892  21.949  0.00  0.00    -0.306 N 
ATOM     20  C   UNL     1      19.751   7.384  22.801  0.00  0.00    +0.248 C 
ATOM     36  H   UNL     1      18.674   8.895  21.838  0.00  0.00    +0.149 HD
BRANCH  20  23
ATOM     23  C   UNL     1      20.679   8.382  23.393  0.00  0.00    +0.078 A 
ATOM     26  C   UNL     1      21.354   9.264  22.572  0.00  0.00    +0.133 A 
ATOM     27  C   UNL     1      20.832   8.392  24.765  0.00  0.00    +0.018 A 
ATOM     28  C   UNL     1      22.220  10.193  23.148  0.00  0.00    +0.061 A 
ATOM     30  C   UNL     1      21.698   9.322  25.340  0.00  0.00    +0.015 A 
ATOM     31  C   UNL     1      22.392  10.223  24.532  0.00  0.00    +0.011 A 
BRANCH  31   2
ATOM      2  S   UNL     1      23.498  11.410  25.268  0.00  0.00    -0.128 S 
ATOM     35  C   UNL     1      25.096  10.561  25.131  0.00  0.00    +0.090 C 
ENDBRANCH  31   2
BRANCH  26   9
ATOM      9  O   UNL     1      21.199   9.251  21.218  0.00  0.00    -0.494 OA
ATOM     34  C   UNL     1      21.137  10.514  20.560  0.00  0.00    +0.277 C 
ENDBRANCH  26   9
ENDBRANCH  20  23
ENDBRANCH  14  10
BRANCH  13   3
ATOM      3  O   UNL     1      15.008   5.893  21.205  0.00  0.00    -0.379 OA
ATOM     37  H   UNL     1      15.425   5.942  22.079  0.00  0.00    +0.211 HD
ENDBRANCH  13   3
BRANCH  16   4
ATOM      4  O   UNL     1      19.415   5.659  20.191  0.00  0.00    -0.387 OA
ATOM     38  H   UNL     1      19.898   5.998  20.964  0.00  0.00    +0.210 HD
ENDBRANCH  16   4
BRANCH  18   5
ATOM      5  O   UNL     1      17.733   5.444  17.904  0.00  0.00    -0.389 OA
ATOM     39  H   UNL     1      17.002   5.550  17.272  0.00  0.00    +0.210 HD
ENDBRANCH  18   5
TORSDOF 12
ENDMDL
MODEL 3
REMARK VINA RESULT:      -6.9      1.796      2.599
REMARK  Name = 11882552
REMARK  14 active torsions:
REMARK  status: ('A' for Active; 'I' for Inactive)
REMARK    1  A    between atoms: S_2  and  C_31
REMARK    2  A    between atoms: S_2  and  C_35
REMARK    3  A    between atoms: O_3  and  C_13
REMARK    4  A    between atoms: O_4  and  C_16
REMARK    5  A    between atoms: O_5  and  C_18
REMARK    6  A    between atoms: O_9  and  C_26
REMARK    7  A    between atoms: O_9  and  C_34
REMARK    8  A    between atoms: N_10  and  C_14
REMARK    9  A    between atoms: N_11  and  C_21
REMARK   10  A    between atoms: C_13  and  C_19
REMARK   11  A    between atoms: C_20  and  C_23
REMARK   12  A    between atoms: C_21  and  C_22
REMARK   13  A    between atoms: C_21  and  C_24
REMARK   14  A    between atoms: C_22  and  C_25
REMARK                            x       y       z     vdW  Elec       q    Type
REMARK                         _______ _______ _______ _____ _____    ______ ____
ROOT
ATOM     13  C   UNL     1      -6.913 -10.828  18.846  0.00  0.00    +0.146 C 
ATOM     14  C   UNL     1      -5.157 -10.284  17.091  0.00  0.00    +0.107 C 
ATOM     15  C   UNL     1      -6.654 -10.384  17.405  0.00  0.00    +0.069 C 
ATOM     16  C   UNL     1      -4.414 -11.584  17.430  0.00  0.00    +0.163 C 
ATOM     17  C   UNL     1      -6.185 -12.132  19.164  0.00  0.00    +0.078 C 
ATOM     18  C   UNL     1      -4.688 -12.044  18.864  0.00  0.00    +0.148 C 
ENDROOT
BRANCH  13  19
ATOM      6  O   UNL     1      -8.826 -11.298  20.197  0.00  0.00    -0.273 OA
ATOM     11  N   UNL     1      -9.135 -10.753  17.955  0.00  0.00    -0.301 N 
ATOM     19  C   UNL     1      -8.385 -10.983  19.095  0.00  0.00    +0.246 C 
ATOM     40  H   UNL     1      -8.673 -10.567  17.072  0.00  0.00    +0.150 HD
BRANCH  11  21
ATOM     21  C   UNL     1     -10.577 -10.860  17.923  0.00  0.00    +0.163 C 
BRANCH  21  24
ATOM      8  O   UNL     1     -10.202 -11.224  15.550  0.00  0.00    -0.274 OA
ATOM     12  N   UNL     1     -12.246 -11.781  16.438  0.00  0.00    -0.328 N 
ATOM     24  C   UNL     1     -10.963 -11.280  16.513  0.00  0.00    +0.231 C 
ATOM     41  H   UNL     1     -12.624 -12.111  15.556  0.00  0.00    +0.145 HD
ATOM     42  H   UNL     1     -12.864 -11.824  17.242  0.00  0.00    +0.145 HD
ENDBRANCH  21  24
BRANCH  21  22
ATOM     22  C   UNL     1     -11.264  -9.540  18.294  0.00  0.00    +0.074 C 
BRANCH  22  25
ATOM      1  S   UNL     1     -12.448  -8.039  16.305  0.00  0.00    -0.102 S 
ATOM     25  C   UNL     1     -11.097  -8.478  17.235  0.00  0.00    -0.008 A 
ATOM     29  C   UNL     1      -9.963  -7.800  16.913  0.00  0.00    +0.011 A 
ATOM     32  C   UNL     1     -10.203  -6.875  15.857  0.00  0.00    +0.008 A 
ATOM     33  C   UNL     1     -11.513  -6.903  15.430  0.00  0.00    +0.045 A 
ENDBRANCH  22  25
ENDBRANCH  21  22
ENDBRANCH  11  21
ENDBRANCH  13  19
BRANCH  14  10
ATOM      7  O   UNL     1      -6.018 -11.811  14.818  0.00  0.00    -0.270 OA
ATOM     10  N   UNL     1      -4.971  -9.939  15.699  0.00  0.00    -0.306 N 
ATOM     20  C   UNL     1      -5.425 -10.745  14.669  0.00  0.00    +0.248 C 
ATOM     36  H   UNL     1      -4.386  -9.133  15.500  0.00  0.00    +0.149 HD
BRANCH  20  23
ATOM     23  C   UNL     1      -5.131 -10.264  13.295  0.00  0.00    +0.078 A 
ATOM     26  C   UNL     1      -3.883 -10.481  12.743  0.00  0.00    +0.133 A 
ATOM     27  C   UNL     1      -6.133  -9.610  12.607  0.00  0.00    +0.018 A 
ATOM     28  C   UNL     1      -3.627 -10.021  11.452  0.00  0.00    +0.061 A 
ATOM     30  C   UNL     1      -5.876  -9.151  11.315  0.00  0.00    +0.015 A 
ATOM     31  C   UNL     1      -4.624  -9.357  10.737  0.00  0.00    +0.011 A 
BRANCH  31   2
ATOM      2  S   UNL     1      -4.297  -8.771   9.087  0.00  0.00    -0.128 S 
ATOM     35  C   UNL     1      -5.115 -10.037   8.076  0.00  0.00    +0.090 C 
ENDBRANCH  31   2
BRANCH  26   9
ATOM      9  O   UNL     1      -2.897 -11.128  13.426  0.00  0.00    -0.494 OA
ATOM     34  C   UNL     1      -1.848 -10.327  13.965  0.00  0.00    +0.277 C 
ENDBRANCH  26   9
ENDBRANCH  20  23
ENDBRANCH  14  10
BRANCH  13   3
ATOM      3  O   UNL     1      -6.488  -9.824  19.761  0.00  0.00    -0.379 OA
ATOM     37  H   UNL     1      -6.542 -10.169  20.666  0.00  0.00    +0.211 HD
ENDBRANCH  13   3
BRANCH  16   4
ATOM      4  O   UNL     1      -3.007 -11.363  17.308  0.00  0.00    -0.387 OA
ATOM     38  H   UNL     1      -2.562 -12.200  17.526  0.00  0.00    +0.210 HD
ENDBRANCH  16   4
BRANCH  18   5
ATOM      5  O   UNL     1      -4.105 -13.335  19.043  0.00  0.00    -0.389 OA
ATOM     39  H   UNL     1      -4.464 -13.926  18.360  0.00  0.00    +0.210 HD
ENDBRANCH  18   5
TORSDOF 12
ENDMDL
MODEL 4
REMARK VINA RESULT:      -6.9      3.393      7.984
REMARK  Name = 11882552
REMARK  14 active torsions:
REMARK  status: ('A' for Active; 'I' for Inactive)
REMARK    1  A    between atoms: S_2  and  C_31
REMARK    2  A    between atoms: S_2  and  C_35
REMARK    3  A    between atoms: O_3  and  C_13
REMARK    4  A    between atoms: O_4  and  C_16
REMARK    5  A    between atoms: O_5  and  C_18
REMARK    6  A    between atoms: O_9  and  C_26
REMARK    7  A    between atoms: O_9  and  C_34
REMARK    8  A    between atoms: N_10  and  C_14
REMARK    9  A    between atoms: N_11  and  C_21
REMARK   10  A    between atoms: C_13  and  C_19
REMARK   11  A    between atoms: C_20  and  C_23
REMARK   12  A    between atoms: C_21  and  C_22
REMARK   13  A    between atoms: C_21  and  C_24
REMARK   14  A    between atoms: C_22  and  C_25
REMARK                            x       y       z     vdW  Elec       q    Type
REMARK                         _______ _______ _______ _____ _____    ______ ____
ROOT
ATOM     13  C   UNL     1      -5.825 -12.613  17.366  0.00  0.00    +0.146 C 
ATOM     14  C   UNL     1      -8.059 -11.477  17.787  0.00  0.00    +0.107 C 
ATOM     15  C   UNL     1      -6.937 -11.744  16.777  0.00  0.00    +0.069 C 
ATOM     16  C   UNL     1      -7.518 -10.899  19.102  0.00  0.00    +0.163 C 
ATOM     17  C   UNL     1      -5.282 -12.017  18.663  0.00  0.00    +0.078 C 
ATOM     18  C   UNL     1      -6.390 -11.754  19.684  0.00  0.00    +0.148 C 
ENDROOT
BRANCH  13  19
ATOM      6  O   UNL     1      -4.420 -13.898  15.923  0.00  0.00    -0.273 OA
ATOM     11  N   UNL     1      -4.082 -11.600  16.072  0.00  0.00    -0.301 N 
ATOM     19  C   UNL     1      -4.714 -12.794  16.374  0.00  0.00    +0.246 C 
ATOM     40  H   UNL     1      -4.352 -10.748  16.552  0.00  0.00    +0.150 HD
BRANCH  11  21
ATOM     21  C   UNL     1      -2.965 -11.505  15.160  0.00  0.00    +0.163 C 
BRANCH  21  24
ATOM      8  O   UNL     1      -1.091  -9.975  15.386  0.00  0.00    -0.274 OA
ATOM     12  N   UNL     1      -1.780 -11.150  17.236  0.00  0.00    -0.328 N 
ATOM     24  C   UNL     1      -1.839 -10.801  15.902  0.00  0.00    +0.231 C 
ATOM     41  H   UNL     1      -1.083 -10.741  17.849  0.00  0.00    +0.145 HD
ATOM     42  H   UNL     1      -2.407 -11.832  17.650  0.00  0.00    +0.145 HD
ENDBRANCH  21  24
BRANCH  21  22
ATOM     22  C   UNL     1      -3.324 -10.738  13.882  0.00  0.00    +0.074 C 
BRANCH  22  25
ATOM      1  S   UNL     1      -5.327 -12.108  12.569  0.00  0.00    -0.102 S 
ATOM     25  C   UNL     1      -3.701 -11.650  12.740  0.00  0.00    -0.008 A 
ATOM     29  C   UNL     1      -2.878 -12.175  11.793  0.00  0.00    +0.011 A 
ATOM     32  C   UNL     1      -3.604 -12.991  10.879  0.00  0.00    +0.008 A 
ATOM     33  C   UNL     1      -4.947 -13.043  11.186  0.00  0.00    +0.045 A 
ENDBRANCH  22  25
ENDBRANCH  21  22
ENDBRANCH  11  21
ENDBRANCH  13  19
BRANCH  14  10
ATOM      7  O   UNL     1      -7.595  -8.819  16.806  0.00  0.00    -0.270 OA
ATOM     10  N   UNL     1      -9.040 -10.588  17.205  0.00  0.00    -0.306 N 
ATOM     20  C   UNL     1      -8.717  -9.318  16.758  0.00  0.00    +0.248 C 
ATOM     36  H   UNL     1     -10.009 -10.887  17.242  0.00  0.00    +0.149 HD
BRANCH  20  23
ATOM     23  C   UNL     1      -9.844  -8.519  16.212  0.00  0.00    +0.078 A 
ATOM     26  C   UNL     1     -10.455  -8.908  15.037  0.00  0.00    +0.133 A 
ATOM     27  C   UNL     1     -10.247  -7.400  16.914  0.00  0.00    +0.018 A 
ATOM     28  C   UNL     1     -11.511  -8.144  14.541  0.00  0.00    +0.061 A 
ATOM     30  C   UNL     1     -11.304  -6.638  16.417  0.00  0.00    +0.015 A 
ATOM     31  C   UNL     1     -11.937  -7.009  15.231  0.00  0.00    +0.011 A 
BRANCH  31   2
ATOM      2  S   UNL     1     -13.287  -6.034  14.599  0.00  0.00    -0.128 S 
ATOM     35  C   UNL     1     -12.422  -4.867  13.511  0.00  0.00    +0.090 C 
ENDBRANCH  31   2
BRANCH  26   9
ATOM      9  O   UNL     1     -10.054 -10.013  14.347  0.00  0.00    -0.494 OA
ATOM     34  C   UNL     1      -9.500  -9.803  13.051  0.00  0.00    +0.277 C 
ENDBRANCH  26   9
ENDBRANCH  20  23
ENDBRANCH  14  10
BRANCH  13   3
ATOM      3  O   UNL     1      -6.305 -13.928  17.625  0.00  0.00    -0.379 OA
ATOM     37  H   UNL     1      -6.544 -14.355  16.787  0.00  0.00    +0.211 HD
ENDBRANCH  13   3
BRANCH  16   4
ATOM      4  O   UNL     1      -8.574 -10.862  20.065  0.00  0.00    -0.387 OA
ATOM     38  H   UNL     1      -9.052 -10.024  19.940  0.00  0.00    +0.210 HD
ENDBRANCH  16   4
BRANCH  18   5
ATOM      5  O   UNL     1      -5.832 -11.064  20.802  0.00  0.00    -0.389 OA
ATOM     39  H   UNL     1      -5.091 -11.593  21.145  0.00  0.00    +0.210 HD
ENDBRANCH  18   5
TORSDOF 12
ENDMDL
MODEL 5
REMARK VINA RESULT:      -6.8      2.629      9.424
REMARK  Name = 11882552
REMARK  14 active torsions:
REMARK  status: ('A' for Active; 'I' for Inactive)
REMARK    1  A    between atoms: S_2  and  C_31
REMARK    2  A    between atoms: S_2  and  C_35
REMARK    3  A    between atoms: O_3  and  C_13
REMARK    4  A    between atoms: O_4  and  C_16
REMARK    5  A    between atoms: O_5  and  C_18
REMARK    6  A    between atoms: O_9  and  C_26
REMARK    7  A    between atoms: O_9  and  C_34
REMARK    8  A    between atoms: N_10  and  C_14
REMARK    9  A    between atoms: N_11  and  C_21
REMARK   10  A    between atoms: C_13  and  C_19
REMARK   11  A    between atoms: C_20  and  C_23
REMARK   12  A    between atoms: C_21  and  C_22
REMARK   13  A    between atoms: C_21  and  C_24
REMARK   14  A    between atoms: C_22  and  C_25
REMARK                            x       y       z     vdW  Elec       q    Type
REMARK                         _______ _______ _______ _____ _____    ______ ____
ROOT
ATOM     13  C   UNL     1      -2.803 -11.015  13.212  0.00  0.00    +0.146 C 
ATOM     14  C   UNL     1      -3.954 -11.355  15.451  0.00  0.00    +0.107 C 
ATOM     15  C   UNL     1      -4.090 -10.830  14.018  0.00  0.00    +0.069 C 
ATOM     16  C   UNL     1      -2.739 -10.749  16.168  0.00  0.00    +0.163 C 
ATOM     17  C   UNL     1      -1.606 -10.391  13.926  0.00  0.00    +0.078 C 
ATOM     18  C   UNL     1      -1.453 -10.913  15.355  0.00  0.00    +0.148 C 
ENDROOT
BRANCH  13  19
ATOM      6  O   UNL     1      -2.016  -9.870  11.269  0.00  0.00    -0.273 OA
ATOM     11  N   UNL     1      -4.233 -10.576  11.341  0.00  0.00    -0.301 N 
ATOM     19  C   UNL     1      -2.950 -10.427  11.839  0.00  0.00    +0.246 C 
ATOM     40  H   UNL     1      -4.957 -10.989  11.919  0.00  0.00    +0.150 HD
BRANCH  11  21
ATOM     21  C   UNL     1      -4.641 -10.076  10.047  0.00  0.00    +0.163 C 
BRANCH  21  24
ATOM      8  O   UNL     1      -5.583  -8.282  11.389  0.00  0.00    -0.274 OA
ATOM     12  N   UNL     1      -5.500  -8.021   9.107  0.00  0.00    -0.328 N 
ATOM     24  C   UNL     1      -5.300  -8.724  10.278  0.00  0.00    +0.231 C 
ATOM     41  H   UNL     1      -5.918  -7.097   9.121  0.00  0.00    +0.145 HD
ATOM     42  H   UNL     1      -5.258  -8.398   8.196  0.00  0.00    +0.145 HD
ENDBRANCH  21  24
BRANCH  21  22
ATOM     22  C   UNL     1      -5.611 -11.028   9.338  0.00  0.00    +0.074 C 
BRANCH  22  25
ATOM      1  S   UNL     1      -4.305 -12.974   7.881  0.00  0.00    -0.102 S 
ATOM     25  C   UNL     1      -5.104 -11.480   7.990  0.00  0.00    -0.008 A 
ATOM     29  C   UNL     1      -5.205 -10.822   6.804  0.00  0.00    +0.011 A 
ATOM     32  C   UNL     1      -4.604 -11.569   5.751  0.00  0.00    +0.008 A 
ATOM     33  C   UNL     1      -4.074 -12.760   6.198  0.00  0.00    +0.045 A 
ENDBRANCH  22  25
ENDBRANCH  21  22
ENDBRANCH  11  21
ENDBRANCH  13  19
BRANCH  14  10
ATOM      7  O   UNL     1      -5.281 -13.125  17.281  0.00  0.00    -0.270 OA
ATOM     10  N   UNL     1      -5.168 -11.083  16.188  0.00  0.00    -0.306 N 
ATOM     20  C   UNL     1      -5.733 -12.006  17.052  0.00  0.00    +0.248 C 
ATOM     36  H   UNL     1      -5.661 -10.225  15.960  0.00  0.00    +0.149 HD
BRANCH  20  23
ATOM     23  C   UNL     1      -6.996 -11.584  17.712  0.00  0.00    +0.078 A 
ATOM     26  C   UNL     1      -8.010 -11.024  16.961  0.00  0.00    +0.133 A 
ATOM     27  C   UNL     1      -7.111 -11.774  19.075  0.00  0.00    +0.018 A 
ATOM     28  C   UNL     1      -9.187 -10.635  17.600  0.00  0.00    +0.061 A 
ATOM     30  C   UNL     1      -8.289 -11.385  19.713  0.00  0.00    +0.015 A 
ATOM     31  C   UNL     1      -9.327 -10.816  18.975  0.00  0.00    +0.011 A 
BRANCH  31   2
ATOM      2  S   UNL     1     -10.831 -10.320  19.792  0.00  0.00    -0.128 S 
ATOM     35  C   UNL     1     -11.753  -9.550  18.432  0.00  0.00    +0.090 C 
ENDBRANCH  31   2
BRANCH  26   9
ATOM      9  O   UNL     1      -7.892 -10.839  15.616  0.00  0.00    -0.494 OA
ATOM     34  C   UNL     1      -8.582  -9.727  15.051  0.00  0.00    +0.277 C 
ENDBRANCH  26   9
ENDBRANCH  20  23
ENDBRANCH  14  10
BRANCH  13   3
ATOM      3  O   UNL     1      -2.545 -12.398  12.995  0.00  0.00    -0.379 OA
ATOM     37  H   UNL     1      -2.863 -12.651  12.114  0.00  0.00    +0.211 HD
ENDBRANCH  13   3
BRANCH  16   4
ATOM      4  O   UNL     1      -2.551 -11.422  17.416  0.00  0.00    -0.387 OA
ATOM     38  H   UNL     1      -2.789 -10.796  18.122  0.00  0.00    +0.210 HD
ENDBRANCH  16   4
BRANCH  18   5
ATOM      5  O   UNL     1      -0.413 -10.181  16.004  0.00  0.00    -0.389 OA
ATOM     39  H   UNL     1      -0.408  -9.278  15.644  0.00  0.00    +0.210 HD
ENDBRANCH  18   5
TORSDOF 12
ENDMDL
MODEL 6
REMARK VINA RESULT:      -6.7     28.624     32.039
REMARK  Name = 11882552
REMARK  14 active torsions:
REMARK  status: ('A' for Active; 'I' for Inactive)
REMARK    1  A    between atoms: S_2  and  C_31
REMARK    2  A    between atoms: S_2  and  C_35
REMARK    3  A    between atoms: O_3  and  C_13
REMARK    4  A    between atoms: O_4  and  C_16
REMARK    5  A    between atoms: O_5  and  C_18
REMARK    6  A    between atoms: O_9  and  C_26
REMARK    7  A    between atoms: O_9  and  C_34
REMARK    8  A    between atoms: N_10  and  C_14
REMARK    9  A    between atoms: N_11  and  C_21
REMARK   10  A    between atoms: C_13  and  C_19
REMARK   11  A    between atoms: C_20  and  C_23
REMARK   12  A    between atoms: C_21  and  C_22
REMARK   13  A    between atoms: C_21  and  C_24
REMARK   14  A    between atoms: C_22  and  C_25
REMARK                            x       y       z     vdW  Elec       q    Type
REMARK                         _______ _______ _______ _____ _____    ______ ____
ROOT
ATOM     13  C   UNL     1      16.388   7.191  20.949  0.00  0.00    +0.146 C 
ATOM     14  C   UNL     1      18.850   6.896  21.508  0.00  0.00    +0.107 C 
ATOM     15  C   UNL     1      17.655   7.856  21.491  0.00  0.00    +0.069 C 
ATOM     16  C   UNL     1      19.085   6.254  20.133  0.00  0.00    +0.163 C 
ATOM     17  C   UNL     1      16.631   6.574  19.574  0.00  0.00    +0.078 C 
ATOM     18  C   UNL     1      17.815   5.606  19.577  0.00  0.00    +0.148 C 
ENDROOT
BRANCH  13  19
ATOM      6  O   UNL     1      15.411   9.357  21.191  0.00  0.00    -0.273 OA
ATOM     11  N   UNL     1      14.077   7.593  20.467  0.00  0.00    -0.301 N 
ATOM     19  C   UNL     1      15.260   8.178  20.882  0.00  0.00    +0.246 C 
ATOM     40  H   UNL     1      14.035   6.593  20.303  0.00  0.00    +0.150 HD
BRANCH  11  21
ATOM     21  C   UNL     1      12.836   8.324  20.340  0.00  0.00    +0.163 C 
BRANCH  21  24
ATOM      8  O   UNL     1      11.391   7.472  22.099  0.00  0.00    -0.274 OA
ATOM     12  N   UNL     1      12.605   9.381  22.502  0.00  0.00    -0.328 N 
ATOM     24  C   UNL     1      12.180   8.332  21.714  0.00  0.00    +0.231 C 
ATOM     41  H   UNL     1      12.256   9.495  23.447  0.00  0.00    +0.145 HD
ATOM     42  H   UNL     1      13.259  10.083  22.170  0.00  0.00    +0.145 HD
ENDBRANCH  21  24
BRANCH  21  22
ATOM     22  C   UNL     1      11.896   7.696  19.304  0.00  0.00    +0.074 C 
BRANCH  22  25
ATOM      1  S   UNL     1      13.570   8.675  17.340  0.00  0.00    -0.102 S 
ATOM     25  C   UNL     1      12.018   8.337  17.943  0.00  0.00    -0.008 A 
ATOM     29  C   UNL     1      11.011   8.693  17.102  0.00  0.00    +0.011 A 
ATOM     32  C   UNL     1      11.524   9.271  15.905  0.00  0.00    +0.008 A 
ATOM     33  C   UNL     1      12.901   9.324  15.904  0.00  0.00    +0.045 A 
ENDBRANCH  22  25
ENDBRANCH  21  22
ENDBRANCH  11  21
ENDBRANCH  13  19
BRANCH  14  10
ATOM      7  O   UNL     1      20.435   6.286  23.822  0.00  0.00    -0.270 OA
ATOM     10  N   UNL     1      20.034   7.597  21.952  0.00  0.00    -0.306 N 
ATOM     20  C   UNL     1      20.733   7.225  23.087  0.00  0.00    +0.248 C 
ATOM     36  H   UNL     1      20.271   8.454  21.462  0.00  0.00    +0.149 HD
BRANCH  20  23
ATOM     23  C   UNL     1      21.912   8.064  23.424  0.00  0.00    +0.078 A 
ATOM     26  C   UNL     1      22.930   8.220  22.504  0.00  0.00    +0.133 A 
ATOM     27  C   UNL     1      21.945   8.669  24.665  0.00  0.00    +0.018 A 
ATOM     28  C   UNL     1      24.028   9.012  22.840  0.00  0.00    +0.061 A 
ATOM     30  C   UNL     1      23.043   9.462  24.999  0.00  0.00    +0.015 A 
ATOM     31  C   UNL     1      24.084   9.634  24.087  0.00  0.00    +0.011 A 
BRANCH  31   2
ATOM      2  S   UNL     1      25.486  10.647  24.516  0.00  0.00    -0.128 S 
ATOM     35  C   UNL     1      25.910  10.012  26.162  0.00  0.00    +0.090 C 
ENDBRANCH  31   2
BRANCH  26   9
ATOM      9  O   UNL     1      22.893   7.621  21.281  0.00  0.00    -0.494 OA
ATOM     34  C   UNL     1      23.525   8.307  20.203  0.00  0.00    +0.277 C 
ENDBRANCH  26   9
ENDBRANCH  20  23
ENDBRANCH  14  10
BRANCH  13   3
ATOM      3  O   UNL     1      15.938   6.176  21.840  0.00  0.00    -0.379 OA
ATOM     37  H   UNL     1      15.471   5.490  21.338  0.00  0.00    +0.211 HD
ENDBRANCH  13   3
BRANCH  16   4
ATOM      4  O   UNL     1      20.074   5.229  20.260  0.00  0.00    -0.387 OA
ATOM     38  H   UNL     1      20.116   4.981  21.200  0.00  0.00    +0.210 HD
ENDBRANCH  16   4
BRANCH  18   5
ATOM      5  O   UNL     1      18.072   5.187  18.237  0.00  0.00    -0.389 OA
ATOM     39  H   UNL     1      18.126   4.216  18.228  0.00  0.00    +0.210 HD
ENDBRANCH  18   5
TORSDOF 12
ENDMDL
MODEL 7
REMARK VINA RESULT:      -6.6      2.573     10.057
REMARK  Name = 11882552
REMARK  14 active torsions:
REMARK  status: ('A' for Active; 'I' for Inactive)
REMARK    1  A    between atoms: S_2  and  C_31
REMARK    2  A    between atoms: S_2  and  C_35
REMARK    3  A    between atoms: O_3  and  C_13
REMARK    4  A    between atoms: O_4  and  C_16
REMARK    5  A    between atoms: O_5  and  C_18
REMARK    6  A    between atoms: O_9  and  C_26
REMARK    7  A    between atoms: O_9  and  C_34
REMARK    8  A    between atoms: N_10  and  C_14
REMARK    9  A    between atoms: N_11  and  C_21
REMARK   10  A    between atoms: C_13  and  C_19
REMARK   11  A    between atoms: C_20  and  C_23
REMARK   12  A    between atoms: C_21  and  C_22
REMARK   13  A    between atoms: C_21  and  C_24
REMARK   14  A    between atoms: C_22  and  C_25
REMARK                            x       y       z     vdW  Elec       q    Type
REMARK                         _______ _______ _______ _____ _____    ______ ____
ROOT
ATOM     13  C   UNL     1      -5.751 -10.494  15.608  0.00  0.00    +0.146 C 
ATOM     14  C   UNL     1      -7.946 -10.685  16.874  0.00  0.00    +0.107 C 
ATOM     15  C   UNL     1      -6.554 -11.283  16.644  0.00  0.00    +0.069 C 
ATOM     16  C   UNL     1      -8.719 -10.517  15.558  0.00  0.00    +0.163 C 
ATOM     17  C   UNL     1      -6.523 -10.351  14.299  0.00  0.00    +0.078 C 
ATOM     18  C   UNL     1      -7.911  -9.747  14.511  0.00  0.00    +0.148 C 
ENDROOT
BRANCH  13  19
ATOM      6  O   UNL     1      -4.116 -12.214  15.887  0.00  0.00    -0.273 OA
ATOM     11  N   UNL     1      -3.625 -10.404  14.508  0.00  0.00    -0.301 N 
ATOM     19  C   UNL     1      -4.424 -11.149  15.358  0.00  0.00    +0.246 C 
ATOM     40  H   UNL     1      -3.941  -9.499  14.178  0.00  0.00    +0.150 HD
BRANCH  11  21
ATOM     21  C   UNL     1      -2.289 -10.805  14.126  0.00  0.00    +0.163 C 
BRANCH  21  24
ATOM      8  O   UNL     1      -0.761  -9.149  15.035  0.00  0.00    -0.274 OA
ATOM     12  N   UNL     1      -1.224 -11.020  16.285  0.00  0.00    -0.328 N 
ATOM     24  C   UNL     1      -1.336 -10.227  15.161  0.00  0.00    +0.231 C 
ATOM     41  H   UNL     1      -0.631 -10.743  17.059  0.00  0.00    +0.145 HD
ATOM     42  H   UNL     1      -1.707 -11.908  16.377  0.00  0.00    +0.145 HD
ENDBRANCH  21  24
BRANCH  21  22
ATOM     22  C   UNL     1      -1.916 -10.312  12.722  0.00  0.00    +0.074 C 
BRANCH  22  25
ATOM      1  S   UNL     1      -3.489  -9.882  10.496  0.00  0.00    -0.102 S 
ATOM     25  C   UNL     1      -2.781 -10.915  11.643  0.00  0.00    -0.008 A 
ATOM     29  C   UNL     1      -3.082 -12.229  11.460  0.00  0.00    +0.011 A 
ATOM     32  C   UNL     1      -3.930 -12.407  10.330  0.00  0.00    +0.008 A 
ATOM     33  C   UNL     1      -4.231 -11.212   9.714  0.00  0.00    +0.045 A 
ENDBRANCH  22  25
ENDBRANCH  21  22
ENDBRANCH  11  21
ENDBRANCH  13  19
BRANCH  14  10
ATOM      7  O   UNL     1      -7.583 -10.827  19.718  0.00  0.00    -0.270 OA
ATOM     10  N   UNL     1      -8.688 -11.513  17.798  0.00  0.00    -0.306 N 
ATOM     20  C   UNL     1      -8.438 -11.511  19.160  0.00  0.00    +0.248 C 
ATOM     36  H   UNL     1      -9.328 -12.191  17.395  0.00  0.00    +0.149 HD
BRANCH  20  23
ATOM     23  C   UNL     1      -9.268 -12.440  19.971  0.00  0.00    +0.078 A 
ATOM     26  C   UNL     1     -10.583 -12.123  20.245  0.00  0.00    +0.133 A 
ATOM     27  C   UNL     1      -8.683 -13.605  20.425  0.00  0.00    +0.018 A 
ATOM     28  C   UNL     1     -11.345 -13.008  21.007  0.00  0.00    +0.061 A 
ATOM     30  C   UNL     1      -9.446 -14.490  21.187  0.00  0.00    +0.015 A 
ATOM     31  C   UNL     1     -10.777 -14.192  21.478  0.00  0.00    +0.011 A 
BRANCH  31   2
ATOM      2  S   UNL     1     -11.750 -15.323  22.452  0.00  0.00    -0.128 S 
ATOM     35  C   UNL     1     -11.247 -14.886  24.140  0.00  0.00    +0.090 C 
ENDBRANCH  31   2
BRANCH  26   9
ATOM      9  O   UNL     1     -11.156 -10.972  19.794  0.00  0.00    -0.494 OA
ATOM     34  C   UNL     1     -12.578 -10.949  19.699  0.00  0.00    +0.277 C 
ENDBRANCH  26   9
ENDBRANCH  20  23
ENDBRANCH  14  10
BRANCH  13   3
ATOM      3  O   UNL     1      -5.435  -9.198  16.105  0.00  0.00    -0.379 OA
ATOM     37  H   UNL     1      -4.539  -8.955  15.824  0.00  0.00    +0.211 HD
ENDBRANCH  13   3
BRANCH  16   4
ATOM      4  O   UNL     1      -9.916  -9.776  15.812  0.00  0.00    -0.387 OA
ATOM     38  H   UNL     1      -9.755  -8.859  15.531  0.00  0.00    +0.210 HD
ENDBRANCH  16   4
BRANCH  18   5
ATOM      5  O   UNL     1      -8.624  -9.782  13.275  0.00  0.00    -0.389 OA
ATOM     39  H   UNL     1      -8.291  -9.062  12.713  0.00  0.00    +0.210 HD
ENDBRANCH  18   5
TORSDOF 12
ENDMDL
MODEL 8
REMARK VINA RESULT:      -6.5     25.457     29.238
REMARK  Name = 11882552
REMARK  14 active torsions:
REMARK  status: ('A' for Active; 'I' for Inactive)
REMARK    1  A    between atoms: S_2  and  C_31
REMARK    2  A    between atoms: S_2  and  C_35
REMARK    3  A    between atoms: O_3  and  C_13
REMARK    4  A    between atoms: O_4  and  C_16
REMARK    5  A    between atoms: O_5  and  C_18
REMARK    6  A    between atoms: O_9  and  C_26
REMARK    7  A    between atoms: O_9  and  C_34
REMARK    8  A    between atoms: N_10  and  C_14
REMARK    9  A    between atoms: N_11  and  C_21
REMARK   10  A    between atoms: C_13  and  C_19
REMARK   11  A    between atoms: C_20  and  C_23
REMARK   12  A    between atoms: C_21  and  C_22
REMARK   13  A    between atoms: C_21  and  C_24
REMARK   14  A    between atoms: C_22  and  C_25
REMARK                            x       y       z     vdW  Elec       q    Type
REMARK                         _______ _______ _______ _____ _____    ______ ____
ROOT
ATOM     13  C   UNL     1       9.916   6.230   5.141  0.00  0.00    +0.146 C 
ATOM     14  C   UNL     1       9.607   7.288   7.431  0.00  0.00    +0.107 C 
ATOM     15  C   UNL     1      10.269   7.406   6.054  0.00  0.00    +0.069 C 
ATOM     16  C   UNL     1       9.909   5.938   8.096  0.00  0.00    +0.163 C 
ATOM     17  C   UNL     1      10.239   4.894   5.807  0.00  0.00    +0.078 C 
ATOM     18  C   UNL     1       9.577   4.759   7.179  0.00  0.00    +0.148 C 
ENDROOT
BRANCH  13  19
ATOM      6  O   UNL     1      10.965   7.430   3.363  0.00  0.00    -0.273 OA
ATOM     11  N   UNL     1      10.845   5.109   3.239  0.00  0.00    -0.301 N 
ATOM     19  C   UNL     1      10.636   6.343   3.830  0.00  0.00    +0.246 C 
ATOM     40  H   UNL     1      10.472   4.270   3.670  0.00  0.00    +0.150 HD
BRANCH  11  21
ATOM     21  C   UNL     1      11.499   4.945   1.960  0.00  0.00    +0.163 C 
BRANCH  21  24
ATOM      8  O   UNL     1       9.763   4.028   0.528  0.00  0.00    -0.274 OA
ATOM     12  N   UNL     1      10.204   6.280   0.416  0.00  0.00    -0.328 N 
ATOM     24  C   UNL     1      10.415   5.003   0.894  0.00  0.00    +0.231 C 
ATOM     41  H   UNL     1       9.497   6.461  -0.289  0.00  0.00    +0.145 HD
ATOM     42  H   UNL     1      10.748   7.078   0.730  0.00  0.00    +0.145 HD
ENDBRANCH  21  24
BRANCH  21  22
ATOM     22  C   UNL     1      12.269   3.623   1.867  0.00  0.00    +0.074 C 
BRANCH  22  25
ATOM      1  S   UNL     1      13.477   4.054  -0.576  0.00  0.00    -0.102 S 
ATOM     25  C   UNL     1      13.558   3.751   1.093  0.00  0.00    -0.008 A 
ATOM     29  C   UNL     1      14.826   3.653   1.574  0.00  0.00    +0.011 A 
ATOM     32  C   UNL     1      15.783   3.833   0.534  0.00  0.00    +0.008 A 
ATOM     33  C   UNL     1      15.185   4.058  -0.687  0.00  0.00    +0.045 A 
ENDBRANCH  22  25
ENDBRANCH  21  22
ENDBRANCH  11  21
ENDBRANCH  13  19
BRANCH  14  10
ATOM      7  O   UNL     1       8.824  10.041   7.206  0.00  0.00    -0.270 OA
ATOM     10  N   UNL     1      10.038   8.380   8.275  0.00  0.00    -0.306 N 
ATOM     20  C   UNL     1       9.602   9.681   8.086  0.00  0.00    +0.248 C 
ATOM     36  H   UNL     1      10.772   8.178   8.948  0.00  0.00    +0.149 HD
BRANCH  20  23
ATOM     23  C   UNL     1      10.159  10.691   9.021  0.00  0.00    +0.078 A 
ATOM     26  C   UNL     1      11.494  11.038   8.943  0.00  0.00    +0.133 A 
ATOM     27  C   UNL     1       9.307  11.258   9.948  0.00  0.00    +0.018 A 
ATOM     28  C   UNL     1      11.997  11.989   9.830  0.00  0.00    +0.061 A 
ATOM     30  C   UNL     1       9.812  12.211  10.834  0.00  0.00    +0.015 A 
ATOM     31  C   UNL     1      11.156  12.576  10.775  0.00  0.00    +0.011 A 
BRANCH  31   2
ATOM      2  S   UNL     1      11.799  13.792  11.908  0.00  0.00    -0.128 S 
ATOM     35  C   UNL     1      10.386  14.046  13.019  0.00  0.00    +0.090 C 
ENDBRANCH  31   2
BRANCH  26   9
ATOM      9  O   UNL     1      12.331  10.475   8.027  0.00  0.00    -0.494 OA
ATOM     34  C   UNL     1      13.254  11.343   7.374  0.00  0.00    +0.277 C 
ENDBRANCH  26   9
ENDBRANCH  20  23
ENDBRANCH  14  10
BRANCH  13   3
ATOM      3  O   UNL     1       8.533   6.258   4.805  0.00  0.00    -0.379 OA
ATOM     37  H   UNL     1       8.399   5.816   3.952  0.00  0.00    +0.211 HD
ENDBRANCH  13   3
BRANCH  16   4
ATOM      4  O   UNL     1       9.109   5.809   9.274  0.00  0.00    -0.387 OA
ATOM     38  H   UNL     1       8.213   5.558   8.990  0.00  0.00    +0.210 HD
ENDBRANCH  16   4
BRANCH  18   5
ATOM      5  O   UNL     1      10.042   3.560   7.799  0.00  0.00    -0.389 OA
ATOM     39  H   UNL     1       9.986   2.841   7.147  0.00  0.00    +0.210 HD
ENDBRANCH  18   5
TORSDOF 12
ENDMDL
MODEL 9
REMARK VINA RESULT:      -6.4      3.289      5.669
REMARK  Name = 11882552
REMARK  14 active torsions:
REMARK  status: ('A' for Active; 'I' for Inactive)
REMARK    1  A    between atoms: S_2  and  C_31
REMARK    2  A    between atoms: S_2  and  C_35
REMARK    3  A    between atoms: O_3  and  C_13
REMARK    4  A    between atoms: O_4  and  C_16
REMARK    5  A    between atoms: O_5  and  C_18
REMARK    6  A    between atoms: O_9  and  C_26
REMARK    7  A    between atoms: O_9  and  C_34
REMARK    8  A    between atoms: N_10  and  C_14
REMARK    9  A    between atoms: N_11  and  C_21
REMARK   10  A    between atoms: C_13  and  C_19
REMARK   11  A    between atoms: C_20  and  C_23
REMARK   12  A    between atoms: C_21  and  C_22
REMARK   13  A    between atoms: C_21  and  C_24
REMARK   14  A    between atoms: C_22  and  C_25
REMARK                            x       y       z     vdW  Elec       q    Type
REMARK                         _______ _______ _______ _____ _____    ______ ____
ROOT
ATOM     13  C   UNL     1     -11.481 -10.831  19.713  0.00  0.00    +0.146 C 
ATOM     14  C   UNL     1      -9.033 -11.460  19.449  0.00  0.00    +0.107 C 
ATOM     15  C   UNL     1     -10.227 -10.714  18.844  0.00  0.00    +0.069 C 
ATOM     16  C   UNL     1      -9.374 -12.923  19.765  0.00  0.00    +0.163 C 
ATOM     17  C   UNL     1     -11.821 -12.291  20.003  0.00  0.00    +0.078 C 
ATOM     18  C   UNL     1     -10.641 -13.046  20.617  0.00  0.00    +0.148 C 
ENDROOT
BRANCH  13  19
ATOM      6  O   UNL     1     -13.442  -9.468  19.694  0.00  0.00    -0.273 OA
ATOM     11  N   UNL     1     -12.703 -10.407  17.696  0.00  0.00    -0.301 N 
ATOM     19  C   UNL     1     -12.645 -10.150  19.055  0.00  0.00    +0.246 C 
ATOM     40  H   UNL     1     -12.037 -11.043  17.272  0.00  0.00    +0.150 HD
BRANCH  11  21
ATOM     21  C   UNL     1     -13.742  -9.886  16.837  0.00  0.00    +0.163 C 
BRANCH  21  24
ATOM      8  O   UNL     1     -15.895 -10.843  16.239  0.00  0.00    -0.274 OA
ATOM     12  N   UNL     1     -14.169 -12.264  16.771  0.00  0.00    -0.328 N 
ATOM     24  C   UNL     1     -14.732 -11.016  16.596  0.00  0.00    +0.231 C 
ATOM     41  H   UNL     1     -14.717 -13.105  16.627  0.00  0.00    +0.145 HD
ATOM     42  H   UNL     1     -13.206 -12.392  17.064  0.00  0.00    +0.145 HD
ENDBRANCH  21  24
BRANCH  21  22
ATOM     22  C   UNL     1     -13.187  -9.369  15.504  0.00  0.00    +0.074 C 
BRANCH  22  25
ATOM      1  S   UNL     1     -12.885  -6.640  15.781  0.00  0.00    -0.102 S 
ATOM     25  C   UNL     1     -12.239  -8.207  15.679  0.00  0.00    -0.008 A 
ATOM     29  C   UNL     1     -10.884  -8.251  15.769  0.00  0.00    +0.011 A 
ATOM     32  C   UNL     1     -10.339  -6.944  15.930  0.00  0.00    +0.008 A 
ATOM     33  C   UNL     1     -11.317  -5.974  15.951  0.00  0.00    +0.045 A 
ENDBRANCH  22  25
ENDBRANCH  21  22
ENDBRANCH  11  21
ENDBRANCH  13  19
BRANCH  14  10
ATOM      7  O   UNL     1      -6.472 -10.292  20.013  0.00  0.00    -0.270 OA
ATOM     10  N   UNL     1      -7.903 -11.384  18.551  0.00  0.00    -0.306 N 
ATOM     20  C   UNL     1      -6.703 -10.798  18.917  0.00  0.00    +0.248 C 
ATOM     36  H   UNL     1      -8.059 -11.675  17.590  0.00  0.00    +0.149 HD
BRANCH  20  23
ATOM     23  C   UNL     1      -5.649 -10.775  17.870  0.00  0.00    +0.078 A 
ATOM     26  C   UNL     1      -5.917 -10.215  16.637  0.00  0.00    +0.133 A 
ATOM     27  C   UNL     1      -4.418 -11.321  18.176  0.00  0.00    +0.018 A 
ATOM     28  C   UNL     1      -4.914 -10.203  15.668  0.00  0.00    +0.061 A 
ATOM     30  C   UNL     1      -3.415 -11.308  17.207  0.00  0.00    +0.015 A 
ATOM     31  C   UNL     1      -3.663 -10.749  15.953  0.00  0.00    +0.011 A 
BRANCH  31   2
ATOM      2  S   UNL     1      -2.381 -10.733  14.716  0.00  0.00    -0.128 S 
ATOM     35  C   UNL     1      -0.945 -10.177  15.678  0.00  0.00    +0.090 C 
ENDBRANCH  31   2
BRANCH  26   9
ATOM      9  O   UNL     1      -7.134  -9.677  16.340  0.00  0.00    -0.494 OA
ATOM     34  C   UNL     1      -7.691  -9.998  15.068  0.00  0.00    +0.277 C 
ENDBRANCH  26   9
ENDBRANCH  20  23
ENDBRANCH  14  10
BRANCH  13   3
ATOM      3  O   UNL     1     -11.299 -10.143  20.945  0.00  0.00    -0.379 OA
ATOM     37  H   UNL     1     -10.511  -9.580  20.886  0.00  0.00    +0.211 HD
ENDBRANCH  13   3
BRANCH  16   4
ATOM      4  O   UNL     1      -8.298 -13.504  20.505  0.00  0.00    -0.387 OA
ATOM     38  H   UNL     1      -8.526 -13.440  21.449  0.00  0.00    +0.210 HD
ENDBRANCH  16   4
BRANCH  18   5
ATOM      5  O   UNL     1     -10.981 -14.428  20.721  0.00  0.00    -0.389 OA
ATOM     39  H   UNL     1     -10.157 -14.943  20.732  0.00  0.00    +0.210 HD
ENDBRANCH  18   5
TORSDOF 12
ENDMDL
MODEL 10
REMARK VINA RESULT:      -6.4      2.527      8.775
REMARK  Name = 11882552
REMARK  14 active torsions:
REMARK  status: ('A' for Active; 'I' for Inactive)
REMARK    1  A    between atoms: S_2  and  C_31
REMARK    2  A    between atoms: S_2  and  C_35
REMARK    3  A    between atoms: O_3  and  C_13
REMARK    4  A    between atoms: O_4  and  C_16
REMARK    5  A    between atoms: O_5  and  C_18
REMARK    6  A    between atoms: O_9  and  C_26
REMARK    7  A    between atoms: O_9  and  C_34
REMARK    8  A    between atoms: N_10  and  C_14
REMARK    9  A    between atoms: N_11  and  C_21
REMARK   10  A    between atoms: C_13  and  C_19
REMARK   11  A    between atoms: C_20  and  C_23
REMARK   12  A    between atoms: C_21  and  C_22
REMARK   13  A    between atoms: C_21  and  C_24
REMARK   14  A    between atoms: C_22  and  C_25
REMARK                            x       y       z     vdW  Elec       q    Type
REMARK                         _______ _______ _______ _____ _____    ______ ____
ROOT
ATOM     13  C   UNL     1      -2.623 -10.844  13.319  0.00  0.00    +0.146 C 
ATOM     14  C   UNL     1      -4.056 -11.276  15.372  0.00  0.00    +0.107 C 
ATOM     15  C   UNL     1      -3.995 -10.660  13.970  0.00  0.00    +0.069 C 
ATOM     16  C   UNL     1      -2.924 -10.761  16.271  0.00  0.00    +0.163 C 
ATOM     17  C   UNL     1      -1.507 -10.310  14.215  0.00  0.00    +0.078 C 
ATOM     18  C   UNL     1      -1.551 -10.923  15.615  0.00  0.00    +0.148 C 
ENDROOT
BRANCH  13  19
ATOM      6  O   UNL     1      -1.528  -9.756  11.495  0.00  0.00    -0.273 OA
ATOM     11  N   UNL     1      -3.834 -10.061  11.405  0.00  0.00    -0.301 N 
ATOM     19  C   UNL     1      -2.579 -10.169  11.979  0.00  0.00    +0.246 C 
ATOM     40  H   UNL     1      -4.653 -10.370  11.917  0.00  0.00    +0.150 HD
BRANCH  11  21
ATOM     21  C   UNL     1      -4.066  -9.431  10.125  0.00  0.00    +0.163 C 
BRANCH  21  24
ATOM      8  O   UNL     1      -5.654  -7.730   9.425  0.00  0.00    -0.274 OA
ATOM     12  N   UNL     1      -5.888  -8.658  11.513  0.00  0.00    -0.328 N 
ATOM     24  C   UNL     1      -5.260  -8.503  10.294  0.00  0.00    +0.231 C 
ATOM     41  H   UNL     1      -6.708  -8.110  11.749  0.00  0.00    +0.145 HD
ATOM     42  H   UNL     1      -5.553  -9.303  12.222  0.00  0.00    +0.145 HD
ENDBRANCH  21  24
BRANCH  21  22
ATOM     22  C   UNL     1      -4.338 -10.454   9.016  0.00  0.00    +0.074 C 
BRANCH  22  25
ATOM      1  S   UNL     1      -6.414 -12.061   9.867  0.00  0.00    -0.102 S 
ATOM     25  C   UNL     1      -4.765 -11.798   9.555  0.00  0.00    -0.008 A 
ATOM     29  C   UNL     1      -3.974 -12.867   9.835  0.00  0.00    +0.011 A 
ATOM     32  C   UNL     1      -4.745 -13.959  10.328  0.00  0.00    +0.008 A 
ATOM     33  C   UNL     1      -6.087 -13.656  10.397  0.00  0.00    +0.045 A 
ENDBRANCH  22  25
ENDBRANCH  21  22
ENDBRANCH  11  21
ENDBRANCH  13  19
BRANCH  14  10
ATOM      7  O   UNL     1      -6.189 -13.155  15.775  0.00  0.00    -0.270 OA
ATOM     10  N   UNL     1      -5.345 -11.004  15.969  0.00  0.00    -0.306 N 
ATOM     20  C   UNL     1      -6.313 -11.982  16.121  0.00  0.00    +0.248 C 
ATOM     36  H   UNL     1      -5.562 -10.032  16.170  0.00  0.00    +0.149 HD
BRANCH  20  23
ATOM     23  C   UNL     1      -7.594 -11.535  16.727  0.00  0.00    +0.078 A 
ATOM     26  C   UNL     1      -7.580 -10.787  17.887  0.00  0.00    +0.133 A 
ATOM     27  C   UNL     1      -8.769 -11.889  16.096  0.00  0.00    +0.018 A 
ATOM     28  C   UNL     1      -8.793 -10.377  18.440  0.00  0.00    +0.061 A 
ATOM     30  C   UNL     1      -9.982 -11.478  16.649  0.00  0.00    +0.015 A 
ATOM     31  C   UNL     1      -9.994 -10.722  17.821  0.00  0.00    +0.011 A 
BRANCH  31   2
ATOM      2  S   UNL     1     -11.544 -10.199  18.527  0.00  0.00    -0.128 S 
ATOM     35  C   UNL     1     -11.533 -11.060  20.124  0.00  0.00    +0.090 C 
ENDBRANCH  31   2
BRANCH  26   9
ATOM      9  O   UNL     1      -6.417 -10.440  18.507  0.00  0.00    -0.494 OA
ATOM     34  C   UNL     1      -6.115 -11.097  19.735  0.00  0.00    +0.277 C 
ENDBRANCH  26   9
ENDBRANCH  20  23
ENDBRANCH  14  10
BRANCH  13   3
ATOM      3  O   UNL     1      -2.381 -12.220  13.046  0.00  0.00    -0.379 OA
ATOM     37  H   UNL     1      -2.103 -12.666  13.861  0.00  0.00    +0.211 HD
ENDBRANCH  13   3
BRANCH  16   4
ATOM      4  O   UNL     1      -2.914 -11.515  17.486  0.00  0.00    -0.387 OA
ATOM     38  H   UNL     1      -2.546 -10.941  18.181  0.00  0.00    +0.210 HD
ENDBRANCH  16   4
BRANCH  18   5
ATOM      5  O   UNL     1      -0.580 -10.271  16.434  0.00  0.00    -0.389 OA
ATOM     39  H   UNL     1      -0.962 -10.152  17.320  0.00  0.00    +0.210 HD
ENDBRANCH  18   5
TORSDOF 12
ENDMDL
