MODEL 1
REMARK VINA RESULT:      -6.6      0.000      0.000
REMARK  Name = 75367102
REMARK  5 active torsions:
REMARK  status: ('A' for Active; 'I' for Inactive)
REMARK    1  A    between atoms: O_2  and  C_12
REMARK    2  A    between atoms: N_5  and  C_8
REMARK    3  A    between atoms: N_5  and  C_9
REMARK    4  A    between atoms: N_6  and  C_16
REMARK    5  A    between atoms: C_14  and  C_16
REMARK                            x       y       z     vdW  Elec       q    Type
REMARK                         _______ _______ _______ _____ _____    ______ ____
ROOT
ATOM      1  O   UNL     1      13.205   9.125  19.062  0.00  0.00    -0.371 OA
ATOM      9  C   UNL     1      14.145   6.952  19.249  0.00  0.00    +0.111 C 
ATOM     12  C   UNL     1      12.760   6.948  19.873  0.00  0.00    +0.164 C 
ATOM     14  C   UNL     1      12.139   8.172  19.214  0.00  0.00    +0.165 C 
ATOM     15  C   UNL     1      14.458   8.439  19.223  0.00  0.00    +0.181 C 
ENDROOT
BRANCH  12   2
ATOM      2  O   UNL     1      12.035   5.769  19.584  0.00  0.00    -0.388 OA
ATOM     23  H   UNL     1      11.647   5.437  20.411  0.00  0.00    +0.210 HD
ENDBRANCH  12   2
BRANCH   9   5
ATOM      5  N   UNL     1      15.123   6.180  19.997  0.00  0.00    -0.306 NA
ATOM     22  H   UNL     1      15.074   5.211  19.680  0.00  0.00    +0.123 HD
BRANCH   5   8
ATOM      8  C   UNL     1      16.443   6.767  19.823  0.00  0.00    +0.054 C 
ATOM     10  C   UNL     1      17.350   5.770  19.069  0.00  0.00    +0.019 C 
ATOM     11  C   UNL     1      17.297   6.482  21.078  0.00  0.00    +0.019 C 
ATOM     13  C   UNL     1      18.442   6.113  20.107  0.00  0.00    +0.003 C 
ENDBRANCH   5   8
ENDBRANCH   9   5
BRANCH  14  16
ATOM     16  C   UNL     1      11.014   8.786  20.029  0.00  0.00    +0.140 C 
BRANCH  16   6
ATOM      3  O   UNL     1      13.167  12.976  24.388  0.00  0.00    -0.377 OA
ATOM      4  O   UNL     1      10.429   9.193  22.751  0.00  0.00    -0.253 OA
ATOM      6  N   UNL     1      11.486   9.887  20.837  0.00  0.00    -0.297 N 
ATOM      7  N   UNL     1      11.682  11.145  22.829  0.00  0.00    -0.281 N 
ATOM     17  C   UNL     1      11.151  10.018  22.180  0.00  0.00    +0.302 C 
ATOM     18  C   UNL     1      12.418  12.245  22.193  0.00  0.00    +0.137 C 
ATOM     19  C   UNL     1      11.374  11.363  24.245  0.00  0.00    +0.137 C 
ATOM     20  C   UNL     1      13.597  12.681  23.058  0.00  0.00    +0.179 C 
ATOM     21  C   UNL     1      12.608  11.816  25.008  0.00  0.00    +0.179 C 
ATOM     24  H   UNL     1      12.061  10.569  20.364  0.00  0.00    +0.150 HD
ENDBRANCH  16   6
ENDBRANCH  14  16
TORSDOF 5
ENDMDL
MODEL 2
REMARK VINA RESULT:      -6.1      1.682      2.245
REMARK  Name = 75367102
REMARK  5 active torsions:
REMARK  status: ('A' for Active; 'I' for Inactive)
REMARK    1  A    between atoms: O_2  and  C_12
REMARK    2  A    between atoms: N_5  and  C_8
REMARK    3  A    between atoms: N_5  and  C_9
REMARK    4  A    between atoms: N_6  and  C_16
REMARK    5  A    between atoms: C_14  and  C_16
REMARK                            x       y       z     vdW  Elec       q    Type
REMARK                         _______ _______ _______ _____ _____    ______ ____
ROOT
ATOM      1  O   UNL     1      11.733   7.197  19.751  0.00  0.00    -0.371 OA
ATOM      9  C   UNL     1      14.014   7.200  20.413  0.00  0.00    +0.111 C 
ATOM     12  C   UNL     1      13.309   8.379  21.061  0.00  0.00    +0.164 C 
ATOM     14  C   UNL     1      11.856   7.930  20.982  0.00  0.00    +0.165 C 
ATOM     15  C   UNL     1      13.050   6.855  19.289  0.00  0.00    +0.181 C 
ENDROOT
BRANCH  12   2
ATOM      2  O   UNL     1      13.722   8.594  22.396  0.00  0.00    -0.388 OA
ATOM     23  H   UNL     1      13.466   7.820  22.925  0.00  0.00    +0.210 HD
ENDBRANCH  12   2
BRANCH   9   5
ATOM      5  N   UNL     1      15.351   7.510  19.937  0.00  0.00    -0.306 NA
ATOM     22  H   UNL     1      15.621   8.420  20.313  0.00  0.00    +0.123 HD
BRANCH   5   8
ATOM      8  C   UNL     1      16.265   6.445  20.322  0.00  0.00    +0.054 C 
ATOM     10  C   UNL     1      17.591   7.064  20.814  0.00  0.00    +0.019 C 
ATOM     11  C   UNL     1      17.037   5.962  19.076  0.00  0.00    +0.019 C 
ATOM     13  C   UNL     1      18.307   5.995  19.958  0.00  0.00    +0.003 C 
ENDBRANCH   5   8
ENDBRANCH   9   5
BRANCH  14  16
ATOM     16  C   UNL     1      10.870   9.085  20.993  0.00  0.00    +0.140 C 
BRANCH  16   6
ATOM      3  O   UNL     1      11.428  13.660  25.460  0.00  0.00    -0.377 OA
ATOM      4  O   UNL     1      11.774  11.748  20.909  0.00  0.00    -0.253 OA
ATOM      6  N   UNL     1      11.073   9.943  22.139  0.00  0.00    -0.297 N 
ATOM      7  N   UNL     1      11.678  11.957  23.218  0.00  0.00    -0.281 N 
ATOM     17  C   UNL     1      11.524  11.252  22.012  0.00  0.00    +0.302 C 
ATOM     18  C   UNL     1      11.549  11.400  24.571  0.00  0.00    +0.137 C 
ATOM     19  C   UNL     1      12.156  13.342  23.178  0.00  0.00    +0.137 C 
ATOM     20  C   UNL     1      10.814  12.370  25.490  0.00  0.00    +0.179 C 
ATOM     21  C   UNL     1      11.373  14.216  24.145  0.00  0.00    +0.179 C 
ATOM     24  H   UNL     1      10.885   9.530  23.040  0.00  0.00    +0.150 HD
ENDBRANCH  16   6
ENDBRANCH  14  16
TORSDOF 5
ENDMDL
MODEL 3
REMARK VINA RESULT:      -5.9      2.847      4.503
REMARK  Name = 75367102
REMARK  5 active torsions:
REMARK  status: ('A' for Active; 'I' for Inactive)
REMARK    1  A    between atoms: O_2  and  C_12
REMARK    2  A    between atoms: N_5  and  C_8
REMARK    3  A    between atoms: N_5  and  C_9
REMARK    4  A    between atoms: N_6  and  C_16
REMARK    5  A    between atoms: C_14  and  C_16
REMARK                            x       y       z     vdW  Elec       q    Type
REMARK                         _______ _______ _______ _____ _____    ______ ____
ROOT
ATOM      1  O   UNL     1      17.287   7.213  21.070  0.00  0.00    -0.371 OA
ATOM      9  C   UNL     1      19.011   6.019  19.955  0.00  0.00    +0.111 C 
ATOM     12  C   UNL     1      17.669   5.598  19.384  0.00  0.00    +0.164 C 
ATOM     14  C   UNL     1      16.795   6.777  19.791  0.00  0.00    +0.165 C 
ATOM     15  C   UNL     1      18.593   6.647  21.275  0.00  0.00    +0.181 C 
ENDROOT
BRANCH  12   2
ATOM      2  O   UNL     1      17.702   5.426  17.981  0.00  0.00    -0.388 OA
ATOM     23  H   UNL     1      18.532   5.806  17.646  0.00  0.00    +0.210 HD
ENDBRANCH  12   2
BRANCH   9   5
ATOM      5  N   UNL     1      19.944   4.918  20.123  0.00  0.00    -0.306 NA
ATOM     22  H   UNL     1      20.374   4.723  19.218  0.00  0.00    +0.123 HD
BRANCH   5   8
ATOM      8  C   UNL     1      20.917   5.256  21.151  0.00  0.00    +0.054 C 
ATOM     10  C   UNL     1      22.205   5.783  20.481  0.00  0.00    +0.019 C 
ATOM     11  C   UNL     1      21.719   3.991  21.529  0.00  0.00    +0.019 C 
ATOM     13  C   UNL     1      22.983   4.880  21.465  0.00  0.00    +0.003 C 
ENDBRANCH   5   8
ENDBRANCH   9   5
BRANCH  14  16
ATOM     16  C   UNL     1      15.322   6.422  19.901  0.00  0.00    +0.140 C 
BRANCH  16   6
ATOM      3  O   UNL     1      11.224  10.627  22.493  0.00  0.00    -0.377 OA
ATOM      4  O   UNL     1      12.513   6.553  19.998  0.00  0.00    -0.253 OA
ATOM      6  N   UNL     1      14.547   7.534  20.405  0.00  0.00    -0.297 N 
ATOM      7  N   UNL     1      12.546   8.677  20.932  0.00  0.00    -0.281 N 
ATOM     17  C   UNL     1      13.157   7.521  20.418  0.00  0.00    +0.302 C 
ATOM     18  C   UNL     1      13.227   9.923  21.309  0.00  0.00    +0.137 C 
ATOM     19  C   UNL     1      11.083   8.751  20.977  0.00  0.00    +0.137 C 
ATOM     20  C   UNL     1      12.643  10.493  22.598  0.00  0.00    +0.179 C 
ATOM     21  C   UNL     1      10.609   9.354  22.290  0.00  0.00    +0.179 C 
ATOM     24  H   UNL     1      15.074   8.330  20.731  0.00  0.00    +0.150 HD
ENDBRANCH  16   6
ENDBRANCH  14  16
TORSDOF 5
ENDMDL
MODEL 4
REMARK VINA RESULT:      -5.8      3.412      5.700
REMARK  Name = 75367102
REMARK  5 active torsions:
REMARK  status: ('A' for Active; 'I' for Inactive)
REMARK    1  A    between atoms: O_2  and  C_12
REMARK    2  A    between atoms: N_5  and  C_8
REMARK    3  A    between atoms: N_5  and  C_9
REMARK    4  A    between atoms: N_6  and  C_16
REMARK    5  A    between atoms: C_14  and  C_16
REMARK                            x       y       z     vdW  Elec       q    Type
REMARK                         _______ _______ _______ _____ _____    ______ ____
ROOT
ATOM      1  O   UNL     1      17.312   6.273  19.937  0.00  0.00    -0.371 OA
ATOM      9  C   UNL     1      19.506   5.797  20.713  0.00  0.00    +0.111 C 
ATOM     12  C   UNL     1      19.044   7.114  21.312  0.00  0.00    +0.164 C 
ATOM     14  C   UNL     1      17.534   6.988  21.165  0.00  0.00    +0.165 C 
ATOM     15  C   UNL     1      18.544   5.644  19.546  0.00  0.00    +0.181 C 
ENDROOT
BRANCH  12   2
ATOM      2  O   UNL     1      19.432   7.264  22.663  0.00  0.00    -0.388 OA
ATOM     23  H   UNL     1      20.398   7.169  22.718  0.00  0.00    +0.210 HD
ENDBRANCH  12   2
BRANCH   9   5
ATOM      5  N   UNL     1      20.900   5.800  20.302  0.00  0.00    -0.306 NA
ATOM     22  H   UNL     1      21.209   6.770  20.230  0.00  0.00    +0.123 HD
BRANCH   5   8
ATOM      8  C   UNL     1      21.689   5.023  21.246  0.00  0.00    +0.054 C 
ATOM     10  C   UNL     1      23.070   4.718  20.626  0.00  0.00    +0.019 C 
ATOM     11  C   UNL     1      21.361   3.524  21.071  0.00  0.00    +0.019 C 
ATOM     13  C   UNL     1      22.885   3.273  21.141  0.00  0.00    +0.003 C 
ENDBRANCH   5   8
ENDBRANCH   9   5
BRANCH  14  16
ATOM     16  C   UNL     1      16.822   8.329  21.114  0.00  0.00    +0.140 C 
BRANCH  16   6
ATOM      3  O   UNL     1      10.830   8.341  18.816  0.00  0.00    -0.377 OA
ATOM      4  O   UNL     1      14.323   7.755  22.271  0.00  0.00    -0.253 OA
ATOM      6  N   UNL     1      15.567   8.234  20.404  0.00  0.00    -0.297 N 
ATOM      7  N   UNL     1      13.236   7.881  20.225  0.00  0.00    -0.281 N 
ATOM     17  C   UNL     1      14.371   7.945  21.051  0.00  0.00    +0.302 C 
ATOM     18  C   UNL     1      13.227   7.944  18.757  0.00  0.00    +0.137 C 
ATOM     19  C   UNL     1      11.934   7.575  20.824  0.00  0.00    +0.137 C 
ATOM     20  C   UNL     1      12.064   8.794  18.258  0.00  0.00    +0.179 C 
ATOM     21  C   UNL     1      10.844   8.460  20.240  0.00  0.00    +0.179 C 
ATOM     24  H   UNL     1      15.611   8.373  19.405  0.00  0.00    +0.150 HD
ENDBRANCH  16   6
ENDBRANCH  14  16
TORSDOF 5
ENDMDL
MODEL 5
REMARK VINA RESULT:      -5.8      3.970      6.539
REMARK  Name = 75367102
REMARK  5 active torsions:
REMARK  status: ('A' for Active; 'I' for Inactive)
REMARK    1  A    between atoms: O_2  and  C_12
REMARK    2  A    between atoms: N_5  and  C_8
REMARK    3  A    between atoms: N_5  and  C_9
REMARK    4  A    between atoms: N_6  and  C_16
REMARK    5  A    between atoms: C_14  and  C_16
REMARK                            x       y       z     vdW  Elec       q    Type
REMARK                         _______ _______ _______ _____ _____    ______ ____
ROOT
ATOM      1  O   UNL     1      19.493   7.396  21.591  0.00  0.00    -0.371 OA
ATOM      9  C   UNL     1      20.459   5.645  20.310  0.00  0.00    +0.111 C 
ATOM     12  C   UNL     1      18.947   5.538  20.234  0.00  0.00    +0.164 C 
ATOM     14  C   UNL     1      18.533   6.952  20.618  0.00  0.00    +0.165 C 
ATOM     15  C   UNL     1      20.637   6.527  21.536  0.00  0.00    +0.181 C 
ENDROOT
BRANCH  12   2
ATOM      2  O   UNL     1      18.489   5.186  18.943  0.00  0.00    -0.388 OA
ATOM     23  H   UNL     1      17.747   5.770  18.712  0.00  0.00    +0.210 HD
ENDBRANCH  12   2
BRANCH   9   5
ATOM      5  N   UNL     1      21.130   4.362  20.433  0.00  0.00    -0.306 NA
ATOM     22  H   UNL     1      21.472   4.091  19.510  0.00  0.00    +0.123 HD
BRANCH   5   8
ATOM      8  C   UNL     1      22.191   4.460  21.424  0.00  0.00    +0.054 C 
ATOM     10  C   UNL     1      23.499   3.895  20.827  0.00  0.00    +0.019 C 
ATOM     11  C   UNL     1      22.155   3.213  22.334  0.00  0.00    +0.019 C 
ATOM     13  C   UNL     1      23.691   3.157  22.171  0.00  0.00    +0.003 C 
ENDBRANCH   5   8
ENDBRANCH   9   5
BRANCH  14  16
ATOM     16  C   UNL     1      17.134   7.029  21.204  0.00  0.00    +0.140 C 
BRANCH  16   6
ATOM      3  O   UNL     1      12.653   9.782  17.524  0.00  0.00    -0.377 OA
ATOM      4  O   UNL     1      15.627   6.116  19.010  0.00  0.00    -0.253 OA
ATOM      6  N   UNL     1      16.261   7.840  20.385  0.00  0.00    -0.297 N 
ATOM      7  N   UNL     1      14.749   8.226  18.610  0.00  0.00    -0.281 N 
ATOM     17  C   UNL     1      15.549   7.312  19.315  0.00  0.00    +0.302 C 
ATOM     18  C   UNL     1      14.715   9.682  18.809  0.00  0.00    +0.137 C 
ATOM     19  C   UNL     1      13.968   7.755  17.463  0.00  0.00    +0.137 C 
ATOM     20  C   UNL     1      13.285  10.207  18.733  0.00  0.00    +0.179 C 
ATOM     21  C   UNL     1      12.571   8.356  17.471  0.00  0.00    +0.179 C 
ATOM     24  H   UNL     1      16.213   8.820  20.624  0.00  0.00    +0.150 HD
ENDBRANCH  16   6
ENDBRANCH  14  16
TORSDOF 5
ENDMDL
MODEL 6
REMARK VINA RESULT:      -5.6     25.839     28.153
REMARK  Name = 75367102
REMARK  5 active torsions:
REMARK  status: ('A' for Active; 'I' for Inactive)
REMARK    1  A    between atoms: O_2  and  C_12
REMARK    2  A    between atoms: N_5  and  C_8
REMARK    3  A    between atoms: N_5  and  C_9
REMARK    4  A    between atoms: N_6  and  C_16
REMARK    5  A    between atoms: C_14  and  C_16
REMARK                            x       y       z     vdW  Elec       q    Type
REMARK                         _______ _______ _______ _____ _____    ______ ____
ROOT
ATOM      1  O   UNL     1      -1.338 -10.953  15.093  0.00  0.00    -0.371 OA
ATOM      9  C   UNL     1      -3.441 -11.092  16.190  0.00  0.00    +0.111 C 
ATOM     12  C   UNL     1      -3.670 -10.843  14.709  0.00  0.00    +0.164 C 
ATOM     14  C   UNL     1      -2.342 -11.306  14.126  0.00  0.00    +0.165 C 
ATOM     15  C   UNL     1      -1.989 -10.670  16.344  0.00  0.00    +0.181 C 
ENDROOT
BRANCH  12   2
ATOM      2  O   UNL     1      -4.759 -11.583  14.194  0.00  0.00    -0.388 OA
ATOM     23  H   UNL     1      -5.583 -11.178  14.513  0.00  0.00    +0.210 HD
ENDBRANCH  12   2
BRANCH   9   5
ATOM      5  N   UNL     1      -4.342 -10.347  17.052  0.00  0.00    -0.306 NA
ATOM     22  H   UNL     1      -4.883  -9.706  16.472  0.00  0.00    +0.123 HD
BRANCH   5   8
ATOM      8  C   UNL     1      -5.177 -11.274  17.802  0.00  0.00    +0.054 C 
ATOM     10  C   UNL     1      -6.122 -10.475  18.726  0.00  0.00    +0.019 C 
ATOM     11  C   UNL     1      -4.427 -11.719  19.076  0.00  0.00    +0.019 C 
ATOM     13  C   UNL     1      -5.755 -11.490  19.833  0.00  0.00    +0.003 C 
ENDBRANCH   5   8
ENDBRANCH   9   5
BRANCH  14  16
ATOM     16  C   UNL     1      -2.016 -10.660  12.790  0.00  0.00    +0.140 C 
BRANCH  16   6
ATOM      3  O   UNL     1      -6.453 -10.451   8.157  0.00  0.00    -0.377 OA
ATOM      4  O   UNL     1      -2.256  -9.147  10.430  0.00  0.00    -0.253 OA
ATOM      6  N   UNL     1      -3.171 -10.630  11.922  0.00  0.00    -0.297 N 
ATOM      7  N   UNL     1      -4.406  -9.924  10.033  0.00  0.00    -0.281 N 
ATOM     17  C   UNL     1      -3.211  -9.853  10.770  0.00  0.00    +0.302 C 
ATOM     18  C   UNL     1      -5.637 -10.615  10.441  0.00  0.00    +0.137 C 
ATOM     19  C   UNL     1      -4.536  -9.132   8.807  0.00  0.00    +0.137 C 
ATOM     20  C   UNL     1      -6.269 -11.341   9.259  0.00  0.00    +0.179 C 
ATOM     21  C   UNL     1      -5.198  -9.941   7.703  0.00  0.00    +0.179 C 
ATOM     24  H   UNL     1      -3.958 -11.194  12.210  0.00  0.00    +0.150 HD
ENDBRANCH  16   6
ENDBRANCH  14  16
TORSDOF 5
ENDMDL
MODEL 7
REMARK VINA RESULT:      -5.5     28.595     30.773
REMARK  Name = 75367102
REMARK  5 active torsions:
REMARK  status: ('A' for Active; 'I' for Inactive)
REMARK    1  A    between atoms: O_2  and  C_12
REMARK    2  A    between atoms: N_5  and  C_8
REMARK    3  A    between atoms: N_5  and  C_9
REMARK    4  A    between atoms: N_6  and  C_16
REMARK    5  A    between atoms: C_14  and  C_16
REMARK                            x       y       z     vdW  Elec       q    Type
REMARK                         _______ _______ _______ _____ _____    ______ ____
ROOT
ATOM      1  O   UNL     1     -17.411   3.262  27.102  0.00  0.00    -0.371 OA
ATOM      9  C   UNL     1     -16.557   2.929  24.911  0.00  0.00    +0.111 C 
ATOM     12  C   UNL     1     -16.579   1.598  25.641  0.00  0.00    +0.164 C 
ATOM     14  C   UNL     1     -17.596   1.883  26.739  0.00  0.00    +0.165 C 
ATOM     15  C   UNL     1     -16.648   3.909  26.070  0.00  0.00    +0.181 C 
ENDROOT
BRANCH  12   2
ATOM      2  O   UNL     1     -16.986   0.527  24.812  0.00  0.00    -0.388 OA
ATOM     23  H   UNL     1     -17.455  -0.124  25.359  0.00  0.00    +0.210 HD
ENDBRANCH  12   2
BRANCH   9   5
ATOM      5  N   UNL     1     -15.371   3.126  24.095  0.00  0.00    -0.306 NA
ATOM     22  H   UNL     1     -15.492   2.605  23.225  0.00  0.00    +0.123 HD
BRANCH   5   8
ATOM      8  C   UNL     1     -15.159   4.549  23.878  0.00  0.00    +0.054 C 
ATOM     10  C   UNL     1     -15.622   4.922  22.453  0.00  0.00    +0.019 C 
ATOM     11  C   UNL     1     -13.713   4.781  23.391  0.00  0.00    +0.019 C 
ATOM     13  C   UNL     1     -14.314   5.738  22.336  0.00  0.00    +0.003 C 
ENDBRANCH   5   8
ENDBRANCH   9   5
BRANCH  14  16
ATOM     16  C   UNL     1     -17.420   1.001  27.963  0.00  0.00    +0.140 C 
BRANCH  16   6
ATOM      3  O   UNL     1     -13.982   3.686  32.671  0.00  0.00    -0.377 OA
ATOM      4  O   UNL     1     -15.633  -0.044  29.869  0.00  0.00    -0.253 OA
ATOM      6  N   UNL     1     -16.838   1.735  29.064  0.00  0.00    -0.297 N 
ATOM      7  N   UNL     1     -15.483   1.985  30.985  0.00  0.00    -0.281 N 
ATOM     17  C   UNL     1     -15.960   1.144  29.965  0.00  0.00    +0.302 C 
ATOM     18  C   UNL     1     -15.935   3.356  31.260  0.00  0.00    +0.137 C 
ATOM     19  C   UNL     1     -14.558   1.442  31.983  0.00  0.00    +0.137 C 
ATOM     20  C   UNL     1     -14.754   4.255  31.613  0.00  0.00    +0.179 C 
ATOM     21  C   UNL     1     -13.436   2.425  32.278  0.00  0.00    +0.179 C 
ATOM     24  H   UNL     1     -17.120   2.700  29.152  0.00  0.00    +0.150 HD
ENDBRANCH  16   6
ENDBRANCH  14  16
TORSDOF 5
ENDMDL
MODEL 8
REMARK VINA RESULT:      -5.5     27.414     29.817
REMARK  Name = 75367102
REMARK  5 active torsions:
REMARK  status: ('A' for Active; 'I' for Inactive)
REMARK    1  A    between atoms: O_2  and  C_12
REMARK    2  A    between atoms: N_5  and  C_8
REMARK    3  A    between atoms: N_5  and  C_9
REMARK    4  A    between atoms: N_6  and  C_16
REMARK    5  A    between atoms: C_14  and  C_16
REMARK                            x       y       z     vdW  Elec       q    Type
REMARK                         _______ _______ _______ _____ _____    ______ ____
ROOT
ATOM      1  O   UNL     1     -16.920   3.989  21.896  0.00  0.00    -0.371 OA
ATOM      9  C   UNL     1     -14.880   5.107  22.373  0.00  0.00    +0.111 C 
ATOM     12  C   UNL     1     -15.470   4.581  23.669  0.00  0.00    +0.164 C 
ATOM     14  C   UNL     1     -16.405   3.499  23.147  0.00  0.00    +0.165 C 
ATOM     15  C   UNL     1     -16.093   5.079  21.457  0.00  0.00    +0.181 C 
ENDROOT
BRANCH  12   2
ATOM      2  O   UNL     1     -14.489   4.054  24.541  0.00  0.00    -0.388 OA
ATOM     23  H   UNL     1     -14.739   3.142  24.768  0.00  0.00    +0.210 HD
ENDBRANCH  12   2
BRANCH   9   5
ATOM      5  N   UNL     1     -14.293   6.431  22.495  0.00  0.00    -0.306 NA
ATOM     22  H   UNL     1     -13.650   6.423  23.287  0.00  0.00    +0.123 HD
BRANCH   5   8
ATOM      8  C   UNL     1     -13.645   6.795  21.243  0.00  0.00    +0.054 C 
ATOM     10  C   UNL     1     -12.222   6.198  21.214  0.00  0.00    +0.019 C 
ATOM     11  C   UNL     1     -12.982   8.180  21.396  0.00  0.00    +0.019 C 
ATOM     13  C   UNL     1     -11.750   7.572  20.687  0.00  0.00    +0.003 C 
ENDBRANCH   5   8
ENDBRANCH   9   5
BRANCH  14  16
ATOM     16  C   UNL     1     -17.555   3.192  24.090  0.00  0.00    +0.140 C 
BRANCH  16   6
ATOM      3  O   UNL     1     -15.198   2.324  29.997  0.00  0.00    -0.377 OA
ATOM      4  O   UNL     1     -17.371   0.943  25.771  0.00  0.00    -0.253 OA
ATOM      6  N   UNL     1     -17.124   3.204  25.470  0.00  0.00    -0.297 N 
ATOM      7  N   UNL     1     -16.629   2.219  27.561  0.00  0.00    -0.281 N 
ATOM     17  C   UNL     1     -17.060   2.045  26.235  0.00  0.00    +0.302 C 
ATOM     18  C   UNL     1     -16.387   3.503  28.233  0.00  0.00    +0.137 C 
ATOM     19  C   UNL     1     -16.538   1.050  28.440  0.00  0.00    +0.137 C 
ATOM     20  C   UNL     1     -15.134   3.434  29.100  0.00  0.00    +0.179 C 
ATOM     21  C   UNL     1     -15.267   1.093  29.274  0.00  0.00    +0.179 C 
ATOM     24  H   UNL     1     -16.888   4.108  25.853  0.00  0.00    +0.150 HD
ENDBRANCH  16   6
ENDBRANCH  14  16
TORSDOF 5
ENDMDL
MODEL 9
REMARK VINA RESULT:      -5.4     26.285     28.269
REMARK  Name = 75367102
REMARK  5 active torsions:
REMARK  status: ('A' for Active; 'I' for Inactive)
REMARK    1  A    between atoms: O_2  and  C_12
REMARK    2  A    between atoms: N_5  and  C_8
REMARK    3  A    between atoms: N_5  and  C_9
REMARK    4  A    between atoms: N_6  and  C_16
REMARK    5  A    between atoms: C_14  and  C_16
REMARK                            x       y       z     vdW  Elec       q    Type
REMARK                         _______ _______ _______ _____ _____    ______ ____
ROOT
ATOM      1  O   UNL     1      -5.555 -11.696  16.092  0.00  0.00    -0.371 OA
ATOM      9  C   UNL     1      -3.498 -11.231  14.999  0.00  0.00    +0.111 C 
ATOM     12  C   UNL     1      -3.403 -10.778  16.445  0.00  0.00    +0.164 C 
ATOM     14  C   UNL     1      -4.517 -11.598  17.082  0.00  0.00    +0.165 C 
ATOM     15  C   UNL     1      -5.003 -11.334  14.814  0.00  0.00    +0.181 C 
ENDROOT
BRANCH  12   2
ATOM      2  O   UNL     1      -2.144 -11.059  17.024  0.00  0.00    -0.388 OA
ATOM     23  H   UNL     1      -1.993 -12.018  16.979  0.00  0.00    +0.210 HD
ENDBRANCH  12   2
BRANCH   9   5
ATOM      5  N   UNL     1      -2.873 -10.315  14.059  0.00  0.00    -0.306 NA
ATOM     22  H   UNL     1      -1.911 -10.156  14.359  0.00  0.00    +0.123 HD
BRANCH   5   8
ATOM      8  C   UNL     1      -2.964 -10.861  12.713  0.00  0.00    +0.054 C 
ATOM     10  C   UNL     1      -1.820 -10.284  11.851  0.00  0.00    +0.019 C 
ATOM     11  C   UNL     1      -3.932  -9.996  11.877  0.00  0.00    +0.019 C 
ATOM     13  C   UNL     1      -2.879 -10.066  10.747  0.00  0.00    +0.003 C 
ENDBRANCH   5   8
ENDBRANCH   9   5
BRANCH  14  16
ATOM     16  C   UNL     1      -5.073 -10.972  18.349  0.00  0.00    +0.140 C 
BRANCH  16   6
ATOM      3  O   UNL     1     -11.352  -9.756  18.886  0.00  0.00    -0.377 OA
ATOM      4  O   UNL     1      -7.033 -11.782  20.199  0.00  0.00    -0.253 OA
ATOM      6  N   UNL     1      -6.493 -10.724  18.236  0.00  0.00    -0.297 N 
ATOM      7  N   UNL     1      -8.745 -10.846  18.944  0.00  0.00    -0.281 N 
ATOM     17  C   UNL     1      -7.399 -11.159  19.197  0.00  0.00    +0.302 C 
ATOM     18  C   UNL     1      -9.280 -10.246  17.713  0.00  0.00    +0.137 C 
ATOM     19  C   UNL     1      -9.769 -11.272  19.902  0.00  0.00    +0.137 C 
ATOM     20  C   UNL     1     -10.345  -9.204  18.036  0.00  0.00    +0.179 C 
ATOM     21  C   UNL     1     -10.791 -10.171  20.133  0.00  0.00    +0.179 C 
ATOM     24  H   UNL     1      -6.792 -10.230  17.408  0.00  0.00    +0.150 HD
ENDBRANCH  16   6
ENDBRANCH  14  16
TORSDOF 5
ENDMDL
MODEL 10
REMARK VINA RESULT:      -5.4      5.255      8.023
REMARK  Name = 75367102
REMARK  5 active torsions:
REMARK  status: ('A' for Active; 'I' for Inactive)
REMARK    1  A    between atoms: O_2  and  C_12
REMARK    2  A    between atoms: N_5  and  C_8
REMARK    3  A    between atoms: N_5  and  C_9
REMARK    4  A    between atoms: N_6  and  C_16
REMARK    5  A    between atoms: C_14  and  C_16
REMARK                            x       y       z     vdW  Elec       q    Type
REMARK                         _______ _______ _______ _____ _____    ______ ____
ROOT
ATOM      1  O   UNL     1      22.314   6.835  22.043  0.00  0.00    -0.371 OA
ATOM      9  C   UNL     1      22.367   5.049  20.478  0.00  0.00    +0.111 C 
ATOM     12  C   UNL     1      20.952   5.203  21.005  0.00  0.00    +0.164 C 
ATOM     14  C   UNL     1      20.987   6.633  21.527  0.00  0.00    +0.165 C 
ATOM     15  C   UNL     1      23.165   5.793  21.537  0.00  0.00    +0.181 C 
ENDROOT
BRANCH  12   2
ATOM      2  O   UNL     1      19.974   5.032  19.999  0.00  0.00    -0.388 OA
ATOM     23  H   UNL     1      19.733   5.908  19.654  0.00  0.00    +0.210 HD
ENDBRANCH  12   2
BRANCH   9   5
ATOM      5  N   UNL     1      22.785   3.666  20.321  0.00  0.00    -0.306 NA
ATOM     22  H   UNL     1      22.890   3.475  19.324  0.00  0.00    +0.123 HD
BRANCH   5   8
ATOM      8  C   UNL     1      24.010   3.438  21.074  0.00  0.00    +0.054 C 
ATOM     10  C   UNL     1      25.037   2.722  20.170  0.00  0.00    +0.019 C 
ATOM     11  C   UNL     1      23.887   2.114  21.858  0.00  0.00    +0.019 C 
ATOM     13  C   UNL     1      25.320   1.796  21.374  0.00  0.00    +0.003 C 
ENDBRANCH   5   8
ENDBRANCH   9   5
BRANCH  14  16
ATOM     16  C   UNL     1      19.965   6.899  22.618  0.00  0.00    +0.140 C 
BRANCH  16   6
ATOM      3  O   UNL     1      14.350   7.748  19.627  0.00  0.00    -0.377 OA
ATOM      4  O   UNL     1      18.592   9.188  21.729  0.00  0.00    -0.253 OA
ATOM      6  N   UNL     1      18.620   6.923  22.089  0.00  0.00    -0.297 N 
ATOM      7  N   UNL     1      16.699   7.962  21.185  0.00  0.00    -0.281 N 
ATOM     17  C   UNL     1      18.011   8.100  21.670  0.00  0.00    +0.302 C 
ATOM     18  C   UNL     1      15.885   6.739  21.220  0.00  0.00    +0.137 C 
ATOM     19  C   UNL     1      15.979   9.153  20.728  0.00  0.00    +0.137 C 
ATOM     20  C   UNL     1      15.103   6.570  19.921  0.00  0.00    +0.179 C 
ATOM     21  C   UNL     1      15.216   8.870  19.444  0.00  0.00    +0.179 C 
ATOM     24  H   UNL     1      18.141   6.035  22.057  0.00  0.00    +0.150 HD
ENDBRANCH  16   6
ENDBRANCH  14  16
TORSDOF 5
ENDMDL
