MODEL 1
REMARK VINA RESULT:      -6.5      0.000      0.000
REMARK  Name = 45784118
REMARK  13 active torsions:
REMARK  status: ('A' for Active; 'I' for Inactive)
REMARK    1  A    between atoms: N_2  and  C_13
REMARK    2  A    between atoms: N_2  and  C_19
REMARK    3  A    between atoms: C_6  and  C_10
REMARK    4  A    between atoms: C_7  and  C_13
REMARK    5  A    between atoms: C_9  and  C_14
REMARK    6  A    between atoms: C_10  and  C_15
REMARK    7  A    between atoms: C_10  and  C_16
REMARK    8  A    between atoms: C_11  and  C_17
REMARK    9  A    between atoms: C_14  and  C_18
REMARK   10  A    between atoms: C_20  and  C_21
REMARK   11  A    between atoms: C_20  and  C_23
REMARK   12  A    between atoms: C_20  and  C_24
REMARK   13  A    between atoms: C_20  and  C_25
REMARK                            x       y       z     vdW  Elec       q    Type
REMARK                         _______ _______ _______ _____ _____    ______ ____
ROOT
ATOM      6  C   UNL     1      17.203   8.069  21.213  0.00  0.00    +0.000 C 
ATOM      7  C   UNL     1      16.865   7.077  20.072  0.00  0.00    +0.032 C 
ATOM      8  C   UNL     1      18.699   8.423  21.191  0.00  0.00    +0.012 C 
ATOM      9  C   UNL     1      19.594   7.178  21.346  0.00  0.00    +0.024 C 
ATOM     11  C   UNL     1      19.151   6.050  20.436  0.00  0.00    -0.073 C 
ATOM     12  C   UNL     1      17.934   6.028  19.865  0.00  0.00    -0.022 C 
ATOM     17  C   UNL     1      20.159   4.969  20.160  0.00  0.00    +0.039 C 
ENDROOT
BRANCH   6  10
ATOM     10  C   UNL     1      16.367   9.348  21.119  0.00  0.00    -0.013 C 
ATOM     15  C   UNL     1      15.325   9.386  22.235  0.00  0.00    +0.007 C 
ATOM     16  C   UNL     1      17.266  10.578  21.178  0.00  0.00    +0.007 C 
ENDBRANCH   6  10
BRANCH   7  13
ATOM     13  C   UNL     1      15.517   6.390  20.317  0.00  0.00    +0.109 C 
BRANCH  13   2
ATOM      2  N   UNL     1      14.555   6.865  19.362  0.00  0.00    -0.342 N 
ATOM     29  H   UNL     1      14.775   6.840  18.372  0.00  0.00    +0.146 HD
BRANCH   2  19
ATOM      5  N   UNL     1      11.155   7.140  20.734  0.00  0.00    -0.261 NA
ATOM     19  C   UNL     1      13.327   7.416  19.707  0.00  0.00    +0.045 A 
ATOM     22  C   UNL     1      13.020   8.736  19.398  0.00  0.00    +0.026 A 
ATOM     26  C   UNL     1      12.368   6.666  20.371  0.00  0.00    +0.133 A 
ATOM     27  C   UNL     1      11.783   9.259  19.756  0.00  0.00    +0.021 A 
ATOM     28  C   UNL     1      10.894   8.428  20.417  0.00  0.00    +0.111 A 
ENDBRANCH   2  19
ENDBRANCH  13   2
ENDBRANCH   7  13
BRANCH   9  14
ATOM     14  C   UNL     1      19.649   6.715  22.806  0.00  0.00    +0.105 C 
BRANCH  14  18
ATOM      1  O   UNL     1      21.483   5.158  23.217  0.00  0.00    -0.424 OA
ATOM      3  N   UNL     1      21.977   7.294  23.662  0.00  0.00    -0.112 NA
ATOM      4  N   UNL     1      23.096   6.531  23.937  0.00  0.00    -0.112 NA
ATOM     18  C   UNL     1      21.061   6.452  23.245  0.00  0.00    +0.218 A 
ATOM     21  C   UNL     1      22.762   5.291  23.663  0.00  0.00    +0.223 A 
BRANCH  21  20
ATOM     20  C   UNL     1      23.559   4.062  23.766  0.00  0.00    +0.040 C 
ATOM     23  C   UNL     1      24.692   4.183  24.845  0.00  0.00    +0.020 C 
ATOM     24  C   UNL     1      24.262   3.701  22.412  0.00  0.00    +0.020 C 
ATOM     25  C   UNL     1      22.774   2.756  24.164  0.00  0.00    +0.020 C 
ENDBRANCH  21  20
ENDBRANCH  14  18
ENDBRANCH   9  14
TORSDOF 7
ENDMDL
MODEL 2
REMARK VINA RESULT:      -6.4     28.553     30.773
REMARK  Name = 45784118
REMARK  13 active torsions:
REMARK  status: ('A' for Active; 'I' for Inactive)
REMARK    1  A    between atoms: N_2  and  C_13
REMARK    2  A    between atoms: N_2  and  C_19
REMARK    3  A    between atoms: C_6  and  C_10
REMARK    4  A    between atoms: C_7  and  C_13
REMARK    5  A    between atoms: C_9  and  C_14
REMARK    6  A    between atoms: C_10  and  C_15
REMARK    7  A    between atoms: C_10  and  C_16
REMARK    8  A    between atoms: C_11  and  C_17
REMARK    9  A    between atoms: C_14  and  C_18
REMARK   10  A    between atoms: C_20  and  C_21
REMARK   11  A    between atoms: C_20  and  C_23
REMARK   12  A    between atoms: C_20  and  C_24
REMARK   13  A    between atoms: C_20  and  C_25
REMARK                            x       y       z     vdW  Elec       q    Type
REMARK                         _______ _______ _______ _____ _____    ______ ____
ROOT
ATOM      6  C   UNL     1      -6.489 -10.874  16.149  0.00  0.00    +0.000 C 
ATOM      7  C   UNL     1      -6.972 -10.880  17.621  0.00  0.00    +0.032 C 
ATOM      8  C   UNL     1      -5.515 -12.035  15.899  0.00  0.00    +0.012 C 
ATOM      9  C   UNL     1      -4.280 -11.968  16.819  0.00  0.00    +0.024 C 
ATOM     11  C   UNL     1      -4.666 -11.706  18.261  0.00  0.00    -0.073 C 
ATOM     12  C   UNL     1      -5.877 -11.233  18.601  0.00  0.00    -0.022 C 
ATOM     17  C   UNL     1      -3.641 -12.045  19.308  0.00  0.00    +0.039 C 
ENDROOT
BRANCH   6  10
ATOM     10  C   UNL     1      -7.660 -10.958  15.166  0.00  0.00    -0.013 C 
ATOM     15  C   UNL     1      -7.147 -11.169  13.744  0.00  0.00    +0.007 C 
ATOM     16  C   UNL     1      -8.612 -12.079  15.569  0.00  0.00    +0.007 C 
ENDBRANCH   6  10
BRANCH   7  13
ATOM     13  C   UNL     1      -7.587  -9.531  18.008  0.00  0.00    +0.109 C 
BRANCH  13   2
ATOM      2  N   UNL     1      -8.985  -9.703  18.293  0.00  0.00    -0.342 N 
ATOM     29  H   UNL     1      -9.275 -10.384  18.987  0.00  0.00    +0.146 HD
BRANCH   2  19
ATOM      5  N   UNL     1     -10.669  -7.193  16.200  0.00  0.00    -0.261 NA
ATOM     19  C   UNL     1     -10.001  -9.020  17.637  0.00  0.00    +0.045 A 
ATOM     22  C   UNL     1     -11.324  -9.435  17.735  0.00  0.00    +0.026 A 
ATOM     26  C   UNL     1      -9.728  -7.902  16.863  0.00  0.00    +0.133 A 
ATOM     27  C   UNL     1     -12.320  -8.731  17.067  0.00  0.00    +0.021 A 
ATOM     28  C   UNL     1     -11.943  -7.628  16.318  0.00  0.00    +0.111 A 
ENDBRANCH   2  19
ENDBRANCH  13   2
ENDBRANCH   7  13
BRANCH   9  14
ATOM     14  C   UNL     1      -3.276 -10.923  16.321  0.00  0.00    +0.105 C 
BRANCH  14  18
ATOM      1  O   UNL     1      -3.473 -10.517  13.923  0.00  0.00    -0.424 OA
ATOM      3  N   UNL     1      -1.925 -12.036  14.471  0.00  0.00    -0.112 NA
ATOM      4  N   UNL     1      -1.928 -11.906  13.095  0.00  0.00    -0.112 NA
ATOM     18  C   UNL     1      -2.841 -11.207  14.912  0.00  0.00    +0.218 A 
ATOM     21  C   UNL     1      -2.847 -11.009  12.820  0.00  0.00    +0.223 A 
BRANCH  21  20
ATOM     20  C   UNL     1      -3.277 -10.478  11.520  0.00  0.00    +0.040 C 
ATOM     23  C   UNL     1      -3.526 -11.618  10.471  0.00  0.00    +0.020 C 
ATOM     24  C   UNL     1      -2.208  -9.516  10.895  0.00  0.00    +0.020 C 
ATOM     25  C   UNL     1      -4.611  -9.641  11.519  0.00  0.00    +0.020 C 
ENDBRANCH  21  20
ENDBRANCH  14  18
ENDBRANCH   9  14
TORSDOF 7
ENDMDL
MODEL 3
REMARK VINA RESULT:      -6.4     27.882     30.853
REMARK  Name = 45784118
REMARK  13 active torsions:
REMARK  status: ('A' for Active; 'I' for Inactive)
REMARK    1  A    between atoms: N_2  and  C_13
REMARK    2  A    between atoms: N_2  and  C_19
REMARK    3  A    between atoms: C_6  and  C_10
REMARK    4  A    between atoms: C_7  and  C_13
REMARK    5  A    between atoms: C_9  and  C_14
REMARK    6  A    between atoms: C_10  and  C_15
REMARK    7  A    between atoms: C_10  and  C_16
REMARK    8  A    between atoms: C_11  and  C_17
REMARK    9  A    between atoms: C_14  and  C_18
REMARK   10  A    between atoms: C_20  and  C_21
REMARK   11  A    between atoms: C_20  and  C_23
REMARK   12  A    between atoms: C_20  and  C_24
REMARK   13  A    between atoms: C_20  and  C_25
REMARK                            x       y       z     vdW  Elec       q    Type
REMARK                         _______ _______ _______ _____ _____    ______ ____
ROOT
ATOM      6  C   UNL     1      -3.160 -12.227  13.898  0.00  0.00    +0.000 C 
ATOM      7  C   UNL     1      -2.001 -11.370  14.468  0.00  0.00    +0.032 C 
ATOM      8  C   UNL     1      -2.905 -12.559  12.420  0.00  0.00    +0.012 C 
ATOM      9  C   UNL     1      -2.764 -11.291  11.554  0.00  0.00    +0.024 C 
ATOM     11  C   UNL     1      -1.836 -10.277  12.190  0.00  0.00    -0.073 C 
ATOM     12  C   UNL     1      -1.496 -10.335  13.489  0.00  0.00    -0.022 C 
ATOM     17  C   UNL     1      -1.271  -9.217  11.285  0.00  0.00    +0.039 C 
ENDROOT
BRANCH   6  10
ATOM     10  C   UNL     1      -3.354 -13.521  14.694  0.00  0.00    -0.013 C 
ATOM     15  C   UNL     1      -4.825 -13.709  15.053  0.00  0.00    +0.007 C 
ATOM     16  C   UNL     1      -2.834 -14.715  13.902  0.00  0.00    +0.007 C 
ENDBRANCH   6  10
BRANCH   7  13
ATOM     13  C   UNL     1      -2.412 -10.681  15.773  0.00  0.00    +0.109 C 
BRANCH  13   2
ATOM      2  N   UNL     1      -3.729 -10.124  15.629  0.00  0.00    -0.342 N 
ATOM     29  H   UNL     1      -3.959  -9.588  14.799  0.00  0.00    +0.146 HD
BRANCH   2  19
ATOM      5  N   UNL     1      -6.976  -9.700  17.300  0.00  0.00    -0.261 NA
ATOM     19  C   UNL     1      -4.727 -10.231  16.590  0.00  0.00    +0.045 A 
ATOM     22  C   UNL     1      -4.515 -10.940  17.767  0.00  0.00    +0.026 A 
ATOM     26  C   UNL     1      -5.964  -9.634  16.406  0.00  0.00    +0.133 A 
ATOM     27  C   UNL     1      -5.533 -11.031  18.710  0.00  0.00    +0.021 A 
ATOM     28  C   UNL     1      -6.733 -10.399  18.431  0.00  0.00    +0.111 A 
ENDBRANCH   2  19
ENDBRANCH  13   2
ENDBRANCH   7  13
BRANCH   9  14
ATOM     14  C   UNL     1      -4.133 -10.671  11.255  0.00  0.00    +0.105 C 
BRANCH  14  18
ATOM      1  O   UNL     1      -4.427 -11.797   9.110  0.00  0.00    -0.424 OA
ATOM      3  N   UNL     1      -4.612  -9.570   9.009  0.00  0.00    -0.112 NA
ATOM      4  N   UNL     1      -4.800 -10.072   7.735  0.00  0.00    -0.112 NA
ATOM     18  C   UNL     1      -4.398 -10.611   9.778  0.00  0.00    +0.218 A 
ATOM     21  C   UNL     1      -4.683 -11.376   7.842  0.00  0.00    +0.223 A 
BRANCH  21  20
ATOM     20  C   UNL     1      -4.791 -12.413   6.808  0.00  0.00    +0.040 C 
ATOM     23  C   UNL     1      -3.880 -13.652   7.119  0.00  0.00    +0.020 C 
ATOM     24  C   UNL     1      -4.363 -11.883   5.395  0.00  0.00    +0.020 C 
ATOM     25  C   UNL     1      -6.225 -13.023   6.583  0.00  0.00    +0.020 C 
ENDBRANCH  21  20
ENDBRANCH  14  18
ENDBRANCH   9  14
TORSDOF 7
ENDMDL
MODEL 4
REMARK VINA RESULT:      -6.4     27.764     30.977
REMARK  Name = 45784118
REMARK  13 active torsions:
REMARK  status: ('A' for Active; 'I' for Inactive)
REMARK    1  A    between atoms: N_2  and  C_13
REMARK    2  A    between atoms: N_2  and  C_19
REMARK    3  A    between atoms: C_6  and  C_10
REMARK    4  A    between atoms: C_7  and  C_13
REMARK    5  A    between atoms: C_9  and  C_14
REMARK    6  A    between atoms: C_10  and  C_15
REMARK    7  A    between atoms: C_10  and  C_16
REMARK    8  A    between atoms: C_11  and  C_17
REMARK    9  A    between atoms: C_14  and  C_18
REMARK   10  A    between atoms: C_20  and  C_21
REMARK   11  A    between atoms: C_20  and  C_23
REMARK   12  A    between atoms: C_20  and  C_24
REMARK   13  A    between atoms: C_20  and  C_25
REMARK                            x       y       z     vdW  Elec       q    Type
REMARK                         _______ _______ _______ _____ _____    ______ ____
ROOT
ATOM      6  C   UNL     1      -5.596 -10.987  14.543  0.00  0.00    +0.000 C 
ATOM      7  C   UNL     1      -4.384 -10.953  13.577  0.00  0.00    +0.032 C 
ATOM      8  C   UNL     1      -5.357 -10.048  15.736  0.00  0.00    +0.012 C 
ATOM      9  C   UNL     1      -4.090 -10.424  16.528  0.00  0.00    +0.024 C 
ATOM     11  C   UNL     1      -2.908 -10.671  15.614  0.00  0.00    -0.073 C 
ATOM     12  C   UNL     1      -3.057 -10.892  14.297  0.00  0.00    -0.022 C 
ATOM     17  C   UNL     1      -1.543 -10.613  16.243  0.00  0.00    +0.039 C 
ENDROOT
BRANCH   6  10
ATOM     10  C   UNL     1      -6.898 -10.604  13.834  0.00  0.00    -0.013 C 
ATOM     15  C   UNL     1      -7.968 -10.226  14.855  0.00  0.00    +0.007 C 
ATOM     16  C   UNL     1      -6.655  -9.459  12.857  0.00  0.00    +0.007 C 
ENDBRANCH   6  10
BRANCH   7  13
ATOM     13  C   UNL     1      -4.397 -12.158  12.630  0.00  0.00    +0.109 C 
BRANCH  13   2
ATOM      2  N   UNL     1      -3.604 -11.865  11.469  0.00  0.00    -0.342 N 
ATOM     29  H   UNL     1      -2.663 -12.239  11.397  0.00  0.00    +0.146 HD
BRANCH   2  19
ATOM      5  N   UNL     1      -5.355 -10.769   8.428  0.00  0.00    -0.261 NA
ATOM     19  C   UNL     1      -4.024 -11.048  10.428  0.00  0.00    +0.045 A 
ATOM     22  C   UNL     1      -3.572  -9.738  10.317  0.00  0.00    +0.026 A 
ATOM     26  C   UNL     1      -4.907 -11.512   9.465  0.00  0.00    +0.133 A 
ATOM     27  C   UNL     1      -4.010  -8.943   9.264  0.00  0.00    +0.021 A 
ATOM     28  C   UNL     1      -4.894  -9.500   8.355  0.00  0.00    +0.111 A 
ENDBRANCH   2  19
ENDBRANCH  13   2
ENDBRANCH   7  13
BRANCH   9  14
ATOM     14  C   UNL     1      -4.344 -11.632  17.436  0.00  0.00    +0.105 C 
BRANCH  14  18
ATOM      1  O   UNL     1      -6.608 -12.137  18.193  0.00  0.00    -0.424 OA
ATOM      3  N   UNL     1      -5.586 -10.531  19.368  0.00  0.00    -0.112 NA
ATOM      4  N   UNL     1      -6.847 -10.713  19.902  0.00  0.00    -0.112 NA
ATOM     18  C   UNL     1      -5.489 -11.383  18.375  0.00  0.00    +0.218 A 
ATOM     21  C   UNL     1      -7.409 -11.659  19.185  0.00  0.00    +0.223 A 
BRANCH  21  20
ATOM     20  C   UNL     1      -8.744 -12.257  19.306  0.00  0.00    +0.040 C 
ATOM     23  C   UNL     1      -9.307 -12.726  17.918  0.00  0.00    +0.020 C 
ATOM     24  C   UNL     1      -9.789 -11.250  19.899  0.00  0.00    +0.020 C 
ATOM     25  C   UNL     1      -8.854 -13.530  20.227  0.00  0.00    +0.020 C 
ENDBRANCH  21  20
ENDBRANCH  14  18
ENDBRANCH   9  14
TORSDOF 7
ENDMDL
MODEL 5
REMARK VINA RESULT:      -6.2     33.187     35.120
REMARK  Name = 45784118
REMARK  13 active torsions:
REMARK  status: ('A' for Active; 'I' for Inactive)
REMARK    1  A    between atoms: N_2  and  C_13
REMARK    2  A    between atoms: N_2  and  C_19
REMARK    3  A    between atoms: C_6  and  C_10
REMARK    4  A    between atoms: C_7  and  C_13
REMARK    5  A    between atoms: C_9  and  C_14
REMARK    6  A    between atoms: C_10  and  C_15
REMARK    7  A    between atoms: C_10  and  C_16
REMARK    8  A    between atoms: C_11  and  C_17
REMARK    9  A    between atoms: C_14  and  C_18
REMARK   10  A    between atoms: C_20  and  C_21
REMARK   11  A    between atoms: C_20  and  C_23
REMARK   12  A    between atoms: C_20  and  C_24
REMARK   13  A    between atoms: C_20  and  C_25
REMARK                            x       y       z     vdW  Elec       q    Type
REMARK                         _______ _______ _______ _____ _____    ______ ____
ROOT
ATOM      6  C   UNL     1     -15.400   1.157  29.857  0.00  0.00    +0.000 C 
ATOM      7  C   UNL     1     -16.667   1.242  28.969  0.00  0.00    +0.032 C 
ATOM      8  C   UNL     1     -15.677   1.754  31.245  0.00  0.00    +0.012 C 
ATOM      9  C   UNL     1     -16.120   3.229  31.167  0.00  0.00    +0.024 C 
ATOM     11  C   UNL     1     -17.189   3.439  30.113  0.00  0.00    -0.073 C 
ATOM     12  C   UNL     1     -17.428   2.535  29.148  0.00  0.00    -0.022 C 
ATOM     17  C   UNL     1     -18.008   4.695  30.223  0.00  0.00    +0.039 C 
ENDROOT
BRANCH   6  10
ATOM     10  C   UNL     1     -14.904  -0.285  30.003  0.00  0.00    -0.013 C 
ATOM     15  C   UNL     1     -13.390  -0.348  29.820  0.00  0.00    +0.007 C 
ATOM     16  C   UNL     1     -15.308  -0.852  31.360  0.00  0.00    +0.007 C 
ENDBRANCH   6  10
BRANCH   7  13
ATOM     13  C   UNL     1     -16.318   1.055  27.488  0.00  0.00    +0.109 C 
BRANCH  13   2
ATOM      2  N   UNL     1     -17.172   1.885  26.685  0.00  0.00    -0.342 N 
ATOM     29  H   UNL     1     -18.149   1.995  26.938  0.00  0.00    +0.146 HD
BRANCH   2  19
ATOM      5  N   UNL     1     -16.728   2.624  23.111  0.00  0.00    -0.261 NA
ATOM     19  C   UNL     1     -16.759   2.532  25.527  0.00  0.00    +0.045 A 
ATOM     22  C   UNL     1     -15.994   3.691  25.587  0.00  0.00    +0.026 A 
ATOM     26  C   UNL     1     -17.097   2.043  24.275  0.00  0.00    +0.133 A 
ATOM     27  C   UNL     1     -15.596   4.318  24.412  0.00  0.00    +0.021 A 
ATOM     28  C   UNL     1     -15.986   3.749  23.210  0.00  0.00    +0.111 A 
ENDBRANCH   2  19
ENDBRANCH  13   2
ENDBRANCH   7  13
BRANCH   9  14
ATOM     14  C   UNL     1     -14.922   4.154  30.926  0.00  0.00    +0.105 C 
BRANCH  14  18
ATOM      1  O   UNL     1     -14.211   6.172  32.099  0.00  0.00    -0.424 OA
ATOM      3  N   UNL     1     -14.360   4.359  33.402  0.00  0.00    -0.112 NA
ATOM      4  N   UNL     1     -13.952   5.419  34.190  0.00  0.00    -0.112 NA
ATOM     18  C   UNL     1     -14.500   4.844  32.191  0.00  0.00    +0.218 A 
ATOM     21  C   UNL     1     -13.878   6.456  33.388  0.00  0.00    +0.223 A 
BRANCH  21  20
ATOM     20  C   UNL     1     -13.499   7.843  33.685  0.00  0.00    +0.040 C 
ATOM     23  C   UNL     1     -12.912   7.997  35.132  0.00  0.00    +0.020 C 
ATOM     24  C   UNL     1     -14.721   8.821  33.588  0.00  0.00    +0.020 C 
ATOM     25  C   UNL     1     -12.407   8.481  32.746  0.00  0.00    +0.020 C 
ENDBRANCH  21  20
ENDBRANCH  14  18
ENDBRANCH   9  14
TORSDOF 7
ENDMDL
MODEL 6
REMARK VINA RESULT:      -6.2      1.704      2.131
REMARK  Name = 45784118
REMARK  13 active torsions:
REMARK  status: ('A' for Active; 'I' for Inactive)
REMARK    1  A    between atoms: N_2  and  C_13
REMARK    2  A    between atoms: N_2  and  C_19
REMARK    3  A    between atoms: C_6  and  C_10
REMARK    4  A    between atoms: C_7  and  C_13
REMARK    5  A    between atoms: C_9  and  C_14
REMARK    6  A    between atoms: C_10  and  C_15
REMARK    7  A    between atoms: C_10  and  C_16
REMARK    8  A    between atoms: C_11  and  C_17
REMARK    9  A    between atoms: C_14  and  C_18
REMARK   10  A    between atoms: C_20  and  C_21
REMARK   11  A    between atoms: C_20  and  C_23
REMARK   12  A    between atoms: C_20  and  C_24
REMARK   13  A    between atoms: C_20  and  C_25
REMARK                            x       y       z     vdW  Elec       q    Type
REMARK                         _______ _______ _______ _____ _____    ______ ____
ROOT
ATOM      6  C   UNL     1      18.024   8.838  21.784  0.00  0.00    +0.000 C 
ATOM      7  C   UNL     1      16.801   8.346  20.970  0.00  0.00    +0.032 C 
ATOM      8  C   UNL     1      19.328   8.529  21.032  0.00  0.00    +0.012 C 
ATOM      9  C   UNL     1      19.498   7.022  20.756  0.00  0.00    +0.024 C 
ATOM     11  C   UNL     1      18.232   6.406  20.197  0.00  0.00    -0.073 C 
ATOM     12  C   UNL     1      17.038   7.018  20.290  0.00  0.00    -0.022 C 
ATOM     17  C   UNL     1      18.377   5.089  19.487  0.00  0.00    +0.039 C 
ENDROOT
BRANCH   6  10
ATOM     10  C   UNL     1      17.942  10.337  22.085  0.00  0.00    -0.013 C 
ATOM     15  C   UNL     1      19.198  10.803  22.815  0.00  0.00    +0.007 C 
ATOM     16  C   UNL     1      17.740  11.127  20.796  0.00  0.00    +0.007 C 
ENDBRANCH   6  10
BRANCH   7  13
ATOM     13  C   UNL     1      15.551   8.252  21.852  0.00  0.00    +0.109 C 
BRANCH  13   2
ATOM      2  N   UNL     1      14.385   8.555  21.069  0.00  0.00    -0.342 N 
ATOM     29  H   UNL     1      14.472   9.142  20.246  0.00  0.00    +0.146 HD
BRANCH   2  19
ATOM      5  N   UNL     1      10.953   8.613  22.385  0.00  0.00    -0.261 NA
ATOM     19  C   UNL     1      13.102   8.128  21.389  0.00  0.00    +0.045 A 
ATOM     22  C   UNL     1      12.670   6.848  21.062  0.00  0.00    +0.026 A 
ATOM     26  C   UNL     1      12.213   8.966  22.045  0.00  0.00    +0.133 A 
ATOM     27  C   UNL     1      11.380   6.450  21.395  0.00  0.00    +0.021 A 
ATOM     28  C   UNL     1      10.568   7.362  22.049  0.00  0.00    +0.111 A 
ENDBRANCH   2  19
ENDBRANCH  13   2
ENDBRANCH   7  13
BRANCH   9  14
ATOM     14  C   UNL     1      19.962   6.279  22.013  0.00  0.00    +0.105 C 
BRANCH  14  18
ATOM      1  O   UNL     1      21.583   4.608  22.746  0.00  0.00    -0.424 OA
ATOM      3  N   UNL     1      21.823   5.247  20.615  0.00  0.00    -0.112 NA
ATOM      4  N   UNL     1      22.797   4.306  20.891  0.00  0.00    -0.112 NA
ATOM     18  C   UNL     1      21.138   5.392  21.725  0.00  0.00    +0.218 A 
ATOM     21  C   UNL     1      22.620   3.962  22.146  0.00  0.00    +0.223 A 
BRANCH  21  20
ATOM     20  C   UNL     1      23.364   2.998  22.967  0.00  0.00    +0.040 C 
ATOM     23  C   UNL     1      24.562   3.671  23.724  0.00  0.00    +0.020 C 
ATOM     24  C   UNL     1      23.970   1.836  22.106  0.00  0.00    +0.020 C 
ATOM     25  C   UNL     1      22.544   2.268  24.096  0.00  0.00    +0.020 C 
ENDBRANCH  21  20
ENDBRANCH  14  18
ENDBRANCH   9  14
TORSDOF 7
ENDMDL
MODEL 7
REMARK VINA RESULT:      -6.1     27.761     31.137
REMARK  Name = 45784118
REMARK  13 active torsions:
REMARK  status: ('A' for Active; 'I' for Inactive)
REMARK    1  A    between atoms: N_2  and  C_13
REMARK    2  A    between atoms: N_2  and  C_19
REMARK    3  A    between atoms: C_6  and  C_10
REMARK    4  A    between atoms: C_7  and  C_13
REMARK    5  A    between atoms: C_9  and  C_14
REMARK    6  A    between atoms: C_10  and  C_15
REMARK    7  A    between atoms: C_10  and  C_16
REMARK    8  A    between atoms: C_11  and  C_17
REMARK    9  A    between atoms: C_14  and  C_18
REMARK   10  A    between atoms: C_20  and  C_21
REMARK   11  A    between atoms: C_20  and  C_23
REMARK   12  A    between atoms: C_20  and  C_24
REMARK   13  A    between atoms: C_20  and  C_25
REMARK                            x       y       z     vdW  Elec       q    Type
REMARK                         _______ _______ _______ _____ _____    ______ ____
ROOT
ATOM      6  C   UNL     1      -3.739 -11.956  13.044  0.00  0.00    +0.000 C 
ATOM      7  C   UNL     1      -2.357 -11.682  13.690  0.00  0.00    +0.032 C 
ATOM      8  C   UNL     1      -3.628 -11.935  11.512  0.00  0.00    +0.012 C 
ATOM      9  C   UNL     1      -3.101 -10.587  10.984  0.00  0.00    +0.024 C 
ATOM     11  C   UNL     1      -1.886 -10.117  11.757  0.00  0.00    -0.073 C 
ATOM     12  C   UNL     1      -1.561 -10.627  12.957  0.00  0.00    -0.022 C 
ATOM     17  C   UNL     1      -1.024  -9.077  11.095  0.00  0.00    +0.039 C 
ENDROOT
BRANCH   6  10
ATOM     10  C   UNL     1      -4.326 -13.293  13.504  0.00  0.00    -0.013 C 
ATOM     15  C   UNL     1      -5.767 -13.108  13.973  0.00  0.00    +0.007 C 
ATOM     16  C   UNL     1      -4.251 -14.321  12.381  0.00  0.00    +0.007 C 
ENDBRANCH   6  10
BRANCH   7  13
ATOM     13  C   UNL     1      -2.504 -11.281  15.162  0.00  0.00    +0.109 C 
BRANCH  13   2
ATOM      2  N   UNL     1      -3.524 -10.277  15.287  0.00  0.00    -0.342 N 
ATOM     29  H   UNL     1      -3.511  -9.468  14.675  0.00  0.00    +0.146 HD
BRANCH   2  19
ATOM      5  N   UNL     1      -6.785  -9.713  16.890  0.00  0.00    -0.261 NA
ATOM     19  C   UNL     1      -4.533 -10.311  16.242  0.00  0.00    +0.045 A 
ATOM     22  C   UNL     1      -4.342 -10.943  17.465  0.00  0.00    +0.026 A 
ATOM     26  C   UNL     1      -5.763  -9.716  16.005  0.00  0.00    +0.133 A 
ATOM     27  C   UNL     1      -5.370 -10.961  18.401  0.00  0.00    +0.021 A 
ATOM     28  C   UNL     1      -6.561 -10.338  18.067  0.00  0.00    +0.111 A 
ENDBRANCH   2  19
ENDBRANCH  13   2
ENDBRANCH   7  13
BRANCH   9  14
ATOM     14  C   UNL     1      -4.202  -9.521  10.991  0.00  0.00    +0.105 C 
BRANCH  14  18
ATOM      1  O   UNL     1      -6.244  -9.090   9.727  0.00  0.00    -0.424 OA
ATOM      3  N   UNL     1      -4.524  -9.788   8.479  0.00  0.00    -0.112 NA
ATOM      4  N   UNL     1      -5.604  -9.584   7.641  0.00  0.00    -0.112 NA
ATOM     18  C   UNL     1      -4.943  -9.488   9.686  0.00  0.00    +0.218 A 
ATOM     21  C   UNL     1      -6.585  -9.177   8.412  0.00  0.00    +0.223 A 
BRANCH  21  20
ATOM     20  C   UNL     1      -7.963  -8.810   8.059  0.00  0.00    +0.040 C 
ATOM     23  C   UNL     1      -8.016  -7.843   6.824  0.00  0.00    +0.020 C 
ATOM     24  C   UNL     1      -8.697  -8.078   9.236  0.00  0.00    +0.020 C 
ATOM     25  C   UNL     1      -8.921  -9.998   7.672  0.00  0.00    +0.020 C 
ENDBRANCH  21  20
ENDBRANCH  14  18
ENDBRANCH   9  14
TORSDOF 7
ENDMDL
MODEL 8
REMARK VINA RESULT:      -6.1     27.805     30.694
REMARK  Name = 45784118
REMARK  13 active torsions:
REMARK  status: ('A' for Active; 'I' for Inactive)
REMARK    1  A    between atoms: N_2  and  C_13
REMARK    2  A    between atoms: N_2  and  C_19
REMARK    3  A    between atoms: C_6  and  C_10
REMARK    4  A    between atoms: C_7  and  C_13
REMARK    5  A    between atoms: C_9  and  C_14
REMARK    6  A    between atoms: C_10  and  C_15
REMARK    7  A    between atoms: C_10  and  C_16
REMARK    8  A    between atoms: C_11  and  C_17
REMARK    9  A    between atoms: C_14  and  C_18
REMARK   10  A    between atoms: C_20  and  C_21
REMARK   11  A    between atoms: C_20  and  C_23
REMARK   12  A    between atoms: C_20  and  C_24
REMARK   13  A    between atoms: C_20  and  C_25
REMARK                            x       y       z     vdW  Elec       q    Type
REMARK                         _______ _______ _______ _____ _____    ______ ____
ROOT
ATOM      6  C   UNL     1     -12.578  11.376  20.772  0.00  0.00    +0.000 C 
ATOM      7  C   UNL     1     -13.074  10.582  22.007  0.00  0.00    +0.032 C 
ATOM      8  C   UNL     1     -12.765  10.548  19.491  0.00  0.00    +0.012 C 
ATOM      9  C   UNL     1     -12.005   9.208  19.548  0.00  0.00    +0.024 C 
ATOM     11  C   UNL     1     -12.234   8.487  20.860  0.00  0.00    -0.073 C 
ATOM     12  C   UNL     1     -12.725   9.113  21.944  0.00  0.00    -0.022 C 
ATOM     17  C   UNL     1     -11.929   7.015  20.886  0.00  0.00    +0.039 C 
ENDROOT
BRANCH   6  10
ATOM     10  C   UNL     1     -13.301  12.718  20.631  0.00  0.00    -0.013 C 
ATOM     15  C   UNL     1     -12.848  13.437  19.363  0.00  0.00    +0.007 C 
ATOM     16  C   UNL     1     -14.812  12.510  20.624  0.00  0.00    +0.007 C 
ENDBRANCH   6  10
BRANCH   7  13
ATOM     13  C   UNL     1     -12.526  11.182  23.306  0.00  0.00    +0.109 C 
BRANCH  13   2
ATOM      2  N   UNL     1     -13.111  10.507  24.432  0.00  0.00    -0.342 N 
ATOM     29  H   UNL     1     -13.991  10.013  24.319  0.00  0.00    +0.146 HD
BRANCH   2  19
ATOM      5  N   UNL     1     -12.921  10.460  28.103  0.00  0.00    -0.261 NA
ATOM     19  C   UNL     1     -12.570  10.518  25.711  0.00  0.00    +0.045 A 
ATOM     22  C   UNL     1     -11.196  10.595  25.908  0.00  0.00    +0.026 A 
ATOM     26  C   UNL     1     -13.383  10.453  26.832  0.00  0.00    +0.133 A 
ATOM     27  C   UNL     1     -10.684  10.604  27.201  0.00  0.00    +0.021 A 
ATOM     28  C   UNL     1     -11.580  10.534  28.254  0.00  0.00    +0.111 A 
ENDBRANCH   2  19
ENDBRANCH  13   2
ENDBRANCH   7  13
BRANCH   9  14
ATOM     14  C   UNL     1     -10.509   9.410  19.286  0.00  0.00    +0.105 C 
BRANCH  14  18
ATOM      1  O   UNL     1      -9.803  11.402  18.066  0.00  0.00    -0.424 OA
ATOM      3  N   UNL     1     -10.445   9.704  16.757  0.00  0.00    -0.112 NA
ATOM      4  N   UNL     1     -10.074  10.756  15.941  0.00  0.00    -0.112 NA
ATOM     18  C   UNL     1     -10.270  10.125  17.988  0.00  0.00    +0.218 A 
ATOM     21  C   UNL     1      -9.707  11.725  16.747  0.00  0.00    +0.223 A 
BRANCH  21  20
ATOM     20  C   UNL     1      -9.217  13.072  16.429  0.00  0.00    +0.040 C 
ATOM     23  C   UNL     1      -9.719  14.141  17.463  0.00  0.00    +0.020 C 
ATOM     24  C   UNL     1      -9.695  13.554  15.015  0.00  0.00    +0.020 C 
ATOM     25  C   UNL     1      -7.653  13.255  16.402  0.00  0.00    +0.020 C 
ENDBRANCH  21  20
ENDBRANCH  14  18
ENDBRANCH   9  14
TORSDOF 7
ENDMDL
MODEL 9
REMARK VINA RESULT:      -6.0     16.491     19.866
REMARK  Name = 45784118
REMARK  13 active torsions:
REMARK  status: ('A' for Active; 'I' for Inactive)
REMARK    1  A    between atoms: N_2  and  C_13
REMARK    2  A    between atoms: N_2  and  C_19
REMARK    3  A    between atoms: C_6  and  C_10
REMARK    4  A    between atoms: C_7  and  C_13
REMARK    5  A    between atoms: C_9  and  C_14
REMARK    6  A    between atoms: C_10  and  C_15
REMARK    7  A    between atoms: C_10  and  C_16
REMARK    8  A    between atoms: C_11  and  C_17
REMARK    9  A    between atoms: C_14  and  C_18
REMARK   10  A    between atoms: C_20  and  C_21
REMARK   11  A    between atoms: C_20  and  C_23
REMARK   12  A    between atoms: C_20  and  C_24
REMARK   13  A    between atoms: C_20  and  C_25
REMARK                            x       y       z     vdW  Elec       q    Type
REMARK                         _______ _______ _______ _____ _____    ______ ____
ROOT
ATOM      6  C   UNL     1       8.662   8.345   4.870  0.00  0.00    +0.000 C 
ATOM      7  C   UNL     1       8.301   7.274   5.931  0.00  0.00    +0.032 C 
ATOM      8  C   UNL     1       8.707   7.718   3.468  0.00  0.00    +0.012 C 
ATOM      9  C   UNL     1       9.735   6.573   3.375  0.00  0.00    +0.024 C 
ATOM     11  C   UNL     1       9.616   5.615   4.542  0.00  0.00    -0.073 C 
ATOM     12  C   UNL     1       8.961   5.939   5.670  0.00  0.00    -0.022 C 
ATOM     17  C   UNL     1      10.231   4.254   4.364  0.00  0.00    +0.039 C 
ENDROOT
BRANCH   6  10
ATOM     10  C   UNL     1       7.672   9.513   4.884  0.00  0.00    -0.013 C 
ATOM     15  C   UNL     1       8.403  10.827   5.147  0.00  0.00    +0.007 C 
ATOM     16  C   UNL     1       6.904   9.576   3.568  0.00  0.00    +0.007 C 
ENDBRANCH   6  10
BRANCH   7  13
ATOM     13  C   UNL     1       8.656   7.751   7.343  0.00  0.00    +0.109 C 
BRANCH  13   2
ATOM      2  N   UNL     1       9.934   7.215   7.725  0.00  0.00    -0.342 N 
ATOM     29  H   UNL     1       9.976   6.410   8.341  0.00  0.00    +0.146 HD
BRANCH   2  19
ATOM      5  N   UNL     1      12.508   9.727   6.964  0.00  0.00    -0.261 NA
ATOM     19  C   UNL     1      11.151   7.761   7.338  0.00  0.00    +0.045 A 
ATOM     22  C   UNL     1      12.210   6.948   6.949  0.00  0.00    +0.026 A 
ATOM     26  C   UNL     1      11.350   9.133   7.328  0.00  0.00    +0.133 A 
ATOM     27  C   UNL     1      13.417   7.523   6.568  0.00  0.00    +0.021 A 
ATOM     28  C   UNL     1      13.514   8.904   6.593  0.00  0.00    +0.111 A 
ENDBRANCH   2  19
ENDBRANCH  13   2
ENDBRANCH   7  13
BRANCH   9  14
ATOM     14  C   UNL     1      11.161   7.120   3.256  0.00  0.00    +0.105 C 
BRANCH  14  18
ATOM      1  O   UNL     1      12.421   5.436   2.018  0.00  0.00    -0.424 OA
ATOM      3  N   UNL     1      11.918   7.263   0.829  0.00  0.00    -0.112 NA
ATOM      4  N   UNL     1      12.624   6.402   0.010  0.00  0.00    -0.112 NA
ATOM     18  C   UNL     1      11.823   6.659   1.990  0.00  0.00    +0.218 A 
ATOM     21  C   UNL     1      12.898   5.349   0.746  0.00  0.00    +0.223 A 
BRANCH  21  20
ATOM     20  C   UNL     1      13.624   4.123   0.393  0.00  0.00    +0.040 C 
ATOM     23  C   UNL     1      12.794   3.204  -0.570  0.00  0.00    +0.020 C 
ATOM     24  C   UNL     1      13.969   3.259   1.655  0.00  0.00    +0.020 C 
ATOM     25  C   UNL     1      15.004   4.320  -0.341  0.00  0.00    +0.020 C 
ENDBRANCH  21  20
ENDBRANCH  14  18
ENDBRANCH   9  14
TORSDOF 7
ENDMDL
MODEL 10
REMARK VINA RESULT:      -6.0     28.083     31.379
REMARK  Name = 45784118
REMARK  13 active torsions:
REMARK  status: ('A' for Active; 'I' for Inactive)
REMARK    1  A    between atoms: N_2  and  C_13
REMARK    2  A    between atoms: N_2  and  C_19
REMARK    3  A    between atoms: C_6  and  C_10
REMARK    4  A    between atoms: C_7  and  C_13
REMARK    5  A    between atoms: C_9  and  C_14
REMARK    6  A    between atoms: C_10  and  C_15
REMARK    7  A    between atoms: C_10  and  C_16
REMARK    8  A    between atoms: C_11  and  C_17
REMARK    9  A    between atoms: C_14  and  C_18
REMARK   10  A    between atoms: C_20  and  C_21
REMARK   11  A    between atoms: C_20  and  C_23
REMARK   12  A    between atoms: C_20  and  C_24
REMARK   13  A    between atoms: C_20  and  C_25
REMARK                            x       y       z     vdW  Elec       q    Type
REMARK                         _______ _______ _______ _____ _____    ______ ____
ROOT
ATOM      6  C   UNL     1      -7.443 -11.519  17.233  0.00  0.00    +0.000 C 
ATOM      7  C   UNL     1      -7.530 -11.943  18.721  0.00  0.00    +0.032 C 
ATOM      8  C   UNL     1      -6.257 -12.213  16.546  0.00  0.00    +0.012 C 
ATOM      9  C   UNL     1      -4.914 -11.882  17.227  0.00  0.00    +0.024 C 
ATOM     11  C   UNL     1      -4.999 -12.020  18.734  0.00  0.00    -0.073 C 
ATOM     12  C   UNL     1      -6.176 -12.059  19.383  0.00  0.00    -0.022 C 
ATOM     17  C   UNL     1      -3.698 -12.158  19.475  0.00  0.00    +0.039 C 
ENDROOT
BRANCH   6  10
ATOM     10  C   UNL     1      -8.737 -11.833  16.477  0.00  0.00    -0.013 C 
ATOM     15  C   UNL     1      -8.588 -11.479  14.999  0.00  0.00    +0.007 C 
ATOM     16  C   UNL     1      -9.108 -13.302  16.646  0.00  0.00    +0.007 C 
ENDBRANCH   6  10
BRANCH   7  13
ATOM     13  C   UNL     1      -8.408 -10.976  19.522  0.00  0.00    +0.109 C 
BRANCH  13   2
ATOM      2  N   UNL     1      -9.631 -11.632  19.893  0.00  0.00    -0.342 N 
ATOM     29  H   UNL     1      -9.599 -12.561  20.300  0.00  0.00    +0.146 HD
BRANCH   2  19
ATOM      5  N   UNL     1     -13.246 -11.068  20.250  0.00  0.00    -0.261 NA
ATOM     19  C   UNL     1     -10.895 -11.091  19.689  0.00  0.00    +0.045 A 
ATOM     22  C   UNL     1     -11.098 -10.074  18.764  0.00  0.00    +0.026 A 
ATOM     26  C   UNL     1     -11.992 -11.550  20.401  0.00  0.00    +0.133 A 
ATOM     27  C   UNL     1     -12.374  -9.552  18.581  0.00  0.00    +0.021 A 
ATOM     28  C   UNL     1     -13.405 -10.078  19.343  0.00  0.00    +0.111 A 
ENDBRANCH   2  19
ENDBRANCH  13   2
ENDBRANCH   7  13
BRANCH   9  14
ATOM     14  C   UNL     1      -4.422 -10.486  16.830  0.00  0.00    +0.105 C 
BRANCH  14  18
ATOM      1  O   UNL     1      -3.871 -10.546  14.454  0.00  0.00    -0.424 OA
ATOM      3  N   UNL     1      -2.093 -10.626  15.809  0.00  0.00    -0.112 NA
ATOM      4  N   UNL     1      -1.638 -10.666  14.505  0.00  0.00    -0.112 NA
ATOM     18  C   UNL     1      -3.401 -10.555  15.732  0.00  0.00    +0.218 A 
ATOM     21  C   UNL     1      -2.709 -10.617  13.748  0.00  0.00    +0.223 A 
BRANCH  21  20
ATOM     20  C   UNL     1      -2.823 -10.626  12.284  0.00  0.00    +0.040 C 
ATOM     23  C   UNL     1      -2.842 -12.084  11.704  0.00  0.00    +0.020 C 
ATOM     24  C   UNL     1      -1.625  -9.883  11.596  0.00  0.00    +0.020 C 
ATOM     25  C   UNL     1      -4.109  -9.945  11.682  0.00  0.00    +0.020 C 
ENDBRANCH  21  20
ENDBRANCH  14  18
ENDBRANCH   9  14
TORSDOF 7
ENDMDL
