MODEL 1
REMARK VINA RESULT:      -7.4      0.000      0.000
REMARK  Name = 45361621
REMARK  14 active torsions:
REMARK  status: ('A' for Active; 'I' for Inactive)
REMARK    1  A    between atoms: O_1  and  C_12
REMARK    2  A    between atoms: O_4  and  C_34
REMARK    3  A    between atoms: O_4  and  C_37
REMARK    4  A    between atoms: O_5  and  C_36
REMARK    5  A    between atoms: O_5  and  C_38
REMARK    6  A    between atoms: N_6  and  C_16
REMARK    7  A    between atoms: N_7  and  C_26
REMARK    8  A    between atoms: C_9  and  C_19
REMARK    9  A    between atoms: C_11  and  C_21
REMARK   10  A    between atoms: C_15  and  C_20
REMARK   11  A    between atoms: C_20  and  C_22
REMARK   12  A    between atoms: C_20  and  C_23
REMARK   13  A    between atoms: C_24  and  C_25
REMARK   14  A    between atoms: C_26  and  C_28
REMARK                            x       y       z     vdW  Elec       q    Type
REMARK                         _______ _______ _______ _____ _____    ______ ____
ROOT
ATOM      9  C   UNL     1      -4.677 -11.112  16.910  0.00  0.00    -0.027 C 
ATOM     10  C   UNL     1      -5.470 -10.443  15.738  0.00  0.00    +0.028 C 
ATOM     11  C   UNL     1      -7.018 -10.525  15.993  0.00  0.00    +0.012 C 
ATOM     12  C   UNL     1      -4.991 -10.975  14.357  0.00  0.00    +0.122 C 
ATOM     13  C   UNL     1      -3.159 -10.914  16.684  0.00  0.00    +0.007 C 
ATOM     14  C   UNL     1      -5.050 -10.411  18.236  0.00  0.00    +0.009 C 
ATOM     15  C   UNL     1      -3.458 -10.870  14.178  0.00  0.00    +0.029 C 
ATOM     16  C   UNL     1      -7.373  -9.884  17.364  0.00  0.00    +0.076 C 
ATOM     17  C   UNL     1      -2.679 -11.469  15.349  0.00  0.00    +0.007 C 
ATOM     18  C   UNL     1      -6.544 -10.435  18.525  0.00  0.00    +0.023 C 
ATOM     19  C   UNL     1      -4.969 -12.629  17.034  0.00  0.00    +0.011 C 
ATOM     21  C   UNL     1      -7.860  -9.859  14.892  0.00  0.00    +0.010 C 
ENDROOT
BRANCH  16   6
ATOM      3  O   UNL     1      -9.376  -7.827  17.374  0.00  0.00    -0.269 OA
ATOM      6  N   UNL     1      -8.775 -10.045  17.685  0.00  0.00    -0.307 N 
ATOM     24  C   UNL     1      -9.666  -8.986  17.661  0.00  0.00    +0.263 C 
ATOM     39  H   UNL     1      -9.098 -10.958  17.993  0.00  0.00    +0.149 HD
BRANCH  24  25
ATOM      8  N   UNL     1     -11.220  -9.930  19.233  0.00  0.00    -0.250 NA
ATOM     25  C   UNL     1     -11.065  -9.310  18.041  0.00  0.00    +0.125 A 
ATOM     27  C   UNL     1     -12.113  -8.979  17.198  0.00  0.00    +0.033 A 
ATOM     29  C   UNL     1     -13.403  -9.304  17.603  0.00  0.00    +0.004 A 
ATOM     30  C   UNL     1     -12.488 -10.230  19.593  0.00  0.00    +0.111 A 
ATOM     33  C   UNL     1     -13.602  -9.942  18.822  0.00  0.00    +0.020 A 
ENDBRANCH  24  25
ENDBRANCH  16   6
BRANCH  12   1
ATOM      1  O   UNL     1      -5.578 -10.193  13.316  0.00  0.00    -0.391 OA
ATOM     40  H   UNL     1      -4.876  -9.661  12.905  0.00  0.00    +0.210 HD
ENDBRANCH  12   1
BRANCH  15  20
ATOM     20  C   UNL     1      -2.993 -11.518  12.868  0.00  0.00    +0.077 C 
ATOM     22  C   UNL     1      -1.817 -12.452  13.134  0.00  0.00    +0.017 C 
BRANCH  20  23
ATOM      2  O   UNL     1      -1.505  -9.941  11.789  0.00  0.00    -0.276 OA
ATOM      7  N   UNL     1      -3.694 -10.094  11.037  0.00  0.00    -0.311 N 
ATOM     23  C   UNL     1      -2.628 -10.438  11.855  0.00  0.00    +0.216 C 
ATOM     41  H   UNL     1      -4.580 -10.579  11.135  0.00  0.00    +0.149 HD
BRANCH   7  26
ATOM     26  C   UNL     1      -3.593  -9.093  10.002  0.00  0.00    +0.139 C 
BRANCH  26  28
ATOM     28  C   UNL     1      -4.779  -9.114   9.081  0.00  0.00    -0.027 A 
ATOM     31  C   UNL     1      -5.901  -8.338   9.372  0.00  0.00    +0.054 A 
ATOM     32  C   UNL     1      -4.757  -9.908   7.934  0.00  0.00    +0.009 A 
ATOM     34  C   UNL     1      -7.003  -8.358   8.515  0.00  0.00    +0.162 A 
ATOM     35  C   UNL     1      -5.858  -9.927   7.079  0.00  0.00    +0.050 A 
ATOM     36  C   UNL     1      -6.982  -9.152   7.369  0.00  0.00    +0.162 A 
BRANCH  34   4
ATOM      4  O   UNL     1      -8.093  -7.595   8.809  0.00  0.00    -0.491 OA
ATOM     37  C   UNL     1      -8.179  -6.319   8.178  0.00  0.00    +0.277 C 
ENDBRANCH  34   4
BRANCH  36   5
ATOM      5  O   UNL     1      -8.051  -9.178   6.526  0.00  0.00    -0.491 OA
ATOM     38  C   UNL     1      -7.814  -8.812   5.167  0.00  0.00    +0.277 C 
ENDBRANCH  36   5
ENDBRANCH  26  28
ENDBRANCH   7  26
ENDBRANCH  20  23
ENDBRANCH  15  20
TORSDOF 9
ENDMDL
MODEL 2
REMARK VINA RESULT:      -7.3      2.954      9.452
REMARK  Name = 45361621
REMARK  14 active torsions:
REMARK  status: ('A' for Active; 'I' for Inactive)
REMARK    1  A    between atoms: O_1  and  C_12
REMARK    2  A    between atoms: O_4  and  C_34
REMARK    3  A    between atoms: O_4  and  C_37
REMARK    4  A    between atoms: O_5  and  C_36
REMARK    5  A    between atoms: O_5  and  C_38
REMARK    6  A    between atoms: N_6  and  C_16
REMARK    7  A    between atoms: N_7  and  C_26
REMARK    8  A    between atoms: C_9  and  C_19
REMARK    9  A    between atoms: C_11  and  C_21
REMARK   10  A    between atoms: C_15  and  C_20
REMARK   11  A    between atoms: C_20  and  C_22
REMARK   12  A    between atoms: C_20  and  C_23
REMARK   13  A    between atoms: C_24  and  C_25
REMARK   14  A    between atoms: C_26  and  C_28
REMARK                            x       y       z     vdW  Elec       q    Type
REMARK                         _______ _______ _______ _____ _____    ______ ____
ROOT
ATOM      9  C   UNL     1      -6.462 -10.111  11.841  0.00  0.00    -0.027 C 
ATOM     10  C   UNL     1      -5.222  -9.512  11.097  0.00  0.00    +0.028 C 
ATOM     11  C   UNL     1      -5.489  -9.418   9.552  0.00  0.00    +0.012 C 
ATOM     12  C   UNL     1      -3.911 -10.245  11.505  0.00  0.00    +0.122 C 
ATOM     13  C   UNL     1      -6.210 -10.085  13.367  0.00  0.00    +0.007 C 
ATOM     14  C   UNL     1      -7.698  -9.227  11.553  0.00  0.00    +0.009 C 
ATOM     15  C   UNL     1      -3.717 -10.307  13.038  0.00  0.00    +0.029 C 
ATOM     16  C   UNL     1      -6.777  -8.591   9.278  0.00  0.00    +0.076 C 
ATOM     17  C   UNL     1      -4.948 -10.835  13.775  0.00  0.00    +0.007 C 
ATOM     18  C   UNL     1      -7.992  -9.077  10.067  0.00  0.00    +0.023 C 
ATOM     19  C   UNL     1      -6.765 -11.569  11.411  0.00  0.00    +0.011 C 
ATOM     21  C   UNL     1      -4.320  -8.809   8.761  0.00  0.00    +0.010 C 
ENDROOT
BRANCH  16   6
ATOM      3  O   UNL     1      -8.221  -6.540   7.878  0.00  0.00    -0.269 OA
ATOM      6  N   UNL     1      -7.118  -8.580   7.871  0.00  0.00    -0.307 N 
ATOM     24  C   UNL     1      -7.821  -7.540   7.287  0.00  0.00    +0.263 C 
ATOM     39  H   UNL     1      -6.881  -9.394   7.311  0.00  0.00    +0.149 HD
BRANCH  24  25
ATOM      8  N   UNL     1      -9.270  -7.131   5.413  0.00  0.00    -0.250 NA
ATOM     25  C   UNL     1      -8.115  -7.692   5.839  0.00  0.00    +0.125 A 
ATOM     27  C   UNL     1      -7.234  -8.373   5.014  0.00  0.00    +0.033 A 
ATOM     29  C   UNL     1      -7.558  -8.485   3.667  0.00  0.00    +0.004 A 
ATOM     30  C   UNL     1      -9.550  -7.260   4.098  0.00  0.00    +0.111 A 
ATOM     33  C   UNL     1      -8.736  -7.922   3.192  0.00  0.00    +0.020 A 
ENDBRANCH  24  25
ENDBRANCH  16   6
BRANCH  12   1
ATOM      1  O   UNL     1      -2.787  -9.538  10.979  0.00  0.00    -0.391 OA
ATOM     40  H   UNL     1      -2.343 -10.114  10.335  0.00  0.00    +0.210 HD
ENDBRANCH  12   1
BRANCH  15  20
ATOM     20  C   UNL     1      -2.492 -11.144  13.423  0.00  0.00    +0.077 C 
ATOM     22  C   UNL     1      -2.779 -12.625  13.203  0.00  0.00    +0.017 C 
BRANCH  20  23
ATOM      2  O   UNL     1      -1.141 -10.159  15.175  0.00  0.00    -0.276 OA
ATOM      7  N   UNL     1      -2.946 -11.484  15.779  0.00  0.00    -0.311 N 
ATOM     23  C   UNL     1      -2.103 -10.862  14.870  0.00  0.00    +0.216 C 
ATOM     41  H   UNL     1      -3.740 -12.020  15.443  0.00  0.00    +0.149 HD
BRANCH   7  26
ATOM     26  C   UNL     1      -2.778 -11.368  17.208  0.00  0.00    +0.139 C 
BRANCH  26  28
ATOM     28  C   UNL     1      -4.092 -11.231  17.920  0.00  0.00    -0.027 A 
ATOM     31  C   UNL     1      -5.094 -10.421  17.386  0.00  0.00    +0.054 A 
ATOM     32  C   UNL     1      -4.311 -11.915  19.117  0.00  0.00    +0.009 A 
ATOM     34  C   UNL     1      -6.315 -10.294  18.049  0.00  0.00    +0.162 A 
ATOM     35  C   UNL     1      -5.532 -11.788  19.779  0.00  0.00    +0.050 A 
ATOM     36  C   UNL     1      -6.535 -10.977  19.245  0.00  0.00    +0.162 A 
BRANCH  34   4
ATOM      4  O   UNL     1      -7.287  -9.502  17.516  0.00  0.00    -0.491 OA
ATOM     37  C   UNL     1      -8.095 -10.069  16.487  0.00  0.00    +0.277 C 
ENDBRANCH  34   4
BRANCH  36   5
ATOM      5  O   UNL     1      -7.723 -10.862  19.900  0.00  0.00    -0.491 OA
ATOM     38  C   UNL     1      -8.670 -11.913  19.716  0.00  0.00    +0.277 C 
ENDBRANCH  36   5
ENDBRANCH  26  28
ENDBRANCH   7  26
ENDBRANCH  20  23
ENDBRANCH  15  20
TORSDOF 9
ENDMDL
MODEL 3
REMARK VINA RESULT:      -7.2     28.707     31.403
REMARK  Name = 45361621
REMARK  14 active torsions:
REMARK  status: ('A' for Active; 'I' for Inactive)
REMARK    1  A    between atoms: O_1  and  C_12
REMARK    2  A    between atoms: O_4  and  C_34
REMARK    3  A    between atoms: O_4  and  C_37
REMARK    4  A    between atoms: O_5  and  C_36
REMARK    5  A    between atoms: O_5  and  C_38
REMARK    6  A    between atoms: N_6  and  C_16
REMARK    7  A    between atoms: N_7  and  C_26
REMARK    8  A    between atoms: C_9  and  C_19
REMARK    9  A    between atoms: C_11  and  C_21
REMARK   10  A    between atoms: C_15  and  C_20
REMARK   11  A    between atoms: C_20  and  C_22
REMARK   12  A    between atoms: C_20  and  C_23
REMARK   13  A    between atoms: C_24  and  C_25
REMARK   14  A    between atoms: C_26  and  C_28
REMARK                            x       y       z     vdW  Elec       q    Type
REMARK                         _______ _______ _______ _____ _____    ______ ____
ROOT
ATOM      9  C   UNL     1      13.717   7.755  20.902  0.00  0.00    -0.027 C 
ATOM     10  C   UNL     1      14.718   8.582  21.775  0.00  0.00    +0.028 C 
ATOM     11  C   UNL     1      14.180  10.038  22.016  0.00  0.00    +0.012 C 
ATOM     12  C   UNL     1      16.167   8.490  21.213  0.00  0.00    +0.122 C 
ATOM     13  C   UNL     1      14.222   6.298  20.779  0.00  0.00    +0.007 C 
ATOM     14  C   UNL     1      12.343   7.719  21.608  0.00  0.00    +0.009 C 
ATOM     15  C   UNL     1      16.628   7.029  20.996  0.00  0.00    +0.029 C 
ATOM     16  C   UNL     1      12.764   9.989  22.657  0.00  0.00    +0.076 C 
ATOM     17  C   UNL     1      15.624   6.201  20.193  0.00  0.00    +0.007 C 
ATOM     18  C   UNL     1      11.780   9.105  21.892  0.00  0.00    +0.023 C 
ATOM     19  C   UNL     1      13.545   8.344  19.478  0.00  0.00    +0.011 C 
ATOM     21  C   UNL     1      15.103  10.899  22.894  0.00  0.00    +0.010 C 
ENDROOT
BRANCH  16   6
ATOM      3  O   UNL     1      10.976  10.887  24.717  0.00  0.00    -0.269 OA
ATOM      6  N   UNL     1      12.188  11.311  22.787  0.00  0.00    -0.307 N 
ATOM     24  C   UNL     1      11.332  11.647  23.821  0.00  0.00    +0.263 C 
ATOM     39  H   UNL     1      12.378  11.993  22.057  0.00  0.00    +0.149 HD
BRANCH  24  25
ATOM      8  N   UNL     1      10.410  13.493  22.587  0.00  0.00    -0.250 NA
ATOM     25  C   UNL     1      10.805  13.037  23.797  0.00  0.00    +0.125 A 
ATOM     27  C   UNL     1      10.741  13.779  24.965  0.00  0.00    +0.033 A 
ATOM     29  C   UNL     1      10.238  15.073  24.887  0.00  0.00    +0.004 A 
ATOM     30  C   UNL     1       9.927  14.754  22.551  0.00  0.00    +0.111 A 
ATOM     33  C   UNL     1       9.821  15.578  23.660  0.00  0.00    +0.020 A 
ENDBRANCH  24  25
ENDBRANCH  16   6
BRANCH  12   1
ATOM      1  O   UNL     1      17.078   9.070  22.148  0.00  0.00    -0.391 OA
ATOM     40  H   UNL     1      17.286   9.970  21.848  0.00  0.00    +0.210 HD
ENDBRANCH  12   1
BRANCH  15  20
ATOM     20  C   UNL     1      18.003   6.962  20.321  0.00  0.00    +0.077 C 
ATOM     22  C   UNL     1      18.021   5.852  19.275  0.00  0.00    +0.017 C 
BRANCH  20  23
ATOM      2  O   UNL     1      18.835   6.539  22.555  0.00  0.00    -0.276 OA
ATOM      7  N   UNL     1      20.367   6.835  20.839  0.00  0.00    -0.311 N 
ATOM     23  C   UNL     1      19.088   6.753  21.372  0.00  0.00    +0.216 C 
ATOM     41  H   UNL     1      20.488   6.981  19.842  0.00  0.00    +0.149 HD
BRANCH   7  26
ATOM     26  C   UNL     1      21.558   6.674  21.639  0.00  0.00    +0.139 C 
BRANCH  26  28
ATOM     28  C   UNL     1      22.205   5.337  21.422  0.00  0.00    -0.027 A 
ATOM     31  C   UNL     1      23.199   5.191  20.455  0.00  0.00    +0.054 A 
ATOM     32  C   UNL     1      21.811   4.240  22.190  0.00  0.00    +0.009 A 
ATOM     34  C   UNL     1      23.800   3.948  20.255  0.00  0.00    +0.162 A 
ATOM     35  C   UNL     1      22.412   2.997  21.989  0.00  0.00    +0.050 A 
ATOM     36  C   UNL     1      23.407   2.851  21.021  0.00  0.00    +0.162 A 
BRANCH  34   4
ATOM      4  O   UNL     1      24.772   3.819  19.308  0.00  0.00    -0.491 OA
ATOM     37  C   UNL     1      26.124   3.929  19.748  0.00  0.00    +0.277 C 
ENDBRANCH  34   4
BRANCH  36   5
ATOM      5  O   UNL     1      23.987   1.633  20.835  0.00  0.00    -0.491 OA
ATOM     38  C   UNL     1      24.764   1.113  21.913  0.00  0.00    +0.277 C 
ENDBRANCH  36   5
ENDBRANCH  26  28
ENDBRANCH   7  26
ENDBRANCH  20  23
ENDBRANCH  15  20
TORSDOF 9
ENDMDL
MODEL 4
REMARK VINA RESULT:      -7.0      2.316      9.055
REMARK  Name = 45361621
REMARK  14 active torsions:
REMARK  status: ('A' for Active; 'I' for Inactive)
REMARK    1  A    between atoms: O_1  and  C_12
REMARK    2  A    between atoms: O_4  and  C_34
REMARK    3  A    between atoms: O_4  and  C_37
REMARK    4  A    between atoms: O_5  and  C_36
REMARK    5  A    between atoms: O_5  and  C_38
REMARK    6  A    between atoms: N_6  and  C_16
REMARK    7  A    between atoms: N_7  and  C_26
REMARK    8  A    between atoms: C_9  and  C_19
REMARK    9  A    between atoms: C_11  and  C_21
REMARK   10  A    between atoms: C_15  and  C_20
REMARK   11  A    between atoms: C_20  and  C_22
REMARK   12  A    between atoms: C_20  and  C_23
REMARK   13  A    between atoms: C_24  and  C_25
REMARK   14  A    between atoms: C_26  and  C_28
REMARK                            x       y       z     vdW  Elec       q    Type
REMARK                         _______ _______ _______ _____ _____    ______ ____
ROOT
ATOM      9  C   UNL     1      -3.375 -11.189  11.373  0.00  0.00    -0.027 C 
ATOM     10  C   UNL     1      -4.727 -10.799  12.059  0.00  0.00    +0.028 C 
ATOM     11  C   UNL     1      -5.581  -9.869  11.124  0.00  0.00    +0.012 C 
ATOM     12  C   UNL     1      -4.492 -10.262  13.501  0.00  0.00    +0.122 C 
ATOM     13  C   UNL     1      -2.612 -12.191  12.270  0.00  0.00    +0.007 C 
ATOM     14  C   UNL     1      -3.677 -11.894  10.031  0.00  0.00    +0.009 C 
ATOM     15  C   UNL     1      -3.639 -11.223  14.362  0.00  0.00    +0.029 C 
ATOM     16  C   UNL     1      -5.814 -10.557   9.750  0.00  0.00    +0.076 C 
ATOM     17  C   UNL     1      -2.346 -11.655  13.671  0.00  0.00    +0.007 C 
ATOM     18  C   UNL     1      -4.526 -11.050   9.090  0.00  0.00    +0.023 C 
ATOM     19  C   UNL     1      -2.466  -9.961  11.112  0.00  0.00    +0.011 C 
ATOM     21  C   UNL     1      -6.938  -9.470  11.726  0.00  0.00    +0.010 C 
ENDROOT
BRANCH  16   6
ATOM      3  O   UNL     1      -7.840 -11.311   7.859  0.00  0.00    -0.269 OA
ATOM      6  N   UNL     1      -6.499  -9.682   8.822  0.00  0.00    -0.307 N 
ATOM     24  C   UNL     1      -7.466 -10.144   7.945  0.00  0.00    +0.263 C 
ATOM     39  H   UNL     1      -6.214  -8.708   8.778  0.00  0.00    +0.149 HD
BRANCH  24  25
ATOM      8  N   UNL     1      -8.337  -9.547   5.786  0.00  0.00    -0.250 NA
ATOM     25  C   UNL     1      -8.055  -9.125   7.039  0.00  0.00    +0.125 A 
ATOM     27  C   UNL     1      -8.285  -7.835   7.492  0.00  0.00    +0.033 A 
ATOM     29  C   UNL     1      -8.839  -6.922   6.603  0.00  0.00    +0.004 A 
ATOM     30  C   UNL     1      -8.875  -8.632   4.950  0.00  0.00    +0.111 A 
ATOM     33  C   UNL     1      -9.142  -7.319   5.306  0.00  0.00    +0.020 A 
ENDBRANCH  24  25
ENDBRANCH  16   6
BRANCH  12   1
ATOM      1  O   UNL     1      -5.748 -10.123  14.167  0.00  0.00    -0.391 OA
ATOM     40  H   UNL     1      -6.128  -9.264  13.920  0.00  0.00    +0.210 HD
ENDBRANCH  12   1
BRANCH  15  20
ATOM     20  C   UNL     1      -3.310 -10.619  15.732  0.00  0.00    +0.077 C 
ATOM     22  C   UNL     1      -1.828 -10.799  16.043  0.00  0.00    +0.017 C 
BRANCH  20  23
ATOM      2  O   UNL     1      -4.153 -12.460  17.061  0.00  0.00    -0.276 OA
ATOM      7  N   UNL     1      -5.002 -10.335  17.444  0.00  0.00    -0.311 N 
ATOM     23  C   UNL     1      -4.185 -11.257  16.806  0.00  0.00    +0.216 C 
ATOM     41  H   UNL     1      -4.941  -9.353  17.197  0.00  0.00    +0.149 HD
BRANCH   7  26
ATOM     26  C   UNL     1      -5.921 -10.702  18.496  0.00  0.00    +0.139 C 
BRANCH  26  28
ATOM     28  C   UNL     1      -7.321 -10.245  18.205  0.00  0.00    -0.027 A 
ATOM     31  C   UNL     1      -8.393 -10.786  18.914  0.00  0.00    +0.054 A 
ATOM     32  C   UNL     1      -7.549  -9.277  17.225  0.00  0.00    +0.009 A 
ATOM     34  C   UNL     1      -9.694 -10.361  18.643  0.00  0.00    +0.162 A 
ATOM     35  C   UNL     1      -8.849  -8.852  16.955  0.00  0.00    +0.050 A 
ATOM     36  C   UNL     1      -9.923  -9.394  17.664  0.00  0.00    +0.162 A 
BRANCH  34   4
ATOM      4  O   UNL     1     -10.733 -10.896  19.343  0.00  0.00    -0.491 OA
ATOM     37  C   UNL     1     -10.436 -11.987  20.212  0.00  0.00    +0.277 C 
ENDBRANCH  34   4
BRANCH  36   5
ATOM      5  O   UNL     1     -11.188  -8.971  17.391  0.00  0.00    -0.491 OA
ATOM     38  C   UNL     1     -11.326  -7.679  16.801  0.00  0.00    +0.277 C 
ENDBRANCH  36   5
ENDBRANCH  26  28
ENDBRANCH   7  26
ENDBRANCH  20  23
ENDBRANCH  15  20
TORSDOF 9
ENDMDL
MODEL 5
REMARK VINA RESULT:      -7.0     28.565     31.496
REMARK  Name = 45361621
REMARK  14 active torsions:
REMARK  status: ('A' for Active; 'I' for Inactive)
REMARK    1  A    between atoms: O_1  and  C_12
REMARK    2  A    between atoms: O_4  and  C_34
REMARK    3  A    between atoms: O_4  and  C_37
REMARK    4  A    between atoms: O_5  and  C_36
REMARK    5  A    between atoms: O_5  and  C_38
REMARK    6  A    between atoms: N_6  and  C_16
REMARK    7  A    between atoms: N_7  and  C_26
REMARK    8  A    between atoms: C_9  and  C_19
REMARK    9  A    between atoms: C_11  and  C_21
REMARK   10  A    between atoms: C_15  and  C_20
REMARK   11  A    between atoms: C_20  and  C_22
REMARK   12  A    between atoms: C_20  and  C_23
REMARK   13  A    between atoms: C_24  and  C_25
REMARK   14  A    between atoms: C_26  and  C_28
REMARK                            x       y       z     vdW  Elec       q    Type
REMARK                         _______ _______ _______ _____ _____    ______ ____
ROOT
ATOM      9  C   UNL     1      16.302   7.095  19.914  0.00  0.00    -0.027 C 
ATOM     10  C   UNL     1      17.283   8.037  20.688  0.00  0.00    +0.028 C 
ATOM     11  C   UNL     1      18.331   7.202  21.507  0.00  0.00    +0.012 C 
ATOM     12  C   UNL     1      16.507   9.116  21.498  0.00  0.00    +0.122 C 
ATOM     13  C   UNL     1      15.358   7.944  19.032  0.00  0.00    +0.007 C 
ATOM     14  C   UNL     1      17.119   6.175  18.978  0.00  0.00    +0.009 C 
ATOM     15  C   UNL     1      15.489   9.893  20.631  0.00  0.00    +0.029 C 
ATOM     16  C   UNL     1      19.095   6.227  20.568  0.00  0.00    +0.076 C 
ATOM     17  C   UNL     1      14.567   8.976  19.828  0.00  0.00    +0.007 C 
ATOM     18  C   UNL     1      18.172   5.358  19.714  0.00  0.00    +0.023 C 
ATOM     19  C   UNL     1      15.444   6.222  20.866  0.00  0.00    +0.011 C 
ATOM     21  C   UNL     1      19.348   8.068  22.270  0.00  0.00    +0.010 C 
ENDROOT
BRANCH  16   6
ATOM      3  O   UNL     1      21.904   5.858  20.100  0.00  0.00    -0.269 OA
ATOM      6  N   UNL     1      19.988   5.359  21.307  0.00  0.00    -0.307 N 
ATOM     24  C   UNL     1      21.334   5.250  21.002  0.00  0.00    +0.263 C 
ATOM     39  H   UNL     1      19.594   4.770  22.035  0.00  0.00    +0.149 HD
BRANCH  24  25
ATOM      8  N   UNL     1      22.050   4.504  23.172  0.00  0.00    -0.250 NA
ATOM     25  C   UNL     1      22.110   4.297  21.837  0.00  0.00    +0.125 A 
ATOM     27  C   UNL     1      22.832   3.275  21.243  0.00  0.00    +0.033 A 
ATOM     29  C   UNL     1      23.539   2.410  22.071  0.00  0.00    +0.004 A 
ATOM     30  C   UNL     1      22.749   3.644  23.945  0.00  0.00    +0.111 A 
ATOM     33  C   UNL     1      23.502   2.591  23.449  0.00  0.00    +0.020 A 
ENDBRANCH  24  25
ENDBRANCH  16   6
BRANCH  12   1
ATOM      1  O   UNL     1      17.428  10.081  22.010  0.00  0.00    -0.391 OA
ATOM     40  H   UNL     1      17.243  10.203  22.955  0.00  0.00    +0.210 HD
ENDBRANCH  12   1
BRANCH  15  20
ATOM     20  C   UNL     1      14.645  10.857  21.473  0.00  0.00    +0.077 C 
ATOM     22  C   UNL     1      13.654  10.077  22.329  0.00  0.00    +0.017 C 
BRANCH  20  23
ATOM      2  O   UNL     1      12.742  12.138  20.696  0.00  0.00    -0.276 OA
ATOM      7  N   UNL     1      14.768  12.382  19.593  0.00  0.00    -0.311 N 
ATOM     23  C   UNL     1      13.931  11.853  20.564  0.00  0.00    +0.216 C 
ATOM     41  H   UNL     1      15.748  12.118  19.575  0.00  0.00    +0.149 HD
BRANCH   7  26
ATOM     26  C   UNL     1      14.319  13.343  18.614  0.00  0.00    +0.139 C 
BRANCH  26  28
ATOM     28  C   UNL     1      14.426  12.813  17.214  0.00  0.00    -0.027 A 
ATOM     31  C   UNL     1      14.022  11.508  16.929  0.00  0.00    +0.054 A 
ATOM     32  C   UNL     1      14.928  13.626  16.197  0.00  0.00    +0.009 A 
ATOM     34  C   UNL     1      14.121  11.016  15.627  0.00  0.00    +0.162 A 
ATOM     35  C   UNL     1      15.026  13.133  14.895  0.00  0.00    +0.050 A 
ATOM     36  C   UNL     1      14.623  11.828  14.610  0.00  0.00    +0.162 A 
BRANCH  34   4
ATOM      4  O   UNL     1      13.722   9.741  15.361  0.00  0.00    -0.491 OA
ATOM     37  C   UNL     1      12.534   9.286  16.007  0.00  0.00    +0.277 C 
ENDBRANCH  34   4
BRANCH  36   5
ATOM      5  O   UNL     1      14.723  11.359  13.336  0.00  0.00    -0.491 OA
ATOM     38  C   UNL     1      15.771  11.893  12.529  0.00  0.00    +0.277 C 
ENDBRANCH  36   5
ENDBRANCH  26  28
ENDBRANCH   7  26
ENDBRANCH  20  23
ENDBRANCH  15  20
TORSDOF 9
ENDMDL
MODEL 6
REMARK VINA RESULT:      -6.9     24.535     27.633
REMARK  Name = 45361621
REMARK  14 active torsions:
REMARK  status: ('A' for Active; 'I' for Inactive)
REMARK    1  A    between atoms: O_1  and  C_12
REMARK    2  A    between atoms: O_4  and  C_34
REMARK    3  A    between atoms: O_4  and  C_37
REMARK    4  A    between atoms: O_5  and  C_36
REMARK    5  A    between atoms: O_5  and  C_38
REMARK    6  A    between atoms: N_6  and  C_16
REMARK    7  A    between atoms: N_7  and  C_26
REMARK    8  A    between atoms: C_9  and  C_19
REMARK    9  A    between atoms: C_11  and  C_21
REMARK   10  A    between atoms: C_15  and  C_20
REMARK   11  A    between atoms: C_20  and  C_22
REMARK   12  A    between atoms: C_20  and  C_23
REMARK   13  A    between atoms: C_24  and  C_25
REMARK   14  A    between atoms: C_26  and  C_28
REMARK                            x       y       z     vdW  Elec       q    Type
REMARK                         _______ _______ _______ _____ _____    ______ ____
ROOT
ATOM      9  C   UNL     1       9.455   6.035   5.954  0.00  0.00    -0.027 C 
ATOM     10  C   UNL     1      10.339   7.222   5.447  0.00  0.00    +0.028 C 
ATOM     11  C   UNL     1       9.796   8.594   5.987  0.00  0.00    +0.012 C 
ATOM     12  C   UNL     1      10.553   7.149   3.907  0.00  0.00    +0.122 C 
ATOM     13  C   UNL     1      10.080   4.695   5.498  0.00  0.00    +0.007 C 
ATOM     14  C   UNL     1       9.437   6.044   7.500  0.00  0.00    +0.009 C 
ATOM     15  C   UNL     1      11.081   5.770   3.445  0.00  0.00    +0.029 C 
ATOM     16  C   UNL     1       9.711   8.565   7.539  0.00  0.00    +0.076 C 
ATOM     17  C   UNL     1      10.255   4.603   3.988  0.00  0.00    +0.007 C 
ATOM     18  C   UNL     1       8.943   7.360   8.083  0.00  0.00    +0.023 C 
ATOM     19  C   UNL     1       7.999   6.110   5.426  0.00  0.00    +0.011 C 
ATOM     21  C   UNL     1      10.637   9.804   5.550  0.00  0.00    +0.010 C 
ENDROOT
BRANCH  16   6
ATOM      3  O   UNL     1      10.990  10.557   9.164  0.00  0.00    -0.269 OA
ATOM      6  N   UNL     1       9.106   9.770   8.066  0.00  0.00    -0.307 N 
ATOM     24  C   UNL     1       9.810  10.673   8.844  0.00  0.00    +0.263 C 
ATOM     39  H   UNL     1       8.114   9.923   7.903  0.00  0.00    +0.149 HD
BRANCH  24  25
ATOM      8  N   UNL     1       8.765  12.792   8.402  0.00  0.00    -0.250 NA
ATOM     25  C   UNL     1       9.039  11.846   9.329  0.00  0.00    +0.125 A 
ATOM     27  C   UNL     1       8.645  11.923  10.655  0.00  0.00    +0.033 A 
ATOM     29  C   UNL     1       7.924  13.043  11.056  0.00  0.00    +0.004 A 
ATOM     30  C   UNL     1       8.062  13.865   8.829  0.00  0.00    +0.111 A 
ATOM     33  C   UNL     1       7.623  14.037  10.132  0.00  0.00    +0.020 A 
ENDBRANCH  24  25
ENDBRANCH  16   6
BRANCH  12   1
ATOM      1  O   UNL     1      11.532   8.112   3.516  0.00  0.00    -0.391 OA
ATOM     40  H   UNL     1      12.137   7.689   2.885  0.00  0.00    +0.210 HD
ENDBRANCH  12   1
BRANCH  15  20
ATOM     20  C   UNL     1      11.160   5.674   1.917  0.00  0.00    +0.077 C 
ATOM     22  C   UNL     1      10.672   4.307   1.451  0.00  0.00    +0.017 C 
BRANCH  20  23
ATOM      2  O   UNL     1      12.889   6.065   0.267  0.00  0.00    -0.276 OA
ATOM      7  N   UNL     1      13.484   6.027   2.509  0.00  0.00    -0.311 N 
ATOM     23  C   UNL     1      12.588   5.942   1.453  0.00  0.00    +0.216 C 
ATOM     41  H   UNL     1      13.146   5.949   3.462  0.00  0.00    +0.149 HD
BRANCH   7  26
ATOM     26  C   UNL     1      14.894   6.273   2.319  0.00  0.00    +0.139 C 
BRANCH  26  28
ATOM     28  C   UNL     1      15.442   7.225   3.342  0.00  0.00    -0.027 A 
ATOM     31  C   UNL     1      14.738   7.461   4.523  0.00  0.00    +0.054 A 
ATOM     32  C   UNL     1      16.657   7.872   3.112  0.00  0.00    +0.009 A 
ATOM     34  C   UNL     1      15.248   8.346   5.473  0.00  0.00    +0.162 A 
ATOM     35  C   UNL     1      17.167   8.756   4.063  0.00  0.00    +0.050 A 
ATOM     36  C   UNL     1      16.462   8.994   5.244  0.00  0.00    +0.162 A 
BRANCH  34   4
ATOM      4  O   UNL     1      14.552   8.568   6.623  0.00  0.00    -0.491 OA
ATOM     37  C   UNL     1      13.559   7.607   6.976  0.00  0.00    +0.277 C 
ENDBRANCH  34   4
BRANCH  36   5
ATOM      5  O   UNL     1      16.970   9.858   6.165  0.00  0.00    -0.491 OA
ATOM     38  C   UNL     1      16.809  11.252   5.904  0.00  0.00    +0.277 C 
ENDBRANCH  36   5
ENDBRANCH  26  28
ENDBRANCH   7  26
ENDBRANCH  20  23
ENDBRANCH  15  20
TORSDOF 9
ENDMDL
MODEL 7
REMARK VINA RESULT:      -6.8      4.691      8.442
REMARK  Name = 45361621
REMARK  14 active torsions:
REMARK  status: ('A' for Active; 'I' for Inactive)
REMARK    1  A    between atoms: O_1  and  C_12
REMARK    2  A    between atoms: O_4  and  C_34
REMARK    3  A    between atoms: O_4  and  C_37
REMARK    4  A    between atoms: O_5  and  C_36
REMARK    5  A    between atoms: O_5  and  C_38
REMARK    6  A    between atoms: N_6  and  C_16
REMARK    7  A    between atoms: N_7  and  C_26
REMARK    8  A    between atoms: C_9  and  C_19
REMARK    9  A    between atoms: C_11  and  C_21
REMARK   10  A    between atoms: C_15  and  C_20
REMARK   11  A    between atoms: C_20  and  C_22
REMARK   12  A    between atoms: C_20  and  C_23
REMARK   13  A    between atoms: C_24  and  C_25
REMARK   14  A    between atoms: C_26  and  C_28
REMARK                            x       y       z     vdW  Elec       q    Type
REMARK                         _______ _______ _______ _____ _____    ______ ____
ROOT
ATOM      9  C   UNL     1     -10.286  -8.920   9.515  0.00  0.00    -0.027 C 
ATOM     10  C   UNL     1      -9.485  -7.618   9.179  0.00  0.00    +0.028 C 
ATOM     11  C   UNL     1     -10.460  -6.431   8.851  0.00  0.00    +0.012 C 
ATOM     12  C   UNL     1      -8.383  -7.892   8.115  0.00  0.00    +0.122 C 
ATOM     13  C   UNL     1      -9.302 -10.035   9.942  0.00  0.00    +0.007 C 
ATOM     14  C   UNL     1     -11.226  -8.639  10.709  0.00  0.00    +0.009 C 
ATOM     15  C   UNL     1      -7.466  -9.076   8.500  0.00  0.00    +0.029 C 
ATOM     16  C   UNL     1     -11.451  -6.207  10.028  0.00  0.00    +0.076 C 
ATOM     17  C   UNL     1      -8.246 -10.333   8.887  0.00  0.00    +0.007 C 
ATOM     18  C   UNL     1     -12.180  -7.479  10.459  0.00  0.00    +0.023 C 
ATOM     19  C   UNL     1     -11.123  -9.428   8.314  0.00  0.00    +0.011 C 
ATOM     21  C   UNL     1      -9.738  -5.109   8.539  0.00  0.00    +0.010 C 
ENDROOT
BRANCH  16   6
ATOM      3  O   UNL     1     -12.592  -4.297  11.844  0.00  0.00    -0.269 OA
ATOM      6  N   UNL     1     -12.439  -5.196   9.712  0.00  0.00    -0.307 N 
ATOM     24  C   UNL     1     -12.929  -4.318  10.663  0.00  0.00    +0.263 C 
ATOM     39  H   UNL     1     -12.823  -5.176   8.772  0.00  0.00    +0.149 HD
BRANCH  24  25
ATOM      8  N   UNL     1     -13.885  -3.022   8.878  0.00  0.00    -0.250 NA
ATOM     25  C   UNL     1     -13.958  -3.358  10.185  0.00  0.00    +0.125 A 
ATOM     27  C   UNL     1     -14.914  -2.867  11.060  0.00  0.00    +0.033 A 
ATOM     29  C   UNL     1     -15.855  -1.973  10.560  0.00  0.00    +0.004 A 
ATOM     30  C   UNL     1     -14.815  -2.151   8.429  0.00  0.00    +0.111 A 
ATOM     33  C   UNL     1     -15.811  -1.603   9.222  0.00  0.00    +0.020 A 
ENDBRANCH  24  25
ENDBRANCH  16   6
BRANCH  12   1
ATOM      1  O   UNL     1      -7.541  -6.745   7.996  0.00  0.00    -0.391 OA
ATOM     40  H   UNL     1      -8.002  -5.989   8.395  0.00  0.00    +0.210 HD
ENDBRANCH  12   1
BRANCH  15  20
ATOM     20  C   UNL     1      -6.473  -9.414   7.381  0.00  0.00    +0.077 C 
ATOM     22  C   UNL     1      -7.038 -10.518   6.494  0.00  0.00    +0.017 C 
BRANCH  20  23
ATOM      2  O   UNL     1      -4.567 -10.872   7.704  0.00  0.00    -0.276 OA
ATOM      7  N   UNL     1      -4.634  -8.862   8.859  0.00  0.00    -0.311 N 
ATOM     23  C   UNL     1      -5.130  -9.814   7.981  0.00  0.00    +0.216 C 
ATOM     41  H   UNL     1      -5.146  -7.998   9.006  0.00  0.00    +0.149 HD
BRANCH   7  26
ATOM     26  C   UNL     1      -3.378  -9.018   9.554  0.00  0.00    +0.139 C 
BRANCH  26  28
ATOM     28  C   UNL     1      -3.555  -9.659  10.899  0.00  0.00    -0.027 A 
ATOM     31  C   UNL     1      -4.795  -9.617  11.535  0.00  0.00    +0.054 A 
ATOM     32  C   UNL     1      -2.477 -10.298  11.514  0.00  0.00    +0.009 A 
ATOM     34  C   UNL     1      -4.959 -10.213  12.786  0.00  0.00    +0.162 A 
ATOM     35  C   UNL     1      -2.641 -10.895  12.764  0.00  0.00    +0.050 A 
ATOM     36  C   UNL     1      -3.882 -10.852  13.401  0.00  0.00    +0.162 A 
BRANCH  34   4
ATOM      4  O   UNL     1      -6.176 -10.167  13.396  0.00  0.00    -0.491 OA
ATOM     37  C   UNL     1      -7.237 -10.896  12.782  0.00  0.00    +0.277 C 
ENDBRANCH  34   4
BRANCH  36   5
ATOM      5  O   UNL     1      -4.031 -11.438  14.621  0.00  0.00    -0.491 OA
ATOM     38  C   UNL     1      -3.565 -10.705  15.753  0.00  0.00    +0.277 C 
ENDBRANCH  36   5
ENDBRANCH  26  28
ENDBRANCH   7  26
ENDBRANCH  20  23
ENDBRANCH  15  20
TORSDOF 9
ENDMDL
MODEL 8
REMARK VINA RESULT:      -6.8      3.319      4.187
REMARK  Name = 45361621
REMARK  14 active torsions:
REMARK  status: ('A' for Active; 'I' for Inactive)
REMARK    1  A    between atoms: O_1  and  C_12
REMARK    2  A    between atoms: O_4  and  C_34
REMARK    3  A    between atoms: O_4  and  C_37
REMARK    4  A    between atoms: O_5  and  C_36
REMARK    5  A    between atoms: O_5  and  C_38
REMARK    6  A    between atoms: N_6  and  C_16
REMARK    7  A    between atoms: N_7  and  C_26
REMARK    8  A    between atoms: C_9  and  C_19
REMARK    9  A    between atoms: C_11  and  C_21
REMARK   10  A    between atoms: C_15  and  C_20
REMARK   11  A    between atoms: C_20  and  C_22
REMARK   12  A    between atoms: C_20  and  C_23
REMARK   13  A    between atoms: C_24  and  C_25
REMARK   14  A    between atoms: C_26  and  C_28
REMARK                            x       y       z     vdW  Elec       q    Type
REMARK                         _______ _______ _______ _____ _____    ______ ____
ROOT
ATOM      9  C   UNL     1      -5.458 -11.115  17.703  0.00  0.00    -0.027 C 
ATOM     10  C   UNL     1      -5.624 -12.361  16.771  0.00  0.00    +0.028 C 
ATOM     11  C   UNL     1      -6.358 -13.528  17.523  0.00  0.00    +0.012 C 
ATOM     12  C   UNL     1      -4.274 -12.745  16.097  0.00  0.00    +0.122 C 
ATOM     13  C   UNL     1      -4.836  -9.949  16.900  0.00  0.00    +0.007 C 
ATOM     14  C   UNL     1      -6.854 -10.660  18.188  0.00  0.00    +0.009 C 
ATOM     15  C   UNL     1      -3.604 -11.547  15.383  0.00  0.00    +0.029 C 
ATOM     16  C   UNL     1      -7.728 -13.038  18.071  0.00  0.00    +0.076 C 
ATOM     17  C   UNL     1      -3.495 -10.308  16.272  0.00  0.00    +0.007 C 
ATOM     18  C   UNL     1      -7.626 -11.760  18.903  0.00  0.00    +0.023 C 
ATOM     19  C   UNL     1      -4.561 -11.409  18.932  0.00  0.00    +0.011 C 
ATOM     21  C   UNL     1      -6.581 -14.777  16.653  0.00  0.00    +0.010 C 
ENDROOT
BRANCH  16   6
ATOM      3  O   UNL     1     -10.543 -13.597  18.166  0.00  0.00    -0.269 OA
ATOM      6  N   UNL     1      -8.381 -14.054  18.869  0.00  0.00    -0.307 N 
ATOM     24  C   UNL     1      -9.751 -14.246  18.845  0.00  0.00    +0.263 C 
ATOM     39  H   UNL     1      -7.814 -14.602  19.510  0.00  0.00    +0.149 HD
BRANCH  24  25
ATOM      8  N   UNL     1      -9.801 -15.289  21.011  0.00  0.00    -0.250 NA
ATOM     25  C   UNL     1     -10.270 -15.311  19.742  0.00  0.00    +0.125 A 
ATOM     27  C   UNL     1     -11.175 -16.246  19.266  0.00  0.00    +0.033 A 
ATOM     29  C   UNL     1     -11.629 -17.221  20.148  0.00  0.00    +0.004 A 
ATOM     30  C   UNL     1     -10.265 -16.252  21.838  0.00  0.00    +0.111 A 
ATOM     33  C   UNL     1     -11.170 -17.231  21.460  0.00  0.00    +0.020 A 
ENDBRANCH  24  25
ENDBRANCH  16   6
BRANCH  12   1
ATOM      1  O   UNL     1      -4.506 -13.738  15.098  0.00  0.00    -0.391 OA
ATOM     40  H   UNL     1      -4.484 -13.304  14.229  0.00  0.00    +0.210 HD
ENDBRANCH  12   1
BRANCH  15  20
ATOM     20  C   UNL     1      -2.218 -11.912  14.840  0.00  0.00    +0.077 C 
ATOM     22  C   UNL     1      -1.160 -10.995  15.444  0.00  0.00    +0.017 C 
BRANCH  20  23
ATOM      2  O   UNL     1      -2.224 -12.831  12.599  0.00  0.00    -0.276 OA
ATOM      7  N   UNL     1      -2.208 -10.525  12.853  0.00  0.00    -0.311 N 
ATOM     23  C   UNL     1      -2.218 -11.832  13.317  0.00  0.00    +0.216 C 
ATOM     41  H   UNL     1      -2.239  -9.756  13.514  0.00  0.00    +0.149 HD
BRANCH   7  26
ATOM     26  C   UNL     1      -2.204 -10.195  11.447  0.00  0.00    +0.139 C 
BRANCH  26  28
ATOM     28  C   UNL     1      -3.544  -9.708  10.979  0.00  0.00    -0.027 A 
ATOM     31  C   UNL     1      -4.641  -9.749  11.840  0.00  0.00    +0.054 A 
ATOM     32  C   UNL     1      -3.692  -9.214   9.682  0.00  0.00    +0.009 A 
ATOM     34  C   UNL     1      -5.886  -9.295  11.404  0.00  0.00    +0.162 A 
ATOM     35  C   UNL     1      -4.938  -8.761   9.247  0.00  0.00    +0.050 A 
ATOM     36  C   UNL     1      -6.035  -8.802  10.108  0.00  0.00    +0.162 A 
BRANCH  34   4
ATOM      4  O   UNL     1      -6.950  -9.338  12.255  0.00  0.00    -0.491 OA
ATOM     37  C   UNL     1      -6.730  -9.920  13.538  0.00  0.00    +0.277 C 
ENDBRANCH  34   4
BRANCH  36   5
ATOM      5  O   UNL     1      -7.246  -8.356   9.672  0.00  0.00    -0.491 OA
ATOM     38  C   UNL     1      -7.956  -9.194   8.762  0.00  0.00    +0.277 C 
ENDBRANCH  36   5
ENDBRANCH  26  28
ENDBRANCH   7  26
ENDBRANCH  20  23
ENDBRANCH  15  20
TORSDOF 9
ENDMDL
MODEL 9
REMARK VINA RESULT:      -6.8     23.881     26.905
REMARK  Name = 45361621
REMARK  14 active torsions:
REMARK  status: ('A' for Active; 'I' for Inactive)
REMARK    1  A    between atoms: O_1  and  C_12
REMARK    2  A    between atoms: O_4  and  C_34
REMARK    3  A    between atoms: O_4  and  C_37
REMARK    4  A    between atoms: O_5  and  C_36
REMARK    5  A    between atoms: O_5  and  C_38
REMARK    6  A    between atoms: N_6  and  C_16
REMARK    7  A    between atoms: N_7  and  C_26
REMARK    8  A    between atoms: C_9  and  C_19
REMARK    9  A    between atoms: C_11  and  C_21
REMARK   10  A    between atoms: C_15  and  C_20
REMARK   11  A    between atoms: C_20  and  C_22
REMARK   12  A    between atoms: C_20  and  C_23
REMARK   13  A    between atoms: C_24  and  C_25
REMARK   14  A    between atoms: C_26  and  C_28
REMARK                            x       y       z     vdW  Elec       q    Type
REMARK                         _______ _______ _______ _____ _____    ______ ____
ROOT
ATOM      9  C   UNL     1      13.743   4.886   0.579  0.00  0.00    -0.027 C 
ATOM     10  C   UNL     1      12.187   4.772   0.465  0.00  0.00    +0.028 C 
ATOM     11  C   UNL     1      11.528   4.667   1.887  0.00  0.00    +0.012 C 
ATOM     12  C   UNL     1      11.775   3.661  -0.545  0.00  0.00    +0.122 C 
ATOM     13  C   UNL     1      14.349   5.100  -0.828  0.00  0.00    +0.007 C 
ATOM     14  C   UNL     1      14.096   6.123   1.436  0.00  0.00    +0.009 C 
ATOM     15  C   UNL     1      12.466   3.822  -1.920  0.00  0.00    +0.029 C 
ATOM     16  C   UNL     1      11.950   5.878   2.766  0.00  0.00    +0.076 C 
ATOM     17  C   UNL     1      13.981   3.995  -1.809  0.00  0.00    +0.007 C 
ATOM     18  C   UNL     1      13.463   6.091   2.820  0.00  0.00    +0.023 C 
ATOM     19  C   UNL     1      14.386   3.626   1.212  0.00  0.00    +0.011 C 
ATOM     21  C   UNL     1       9.993   4.581   1.850  0.00  0.00    +0.010 C 
ENDROOT
BRANCH  16   6
ATOM      3  O   UNL     1       9.838   7.410   3.965  0.00  0.00    -0.269 OA
ATOM      6  N   UNL     1      11.455   5.756   4.121  0.00  0.00    -0.307 N 
ATOM     24  C   UNL     1      10.427   6.545   4.607  0.00  0.00    +0.263 C 
ATOM     39  H   UNL     1      11.922   5.106   4.748  0.00  0.00    +0.149 HD
BRANCH  24  25
ATOM      8  N   UNL     1      10.255   5.061   6.491  0.00  0.00    -0.250 NA
ATOM     25  C   UNL     1      10.053   6.315   6.027  0.00  0.00    +0.125 A 
ATOM     27  C   UNL     1       9.535   7.350   6.789  0.00  0.00    +0.033 A 
ATOM     29  C   UNL     1       9.203   7.081   8.112  0.00  0.00    +0.004 A 
ATOM     30  C   UNL     1       9.921   4.838   7.781  0.00  0.00    +0.111 A 
ATOM     33  C   UNL     1       9.396   5.804   8.625  0.00  0.00    +0.020 A 
ENDBRANCH  24  25
ENDBRANCH  16   6
BRANCH  12   1
ATOM      1  O   UNL     1      10.369   3.733  -0.785  0.00  0.00    -0.391 OA
ATOM     40  H   UNL     1       9.912   3.632   0.067  0.00  0.00    +0.210 HD
ENDBRANCH  12   1
BRANCH  15  20
ATOM     20  C   UNL     1      12.151   2.650  -2.855  0.00  0.00    +0.077 C 
ATOM     22  C   UNL     1      12.990   2.751  -4.125  0.00  0.00    +0.017 C 
BRANCH  20  23
ATOM      2  O   UNL     1       9.919   1.710  -2.819  0.00  0.00    -0.276 OA
ATOM      7  N   UNL     1      10.253   3.734  -3.902  0.00  0.00    -0.311 N 
ATOM     23  C   UNL     1      10.660   2.625  -3.175  0.00  0.00    +0.216 C 
ATOM     41  H   UNL     1      10.924   4.462  -4.126  0.00  0.00    +0.149 HD
BRANCH   7  26
ATOM     26  C   UNL     1       8.887   3.933  -4.325  0.00  0.00    +0.139 C 
BRANCH  26  28
ATOM     28  C   UNL     1       8.330   5.238  -3.833  0.00  0.00    -0.027 A 
ATOM     31  C   UNL     1       9.024   5.975  -2.874  0.00  0.00    +0.054 A 
ATOM     32  C   UNL     1       7.118   5.712  -4.337  0.00  0.00    +0.009 A 
ATOM     34  C   UNL     1       8.506   7.188  -2.418  0.00  0.00    +0.162 A 
ATOM     35  C   UNL     1       6.601   6.924  -3.880  0.00  0.00    +0.050 A 
ATOM     36  C   UNL     1       7.295   7.663  -2.920  0.00  0.00    +0.162 A 
BRANCH  34   4
ATOM      4  O   UNL     1       9.194   7.901  -1.482  0.00  0.00    -0.491 OA
ATOM     37  C   UNL     1      10.576   7.591  -1.319  0.00  0.00    +0.277 C 
ENDBRANCH  34   4
BRANCH  36   5
ATOM      5  O   UNL     1       6.780   8.845  -2.483  0.00  0.00    -0.491 OA
ATOM     38  C   UNL     1       5.653   8.778  -1.610  0.00  0.00    +0.277 C 
ENDBRANCH  36   5
ENDBRANCH  26  28
ENDBRANCH   7  26
ENDBRANCH  20  23
ENDBRANCH  15  20
TORSDOF 9
ENDMDL
MODEL 10
REMARK VINA RESULT:      -6.7     24.816     29.171
REMARK  Name = 45361621
REMARK  14 active torsions:
REMARK  status: ('A' for Active; 'I' for Inactive)
REMARK    1  A    between atoms: O_1  and  C_12
REMARK    2  A    between atoms: O_4  and  C_34
REMARK    3  A    between atoms: O_4  and  C_37
REMARK    4  A    between atoms: O_5  and  C_36
REMARK    5  A    between atoms: O_5  and  C_38
REMARK    6  A    between atoms: N_6  and  C_16
REMARK    7  A    between atoms: N_7  and  C_26
REMARK    8  A    between atoms: C_9  and  C_19
REMARK    9  A    between atoms: C_11  and  C_21
REMARK   10  A    between atoms: C_15  and  C_20
REMARK   11  A    between atoms: C_20  and  C_22
REMARK   12  A    between atoms: C_20  and  C_23
REMARK   13  A    between atoms: C_24  and  C_25
REMARK   14  A    between atoms: C_26  and  C_28
REMARK                            x       y       z     vdW  Elec       q    Type
REMARK                         _______ _______ _______ _____ _____    ______ ____
ROOT
ATOM      9  C   UNL     1      12.563   8.649   3.252  0.00  0.00    -0.027 C 
ATOM     10  C   UNL     1      12.684   8.083   4.707  0.00  0.00    +0.028 C 
ATOM     11  C   UNL     1      14.159   7.638   5.013  0.00  0.00    +0.012 C 
ATOM     12  C   UNL     1      11.591   7.011   4.988  0.00  0.00    +0.122 C 
ATOM     13  C   UNL     1      11.129   9.180   3.023  0.00  0.00    +0.007 C 
ATOM     14  C   UNL     1      13.537   9.838   3.092  0.00  0.00    +0.009 C 
ATOM     15  C   UNL     1      10.166   7.515   4.658  0.00  0.00    +0.029 C 
ATOM     16  C   UNL     1      15.139   8.821   4.775  0.00  0.00    +0.076 C 
ATOM     17  C   UNL     1      10.057   8.124   3.259  0.00  0.00    +0.007 C 
ATOM     18  C   UNL     1      14.982   9.473   3.402  0.00  0.00    +0.023 C 
ATOM     19  C   UNL     1      12.878   7.582   2.173  0.00  0.00    +0.011 C 
ATOM     21  C   UNL     1      14.356   7.098   6.439  0.00  0.00    +0.010 C 
ENDROOT
BRANCH  16   6
ATOM      3  O   UNL     1      17.146  10.151   6.341  0.00  0.00    -0.269 OA
ATOM      6  N   UNL     1      16.519   8.415   4.936  0.00  0.00    -0.307 N 
ATOM     24  C   UNL     1      17.413   9.127   5.717  0.00  0.00    +0.263 C 
ATOM     39  H   UNL     1      16.850   7.612   4.409  0.00  0.00    +0.149 HD
BRANCH  24  25
ATOM      8  N   UNL     1      19.222   7.970   4.635  0.00  0.00    -0.250 NA
ATOM     25  C   UNL     1      18.800   8.595   5.757  0.00  0.00    +0.125 A 
ATOM     27  C   UNL     1      19.577   8.754   6.894  0.00  0.00    +0.033 A 
ATOM     29  C   UNL     1      20.867   8.238   6.878  0.00  0.00    +0.004 A 
ATOM     30  C   UNL     1      20.482   7.482   4.657  0.00  0.00    +0.111 A 
ATOM     33  C   UNL     1      21.336   7.588   5.742  0.00  0.00    +0.020 A 
ENDBRANCH  24  25
ENDBRANCH  16   6
BRANCH  12   1
ATOM      1  O   UNL     1      11.595   6.680   6.377  0.00  0.00    -0.391 OA
ATOM     40  H   UNL     1      11.944   7.442   6.868  0.00  0.00    +0.210 HD
ENDBRANCH  12   1
BRANCH  15  20
ATOM     20  C   UNL     1       9.120   6.406   4.816  0.00  0.00    +0.077 C 
ATOM     22  C   UNL     1       8.408   6.543   6.157  0.00  0.00    +0.017 C 
BRANCH  20  23
ATOM      2  O   UNL     1       9.836   4.229   5.600  0.00  0.00    -0.276 OA
ATOM      7  N   UNL     1      10.313   4.832   3.412  0.00  0.00    -0.311 N 
ATOM     23  C   UNL     1       9.785   5.040   4.677  0.00  0.00    +0.216 C 
ATOM     41  H   UNL     1      10.196   5.541   2.695  0.00  0.00    +0.149 HD
BRANCH   7  26
ATOM     26  C   UNL     1      10.994   3.614   3.040  0.00  0.00    +0.139 C 
BRANCH  26  28
ATOM     28  C   UNL     1      11.714   3.750   1.730  0.00  0.00    -0.027 A 
ATOM     31  C   UNL     1      11.025   4.179   0.596  0.00  0.00    +0.054 A 
ATOM     32  C   UNL     1      13.074   3.447   1.647  0.00  0.00    +0.009 A 
ATOM     34  C   UNL     1      11.695   4.304  -0.622  0.00  0.00    +0.162 A 
ATOM     35  C   UNL     1      13.743   3.573   0.430  0.00  0.00    +0.050 A 
ATOM     36  C   UNL     1      13.054   4.001  -0.705  0.00  0.00    +0.162 A 
BRANCH  34   4
ATOM      4  O   UNL     1      11.011   4.726  -1.722  0.00  0.00    -0.491 OA
ATOM     37  C   UNL     1       9.737   5.328  -1.502  0.00  0.00    +0.277 C 
ENDBRANCH  34   4
BRANCH  36   5
ATOM      5  O   UNL     1      13.718   4.121  -1.888  0.00  0.00    -0.491 OA
ATOM     38  C   UNL     1      15.118   4.388  -1.821  0.00  0.00    +0.277 C 
ENDBRANCH  36   5
ENDBRANCH  26  28
ENDBRANCH   7  26
ENDBRANCH  20  23
ENDBRANCH  15  20
TORSDOF 9
ENDMDL
