MODEL 1
REMARK VINA RESULT:      -7.3      0.000      0.000
REMARK  Name = 75536063
REMARK  7 active torsions:
REMARK  status: ('A' for Active; 'I' for Inactive)
REMARK    1  A    between atoms: O_1  and  C_9
REMARK    2  A    between atoms: O_2  and  C_11
REMARK    3  A    between atoms: O_4  and  C_23
REMARK    4  A    between atoms: O_4  and  C_24
REMARK    5  A    between atoms: N_5  and  C_8
REMARK    6  A    between atoms: C_7  and  C_12
REMARK    7  A    between atoms: C_15  and  C_17
REMARK                            x       y       z     vdW  Elec       q    Type
REMARK                         _______ _______ _______ _____ _____    ______ ____
ROOT
ATOM      7  C   UNL     1      12.990   9.292  19.970  0.00  0.00    +0.046 C 
ATOM      8  C   UNL     1      13.210   7.815  20.367  0.00  0.00    +0.112 C 
ATOM      9  C   UNL     1      12.361   7.656  21.628  0.00  0.00    +0.164 C 
ATOM     10  C   UNL     1      11.642   9.707  20.612  0.00  0.00    +0.044 C 
ATOM     11  C   UNL     1      11.104   8.453  21.301  0.00  0.00    +0.145 C 
ENDROOT
BRANCH   7  12
ATOM      6  N   UNL     1      12.283   8.957  16.257  0.00  0.00    -0.263 NA
ATOM     12  C   UNL     1      13.065   9.521  18.474  0.00  0.00    -0.024 A 
ATOM     13  C   UNL     1      13.940  10.457  17.935  0.00  0.00    +0.007 A 
ATOM     14  C   UNL     1      12.265   8.803  17.600  0.00  0.00    +0.114 A 
ATOM     16  C   UNL     1      13.987  10.645  16.558  0.00  0.00    +0.020 A 
ATOM     18  C   UNL     1      13.145   9.876  15.770  0.00  0.00    +0.111 A 
ENDBRANCH   7  12
BRANCH   8   5
ATOM      3  O   UNL     1      15.107   6.778  18.476  0.00  0.00    -0.270 OA
ATOM      5  N   UNL     1      14.600   7.523  20.613  0.00  0.00    -0.305 N 
ATOM     15  C   UNL     1      15.444   7.022  19.632  0.00  0.00    +0.244 C 
ATOM     25  H   UNL     1      14.940   7.678  21.556  0.00  0.00    +0.149 HD
BRANCH  15  17
ATOM     17  C   UNL     1      16.841   6.747  20.053  0.00  0.00    +0.037 A 
ATOM     19  C   UNL     1      17.390   7.431  21.139  0.00  0.00    +0.016 A 
ATOM     20  C   UNL     1      17.605   5.805  19.363  0.00  0.00    +0.016 A 
ATOM     21  C   UNL     1      18.703   7.173  21.534  0.00  0.00    +0.046 A 
ATOM     22  C   UNL     1      18.918   5.547  19.759  0.00  0.00    +0.046 A 
ATOM     23  C   UNL     1      19.467   6.232  20.844  0.00  0.00    +0.120 A 
BRANCH  23   4
ATOM      4  O   UNL     1      20.748   5.980  21.229  0.00  0.00    -0.495 OA
ATOM     24  C   UNL     1      21.468   4.996  20.489  0.00  0.00    +0.277 C 
ENDBRANCH  23   4
ENDBRANCH  15  17
ENDBRANCH   8   5
BRANCH   9   1
ATOM      1  O   UNL     1      12.051   6.301  21.898  0.00  0.00    -0.387 OA
ATOM     26  H   UNL     1      11.733   6.253  22.816  0.00  0.00    +0.210 HD
ENDBRANCH   9   1
BRANCH  11   2
ATOM      2  O   UNL     1      10.276   7.748  20.382  0.00  0.00    -0.389 OA
ATOM     27  H   UNL     1      10.328   6.804  20.607  0.00  0.00    +0.210 HD
ENDBRANCH  11   2
TORSDOF 6
ENDMDL
MODEL 2
REMARK VINA RESULT:      -7.3      2.306      3.090
REMARK  Name = 75536063
REMARK  7 active torsions:
REMARK  status: ('A' for Active; 'I' for Inactive)
REMARK    1  A    between atoms: O_1  and  C_9
REMARK    2  A    between atoms: O_2  and  C_11
REMARK    3  A    between atoms: O_4  and  C_23
REMARK    4  A    between atoms: O_4  and  C_24
REMARK    5  A    between atoms: N_5  and  C_8
REMARK    6  A    between atoms: C_7  and  C_12
REMARK    7  A    between atoms: C_15  and  C_17
REMARK                            x       y       z     vdW  Elec       q    Type
REMARK                         _______ _______ _______ _____ _____    ______ ____
ROOT
ATOM      7  C   UNL     1      12.553   8.772  22.080  0.00  0.00    +0.046 C 
ATOM      8  C   UNL     1      13.021   7.992  20.830  0.00  0.00    +0.112 C 
ATOM      9  C   UNL     1      12.104   6.769  20.810  0.00  0.00    +0.164 C 
ATOM     10  C   UNL     1      11.095   8.316  22.342  0.00  0.00    +0.044 C 
ATOM     11  C   UNL     1      10.752   7.344  21.213  0.00  0.00    +0.145 C 
ENDROOT
BRANCH   7  12
ATOM      6  N   UNL     1      14.080  12.239  22.296  0.00  0.00    -0.263 NA
ATOM     12  C   UNL     1      12.722  10.271  21.940  0.00  0.00    -0.024 A 
ATOM     13  C   UNL     1      11.729  11.052  21.358  0.00  0.00    +0.007 A 
ATOM     14  C   UNL     1      13.867  10.907  22.389  0.00  0.00    +0.114 A 
ATOM     16  C   UNL     1      11.912  12.426  21.244  0.00  0.00    +0.020 A 
ATOM     18  C   UNL     1      13.094  12.965  21.724  0.00  0.00    +0.111 A 
ENDBRANCH   7  12
BRANCH   8   5
ATOM      3  O   UNL     1      14.758   7.350  18.635  0.00  0.00    -0.270 OA
ATOM      5  N   UNL     1      14.411   7.623  20.912  0.00  0.00    -0.305 N 
ATOM     15  C   UNL     1      15.175   7.328  19.791  0.00  0.00    +0.244 C 
ATOM     25  H   UNL     1      14.814   7.561  21.840  0.00  0.00    +0.149 HD
BRANCH  15  17
ATOM     17  C   UNL     1      16.584   6.938  20.047  0.00  0.00    +0.037 A 
ATOM     19  C   UNL     1      17.158   5.885  19.333  0.00  0.00    +0.016 A 
ATOM     20  C   UNL     1      17.335   7.625  21.002  0.00  0.00    +0.016 A 
ATOM     21  C   UNL     1      18.482   5.518  19.574  0.00  0.00    +0.046 A 
ATOM     22  C   UNL     1      18.659   7.258  21.243  0.00  0.00    +0.046 A 
ATOM     23  C   UNL     1      19.232   6.204  20.529  0.00  0.00    +0.120 A 
BRANCH  23   4
ATOM      4  O   UNL     1      20.525   5.847  20.765  0.00  0.00    -0.495 OA
ATOM     24  C   UNL     1      20.892   4.502  20.464  0.00  0.00    +0.277 C 
ENDBRANCH  23   4
ENDBRANCH  15  17
ENDBRANCH   8   5
BRANCH   9   1
ATOM      1  O   UNL     1      12.043   6.166  19.531  0.00  0.00    -0.387 OA
ATOM     26  H   UNL     1      11.142   5.816  19.417  0.00  0.00    +0.210 HD
ENDBRANCH   9   1
BRANCH  11   2
ATOM      2  O   UNL     1      10.169   8.078  20.142  0.00  0.00    -0.389 OA
ATOM     27  H   UNL     1      10.875   8.605  19.730  0.00  0.00    +0.210 HD
ENDBRANCH  11   2
TORSDOF 6
ENDMDL
MODEL 3
REMARK VINA RESULT:      -6.5      2.137      3.613
REMARK  Name = 75536063
REMARK  7 active torsions:
REMARK  status: ('A' for Active; 'I' for Inactive)
REMARK    1  A    between atoms: O_1  and  C_9
REMARK    2  A    between atoms: O_2  and  C_11
REMARK    3  A    between atoms: O_4  and  C_23
REMARK    4  A    between atoms: O_4  and  C_24
REMARK    5  A    between atoms: N_5  and  C_8
REMARK    6  A    between atoms: C_7  and  C_12
REMARK    7  A    between atoms: C_15  and  C_17
REMARK                            x       y       z     vdW  Elec       q    Type
REMARK                         _______ _______ _______ _____ _____    ______ ____
ROOT
ATOM      7  C   UNL     1      13.397   8.983  18.770  0.00  0.00    +0.046 C 
ATOM      8  C   UNL     1      14.643   9.621  19.425  0.00  0.00    +0.112 C 
ATOM      9  C   UNL     1      14.951  10.812  18.518  0.00  0.00    +0.164 C 
ATOM     10  C   UNL     1      12.730  10.111  17.941  0.00  0.00    +0.044 C 
ATOM     11  C   UNL     1      13.569  11.364  18.191  0.00  0.00    +0.145 C 
ENDROOT
BRANCH   7  12
ATOM      6  N   UNL     1      11.618   6.282  20.754  0.00  0.00    -0.263 NA
ATOM     12  C   UNL     1      12.476   8.318  19.771  0.00  0.00    -0.024 A 
ATOM     13  C   UNL     1      11.661   9.073  20.608  0.00  0.00    +0.007 A 
ATOM     14  C   UNL     1      12.417   6.938  19.882  0.00  0.00    +0.114 A 
ATOM     16  C   UNL     1      10.826   8.435  21.517  0.00  0.00    +0.020 A 
ATOM     18  C   UNL     1      10.841   7.049  21.550  0.00  0.00    +0.111 A 
ENDBRANCH   7  12
BRANCH   8   5
ATOM      3  O   UNL     1      15.636   8.314  21.782  0.00  0.00    -0.270 OA
ATOM      5  N   UNL     1      15.747   8.699  19.497  0.00  0.00    -0.305 N 
ATOM     15  C   UNL     1      16.157   8.114  20.688  0.00  0.00    +0.244 C 
ATOM     25  H   UNL     1      16.240   8.506  18.633  0.00  0.00    +0.149 HD
BRANCH  15  17
ATOM     17  C   UNL     1      17.329   7.207  20.598  0.00  0.00    +0.037 A 
ATOM     19  C   UNL     1      18.402   7.363  21.476  0.00  0.00    +0.016 A 
ATOM     20  C   UNL     1      17.357   6.197  19.635  0.00  0.00    +0.016 A 
ATOM     21  C   UNL     1      19.503   6.511  21.392  0.00  0.00    +0.046 A 
ATOM     22  C   UNL     1      18.458   5.345  19.551  0.00  0.00    +0.046 A 
ATOM     23  C   UNL     1      19.532   5.503  20.429  0.00  0.00    +0.120 A 
BRANCH  23   4
ATOM      4  O   UNL     1      20.606   4.671  20.346  0.00  0.00    -0.495 OA
ATOM     24  C   UNL     1      21.899   5.271  20.404  0.00  0.00    +0.277 C 
ENDBRANCH  23   4
ENDBRANCH  15  17
ENDBRANCH   8   5
BRANCH   9   1
ATOM      1  O   UNL     1      15.750  11.785  19.164  0.00  0.00    -0.387 OA
ATOM     26  H   UNL     1      16.647  11.418  19.247  0.00  0.00    +0.210 HD
ENDBRANCH   9   1
BRANCH  11   2
ATOM      2  O   UNL     1      13.022  12.065  19.303  0.00  0.00    -0.389 OA
ATOM     27  H   UNL     1      13.150  13.015  19.142  0.00  0.00    +0.210 HD
ENDBRANCH  11   2
TORSDOF 6
ENDMDL
MODEL 4
REMARK VINA RESULT:      -6.3      2.187      3.807
REMARK  Name = 75536063
REMARK  7 active torsions:
REMARK  status: ('A' for Active; 'I' for Inactive)
REMARK    1  A    between atoms: O_1  and  C_9
REMARK    2  A    between atoms: O_2  and  C_11
REMARK    3  A    between atoms: O_4  and  C_23
REMARK    4  A    between atoms: O_4  and  C_24
REMARK    5  A    between atoms: N_5  and  C_8
REMARK    6  A    between atoms: C_7  and  C_12
REMARK    7  A    between atoms: C_15  and  C_17
REMARK                            x       y       z     vdW  Elec       q    Type
REMARK                         _______ _______ _______ _____ _____    ______ ____
ROOT
ATOM      7  C   UNL     1      12.677   7.929  18.944  0.00  0.00    +0.046 C 
ATOM      8  C   UNL     1      13.966   8.675  18.532  0.00  0.00    +0.112 C 
ATOM      9  C   UNL     1      13.959   8.581  17.006  0.00  0.00    +0.164 C 
ATOM     10  C   UNL     1      11.744   7.980  17.707  0.00  0.00    +0.044 C 
ATOM     11  C   UNL     1      12.492   8.796  16.653  0.00  0.00    +0.145 C 
ENDROOT
BRANCH   7  12
ATOM      6  N   UNL     1      10.897   8.052  22.293  0.00  0.00    -0.263 NA
ATOM     12  C   UNL     1      12.058   8.474  20.214  0.00  0.00    -0.024 A 
ATOM     13  C   UNL     1      12.063   9.838  20.486  0.00  0.00    +0.007 A 
ATOM     14  C   UNL     1      11.467   7.631  21.141  0.00  0.00    +0.114 A 
ATOM     16  C   UNL     1      11.487  10.310  21.660  0.00  0.00    +0.020 A 
ATOM     18  C   UNL     1      10.922   9.384  22.522  0.00  0.00    +0.111 A 
ENDBRANCH   7  12
BRANCH   8   5
ATOM      3  O   UNL     1      15.622   9.779  20.602  0.00  0.00    -0.270 OA
ATOM      5  N   UNL     1      15.145   8.075  19.103  0.00  0.00    -0.305 N 
ATOM     15  C   UNL     1      15.885   8.686  20.106  0.00  0.00    +0.244 C 
ATOM     25  H   UNL     1      15.434   7.181  18.722  0.00  0.00    +0.149 HD
BRANCH  15  17
ATOM     17  C   UNL     1      17.088   7.949  20.568  0.00  0.00    +0.037 A 
ATOM     19  C   UNL     1      17.411   6.715  20.004  0.00  0.00    +0.016 A 
ATOM     20  C   UNL     1      17.897   8.493  21.567  0.00  0.00    +0.016 A 
ATOM     21  C   UNL     1      18.541   6.023  20.439  0.00  0.00    +0.046 A 
ATOM     22  C   UNL     1      19.028   7.801  22.002  0.00  0.00    +0.046 A 
ATOM     23  C   UNL     1      19.349   6.565  21.438  0.00  0.00    +0.120 A 
BRANCH  23   4
ATOM      4  O   UNL     1      20.453   5.890  21.863  0.00  0.00    -0.495 OA
ATOM     24  C   UNL     1      21.184   6.459  22.947  0.00  0.00    +0.277 C 
ENDBRANCH  23   4
ENDBRANCH  15  17
ENDBRANCH   8   5
BRANCH   9   1
ATOM      1  O   UNL     1      14.780   9.565  16.404  0.00  0.00    -0.387 OA
ATOM     26  H   UNL     1      15.693   9.229  16.415  0.00  0.00    +0.210 HD
ENDBRANCH   9   1
BRANCH  11   2
ATOM      2  O   UNL     1      12.128  10.165  16.795  0.00  0.00    -0.389 OA
ATOM     27  H   UNL     1      12.492  10.478  17.641  0.00  0.00    +0.210 HD
ENDBRANCH  11   2
TORSDOF 6
ENDMDL
MODEL 5
REMARK VINA RESULT:      -6.1     31.692     32.873
REMARK  Name = 75536063
REMARK  7 active torsions:
REMARK  status: ('A' for Active; 'I' for Inactive)
REMARK    1  A    between atoms: O_1  and  C_9
REMARK    2  A    between atoms: O_2  and  C_11
REMARK    3  A    between atoms: O_4  and  C_23
REMARK    4  A    between atoms: O_4  and  C_24
REMARK    5  A    between atoms: N_5  and  C_8
REMARK    6  A    between atoms: C_7  and  C_12
REMARK    7  A    between atoms: C_15  and  C_17
REMARK                            x       y       z     vdW  Elec       q    Type
REMARK                         _______ _______ _______ _____ _____    ______ ____
ROOT
ATOM      7  C   UNL     1     -15.383   3.463  28.955  0.00  0.00    +0.046 C 
ATOM      8  C   UNL     1     -16.323   4.322  29.831  0.00  0.00    +0.112 C 
ATOM      9  C   UNL     1     -17.035   5.217  28.817  0.00  0.00    +0.164 C 
ATOM     10  C   UNL     1     -16.004   3.471  27.534  0.00  0.00    +0.044 C 
ATOM     11  C   UNL     1     -17.299   4.274  27.649  0.00  0.00    +0.145 C 
ENDROOT
BRANCH   7  12
ATOM      6  N   UNL     1     -16.005  -0.121  30.035  0.00  0.00    -0.263 NA
ATOM     12  C   UNL     1     -15.143   2.080  29.523  0.00  0.00    -0.024 A 
ATOM     13  C   UNL     1     -13.904   1.723  30.043  0.00  0.00    +0.007 A 
ATOM     14  C   UNL     1     -16.152   1.130  29.543  0.00  0.00    +0.114 A 
ATOM     16  C   UNL     1     -13.713   0.446  30.558  0.00  0.00    +0.020 A 
ATOM     18  C   UNL     1     -14.786  -0.430  30.531  0.00  0.00    +0.111 A 
ENDBRANCH   7  12
BRANCH   8   5
ATOM      3  O   UNL     1     -15.871   3.609  32.576  0.00  0.00    -0.270 OA
ATOM      5  N   UNL     1     -15.598   5.089  30.811  0.00  0.00    -0.305 N 
ATOM     15  C   UNL     1     -15.429   4.662  32.121  0.00  0.00    +0.244 C 
ATOM     25  H   UNL     1     -15.226   5.983  30.509  0.00  0.00    +0.149 HD
BRANCH  15  17
ATOM     17  C   UNL     1     -14.680   5.581  33.015  0.00  0.00    +0.037 A 
ATOM     19  C   UNL     1     -14.163   6.776  32.513  0.00  0.00    +0.016 A 
ATOM     20  C   UNL     1     -14.494   5.250  34.358  0.00  0.00    +0.016 A 
ATOM     21  C   UNL     1     -13.459   7.639  33.352  0.00  0.00    +0.046 A 
ATOM     22  C   UNL     1     -13.790   6.113  35.197  0.00  0.00    +0.046 A 
ATOM     23  C   UNL     1     -13.271   7.307  34.694  0.00  0.00    +0.120 A 
BRANCH  23   4
ATOM      4  O   UNL     1     -12.584   8.149  35.514  0.00  0.00    -0.495 OA
ATOM     24  C   UNL     1     -12.058   7.597  36.719  0.00  0.00    +0.277 C 
ENDBRANCH  23   4
ENDBRANCH  15  17
ENDBRANCH   8   5
BRANCH   9   1
ATOM      1  O   UNL     1     -18.243   5.749  29.327  0.00  0.00    -0.387 OA
ATOM     26  H   UNL     1     -18.564   6.409  28.688  0.00  0.00    +0.210 HD
ENDBRANCH   9   1
BRANCH  11   2
ATOM      2  O   UNL     1     -18.366   3.379  27.946  0.00  0.00    -0.389 OA
ATOM     27  H   UNL     1     -18.735   3.074  27.100  0.00  0.00    +0.210 HD
ENDBRANCH  11   2
TORSDOF 6
ENDMDL
MODEL 6
REMARK VINA RESULT:      -5.9     26.906     28.207
REMARK  Name = 75536063
REMARK  7 active torsions:
REMARK  status: ('A' for Active; 'I' for Inactive)
REMARK    1  A    between atoms: O_1  and  C_9
REMARK    2  A    between atoms: O_2  and  C_11
REMARK    3  A    between atoms: O_4  and  C_23
REMARK    4  A    between atoms: O_4  and  C_24
REMARK    5  A    between atoms: N_5  and  C_8
REMARK    6  A    between atoms: C_7  and  C_12
REMARK    7  A    between atoms: C_15  and  C_17
REMARK                            x       y       z     vdW  Elec       q    Type
REMARK                         _______ _______ _______ _____ _____    ______ ____
ROOT
ATOM      7  C   UNL     1      -4.260 -11.716  12.627  0.00  0.00    +0.046 C 
ATOM      8  C   UNL     1      -3.589 -11.373  13.976  0.00  0.00    +0.112 C 
ATOM      9  C   UNL     1      -2.600 -12.520  14.183  0.00  0.00    +0.164 C 
ATOM     10  C   UNL     1      -3.262 -12.638  11.880  0.00  0.00    +0.044 C 
ATOM     11  C   UNL     1      -2.036 -12.747  12.785  0.00  0.00    +0.145 C 
ENDROOT
BRANCH   7  12
ATOM      6  N   UNL     1      -6.359  -8.812  11.378  0.00  0.00    -0.263 NA
ATOM     12  C   UNL     1      -4.681 -10.489  11.846  0.00  0.00    -0.024 A 
ATOM     13  C   UNL     1      -3.832  -9.912  10.907  0.00  0.00    +0.007 A 
ATOM     14  C   UNL     1      -5.922  -9.906  12.042  0.00  0.00    +0.114 A 
ATOM     16  C   UNL     1      -4.245  -8.786  10.204  0.00  0.00    +0.020 A 
ATOM     18  C   UNL     1      -5.507  -8.280  10.474  0.00  0.00    +0.111 A 
ENDBRANCH   7  12
BRANCH   8   5
ATOM      3  O   UNL     1      -3.161 -10.209  16.567  0.00  0.00    -0.270 OA
ATOM      5  N   UNL     1      -4.546 -11.287  15.050  0.00  0.00    -0.305 N 
ATOM     15  C   UNL     1      -4.248 -10.703  16.273  0.00  0.00    +0.244 C 
ATOM     25  H   UNL     1      -5.458 -11.699  14.885  0.00  0.00    +0.149 HD
BRANCH  15  17
ATOM     17  C   UNL     1      -5.334 -10.719  17.285  0.00  0.00    +0.037 A 
ATOM     19  C   UNL     1      -6.593 -10.206  16.966  0.00  0.00    +0.016 A 
ATOM     20  C   UNL     1      -5.098 -11.247  18.555  0.00  0.00    +0.016 A 
ATOM     21  C   UNL     1      -7.613 -10.221  17.916  0.00  0.00    +0.046 A 
ATOM     22  C   UNL     1      -6.119 -11.261  19.505  0.00  0.00    +0.046 A 
ATOM     23  C   UNL     1      -7.377 -10.747  19.186  0.00  0.00    +0.120 A 
BRANCH  23   4
ATOM      4  O   UNL     1      -8.373 -10.762  20.114  0.00  0.00    -0.495 OA
ATOM     24  C   UNL     1      -9.696 -11.011  19.643  0.00  0.00    +0.277 C 
ENDBRANCH  23   4
ENDBRANCH  15  17
ENDBRANCH   8   5
BRANCH   9   1
ATOM      1  O   UNL     1      -1.575 -12.185  15.100  0.00  0.00    -0.387 OA
ATOM     26  H   UNL     1      -1.626 -12.817  15.837  0.00  0.00    +0.210 HD
ENDBRANCH   9   1
BRANCH  11   2
ATOM      2  O   UNL     1      -1.116 -11.718  12.433  0.00  0.00    -0.389 OA
ATOM     27  H   UNL     1      -1.491 -11.239  11.674  0.00  0.00    +0.210 HD
ENDBRANCH  11   2
TORSDOF 6
ENDMDL
MODEL 7
REMARK VINA RESULT:      -5.9     14.698     18.206
REMARK  Name = 75536063
REMARK  7 active torsions:
REMARK  status: ('A' for Active; 'I' for Inactive)
REMARK    1  A    between atoms: O_1  and  C_9
REMARK    2  A    between atoms: O_2  and  C_11
REMARK    3  A    between atoms: O_4  and  C_23
REMARK    4  A    between atoms: O_4  and  C_24
REMARK    5  A    between atoms: N_5  and  C_8
REMARK    6  A    between atoms: C_7  and  C_12
REMARK    7  A    between atoms: C_15  and  C_17
REMARK                            x       y       z     vdW  Elec       q    Type
REMARK                         _______ _______ _______ _____ _____    ______ ____
ROOT
ATOM      7  C   UNL     1      11.329   4.700   0.496  0.00  0.00    +0.046 C 
ATOM      8  C   UNL     1      12.399   4.632   1.609  0.00  0.00    +0.112 C 
ATOM      9  C   UNL     1      13.052   3.267   1.391  0.00  0.00    +0.164 C 
ATOM     10  C   UNL     1      11.800   3.718  -0.606  0.00  0.00    +0.044 C 
ATOM     11  C   UNL     1      13.143   3.165  -0.127  0.00  0.00    +0.145 C 
ENDROOT
BRANCH   7  12
ATOM      6  N   UNL     1      11.796   8.000  -1.317  0.00  0.00    -0.263 NA
ATOM     12  C   UNL     1      11.073   6.111   0.007  0.00  0.00    -0.024 A 
ATOM     13  C   UNL     1       9.937   6.810   0.398  0.00  0.00    +0.007 A 
ATOM     14  C   UNL     1      11.964   6.745  -0.844  0.00  0.00    +0.114 A 
ATOM     16  C   UNL     1       9.729   8.104  -0.067  0.00  0.00    +0.020 A 
ATOM     18  C   UNL     1      10.680   8.649  -0.915  0.00  0.00    +0.111 A 
ENDBRANCH   7  12
BRANCH   8   5
ATOM      3  O   UNL     1      12.219   7.017   3.198  0.00  0.00    -0.270 OA
ATOM      5  N   UNL     1      11.821   4.749   2.924  0.00  0.00    -0.305 N 
ATOM     15  C   UNL     1      11.778   5.950   3.618  0.00  0.00    +0.244 C 
ATOM     25  H   UNL     1      11.459   3.899   3.342  0.00  0.00    +0.149 HD
BRANCH  15  17
ATOM     17  C   UNL     1      11.173   5.897   4.973  0.00  0.00    +0.037 A 
ATOM     19  C   UNL     1      11.725   6.647   6.013  0.00  0.00    +0.016 A 
ATOM     20  C   UNL     1      10.053   5.099   5.207  0.00  0.00    +0.016 A 
ATOM     21  C   UNL     1      11.157   6.597   7.286  0.00  0.00    +0.046 A 
ATOM     22  C   UNL     1       9.485   5.050   6.479  0.00  0.00    +0.046 A 
ATOM     23  C   UNL     1      10.037   5.798   7.520  0.00  0.00    +0.120 A 
BRANCH  23   4
ATOM      4  O   UNL     1       9.483   5.749   8.762  0.00  0.00    -0.495 OA
ATOM     24  C   UNL     1       9.385   4.468   9.380  0.00  0.00    +0.277 C 
ENDBRANCH  23   4
ENDBRANCH  15  17
ENDBRANCH   8   5
BRANCH   9   1
ATOM      1  O   UNL     1      14.333   3.184   1.987  0.00  0.00    -0.387 OA
ATOM     26  H   UNL     1      14.382   2.333   2.455  0.00  0.00    +0.210 HD
ENDBRANCH   9   1
BRANCH  11   2
ATOM      2  O   UNL     1      14.183   3.995  -0.633  0.00  0.00    -0.389 OA
ATOM     27  H   UNL     1      13.939   4.917  -0.445  0.00  0.00    +0.210 HD
ENDBRANCH  11   2
TORSDOF 6
ENDMDL
MODEL 8
REMARK VINA RESULT:      -5.8     13.496     16.847
REMARK  Name = 75536063
REMARK  7 active torsions:
REMARK  status: ('A' for Active; 'I' for Inactive)
REMARK    1  A    between atoms: O_1  and  C_9
REMARK    2  A    between atoms: O_2  and  C_11
REMARK    3  A    between atoms: O_4  and  C_23
REMARK    4  A    between atoms: O_4  and  C_24
REMARK    5  A    between atoms: N_5  and  C_8
REMARK    6  A    between atoms: C_7  and  C_12
REMARK    7  A    between atoms: C_15  and  C_17
REMARK                            x       y       z     vdW  Elec       q    Type
REMARK                         _______ _______ _______ _____ _____    ______ ____
ROOT
ATOM      7  C   UNL     1      11.695   6.224   6.660  0.00  0.00    +0.046 C 
ATOM      8  C   UNL     1      10.649   6.246   5.522  0.00  0.00    +0.112 C 
ATOM      9  C   UNL     1       9.436   5.552   6.141  0.00  0.00    +0.164 C 
ATOM     10  C   UNL     1      10.886   6.089   7.975  0.00  0.00    +0.044 C 
ATOM     11  C   UNL     1       9.414   6.098   7.563  0.00  0.00    +0.145 C 
ENDROOT
BRANCH   7  12
ATOM      6  N   UNL     1      12.971   9.788   6.922  0.00  0.00    -0.263 NA
ATOM     12  C   UNL     1      12.633   7.412   6.624  0.00  0.00    -0.024 A 
ATOM     13  C   UNL     1      13.971   7.259   6.276  0.00  0.00    +0.007 A 
ATOM     14  C   UNL     1      12.187   8.686   6.935  0.00  0.00    +0.114 A 
ATOM     16  C   UNL     1      14.809   8.368   6.251  0.00  0.00    +0.020 A 
ATOM     18  C   UNL     1      14.264   9.599   6.579  0.00  0.00    +0.111 A 
ENDBRANCH   7  12
BRANCH   8   5
ATOM      3  O   UNL     1       9.685   6.591   2.839  0.00  0.00    -0.270 OA
ATOM      5  N   UNL     1      11.118   5.561   4.344  0.00  0.00    -0.305 N 
ATOM     15  C   UNL     1      10.588   5.795   3.082  0.00  0.00    +0.244 C 
ATOM     25  H   UNL     1      11.848   4.870   4.476  0.00  0.00    +0.149 HD
BRANCH  15  17
ATOM     17  C   UNL     1      11.162   4.988   1.975  0.00  0.00    +0.037 A 
ATOM     19  C   UNL     1      10.536   4.969   0.728  0.00  0.00    +0.016 A 
ATOM     20  C   UNL     1      12.328   4.250   2.182  0.00  0.00    +0.016 A 
ATOM     21  C   UNL     1      11.075   4.211  -0.311  0.00  0.00    +0.046 A 
ATOM     22  C   UNL     1      12.867   3.492   1.143  0.00  0.00    +0.046 A 
ATOM     23  C   UNL     1      12.240   3.472  -0.104  0.00  0.00    +0.120 A 
BRANCH  23   4
ATOM      4  O   UNL     1      12.766   2.731  -1.118  0.00  0.00    -0.495 OA
ATOM     24  C   UNL     1      11.923   2.472  -2.239  0.00  0.00    +0.277 C 
ENDBRANCH  23   4
ENDBRANCH  15  17
ENDBRANCH   8   5
BRANCH   9   1
ATOM      1  O   UNL     1       8.235   5.860   5.457  0.00  0.00    -0.387 OA
ATOM     26  H   UNL     1       7.593   6.168   6.119  0.00  0.00    +0.210 HD
ENDBRANCH   9   1
BRANCH  11   2
ATOM      2  O   UNL     1       8.942   7.441   7.588  0.00  0.00    -0.389 OA
ATOM     27  H   UNL     1       8.595   7.612   8.480  0.00  0.00    +0.210 HD
ENDBRANCH  11   2
TORSDOF 6
ENDMDL
MODEL 9
REMARK VINA RESULT:      -5.7     27.531     30.453
REMARK  Name = 75536063
REMARK  7 active torsions:
REMARK  status: ('A' for Active; 'I' for Inactive)
REMARK    1  A    between atoms: O_1  and  C_9
REMARK    2  A    between atoms: O_2  and  C_11
REMARK    3  A    between atoms: O_4  and  C_23
REMARK    4  A    between atoms: O_4  and  C_24
REMARK    5  A    between atoms: N_5  and  C_8
REMARK    6  A    between atoms: C_7  and  C_12
REMARK    7  A    between atoms: C_15  and  C_17
REMARK                            x       y       z     vdW  Elec       q    Type
REMARK                         _______ _______ _______ _____ _____    ______ ____
ROOT
ATOM      7  C   UNL     1      -6.999 -10.140  18.364  0.00  0.00    +0.046 C 
ATOM      8  C   UNL     1      -7.137 -10.057  16.827  0.00  0.00    +0.112 C 
ATOM      9  C   UNL     1      -5.731  -9.682  16.363  0.00  0.00    +0.164 C 
ATOM     10  C   UNL     1      -5.495 -10.400  18.640  0.00  0.00    +0.044 C 
ATOM     11  C   UNL     1      -4.833 -10.517  17.268  0.00  0.00    +0.145 C 
ENDROOT
BRANCH   7  12
ATOM      6  N   UNL     1     -10.044 -11.634  20.064  0.00  0.00    -0.263 NA
ATOM     12  C   UNL     1      -7.932 -11.156  18.989  0.00  0.00    -0.024 A 
ATOM     13  C   UNL     1      -7.576 -12.498  19.076  0.00  0.00    +0.007 A 
ATOM     14  C   UNL     1      -9.166 -10.779  19.494  0.00  0.00    +0.114 A 
ATOM     16  C   UNL     1      -8.453 -13.408  19.656  0.00  0.00    +0.020 A 
ATOM     18  C   UNL     1      -9.664 -12.929  20.130  0.00  0.00    +0.111 A 
ENDBRANCH   7  12
BRANCH   8   5
ATOM      3  O   UNL     1      -9.820 -10.579  15.943  0.00  0.00    -0.270 OA
ATOM      5  N   UNL     1      -8.117  -9.080  16.424  0.00  0.00    -0.305 N 
ATOM     15  C   UNL     1      -9.395  -9.428  16.010  0.00  0.00    +0.244 C 
ATOM     25  H   UNL     1      -7.824  -8.109  16.432  0.00  0.00    +0.149 HD
BRANCH  15  17
ATOM     17  C   UNL     1     -10.276  -8.305  15.602  0.00  0.00    +0.037 A 
ATOM     19  C   UNL     1     -11.075  -8.423  14.464  0.00  0.00    +0.016 A 
ATOM     20  C   UNL     1     -10.305  -7.132  16.356  0.00  0.00    +0.016 A 
ATOM     21  C   UNL     1     -11.902  -7.367  14.080  0.00  0.00    +0.046 A 
ATOM     22  C   UNL     1     -11.132  -6.076  15.972  0.00  0.00    +0.046 A 
ATOM     23  C   UNL     1     -11.930  -6.194  14.833  0.00  0.00    +0.120 A 
BRANCH  23   4
ATOM      4  O   UNL     1     -12.737  -5.163  14.459  0.00  0.00    -0.495 OA
ATOM     24  C   UNL     1     -12.472  -4.555  13.197  0.00  0.00    +0.277 C 
ENDBRANCH  23   4
ENDBRANCH  15  17
ENDBRANCH   8   5
BRANCH   9   1
ATOM      1  O   UNL     1      -5.514  -9.994  14.999  0.00  0.00    -0.387 OA
ATOM     26  H   UNL     1      -4.849  -9.371  14.660  0.00  0.00    +0.210 HD
ENDBRANCH   9   1
BRANCH  11   2
ATOM      2  O   UNL     1      -4.841 -11.885  16.874  0.00  0.00    -0.389 OA
ATOM     27  H   UNL     1      -5.355 -11.949  16.050  0.00  0.00    +0.210 HD
ENDBRANCH  11   2
TORSDOF 6
ENDMDL
MODEL 10
REMARK VINA RESULT:      -5.7     26.393     28.518
REMARK  Name = 75536063
REMARK  7 active torsions:
REMARK  status: ('A' for Active; 'I' for Inactive)
REMARK    1  A    between atoms: O_1  and  C_9
REMARK    2  A    between atoms: O_2  and  C_11
REMARK    3  A    between atoms: O_4  and  C_23
REMARK    4  A    between atoms: O_4  and  C_24
REMARK    5  A    between atoms: N_5  and  C_8
REMARK    6  A    between atoms: C_7  and  C_12
REMARK    7  A    between atoms: C_15  and  C_17
REMARK                            x       y       z     vdW  Elec       q    Type
REMARK                         _______ _______ _______ _____ _____    ______ ____
ROOT
ATOM      7  C   UNL     1      -3.621 -13.237  12.426  0.00  0.00    +0.046 C 
ATOM      8  C   UNL     1      -3.043 -13.495  13.836  0.00  0.00    +0.112 C 
ATOM      9  C   UNL     1      -2.885 -15.014  13.883  0.00  0.00    +0.164 C 
ATOM     10  C   UNL     1      -3.214 -14.464  11.570  0.00  0.00    +0.044 C 
ATOM     11  C   UNL     1      -2.372 -15.352  12.487  0.00  0.00    +0.145 C 
ENDROOT
BRANCH   7  12
ATOM      6  N   UNL     1      -3.629 -10.084  10.315  0.00  0.00    -0.263 NA
ATOM     12  C   UNL     1      -3.195 -11.904  11.847  0.00  0.00    -0.024 A 
ATOM     13  C   UNL     1      -2.031 -11.276  12.275  0.00  0.00    +0.007 A 
ATOM     14  C   UNL     1      -3.952 -11.272  10.873  0.00  0.00    +0.114 A 
ATOM     16  C   UNL     1      -1.665 -10.052  11.725  0.00  0.00    +0.020 A 
ATOM     18  C   UNL     1      -2.491  -9.504  10.756  0.00  0.00    +0.111 A 
ENDBRANCH   7  12
BRANCH   8   5
ATOM      3  O   UNL     1      -2.523 -11.328  15.647  0.00  0.00    -0.270 OA
ATOM      5  N   UNL     1      -3.918 -13.013  14.875  0.00  0.00    -0.305 N 
ATOM     15  C   UNL     1      -3.579 -11.953  15.706  0.00  0.00    +0.244 C 
ATOM     25  H   UNL     1      -4.798 -13.501  14.996  0.00  0.00    +0.149 HD
BRANCH  15  17
ATOM     17  C   UNL     1      -4.578 -11.596  16.745  0.00  0.00    +0.037 A 
ATOM     19  C   UNL     1      -4.235 -11.665  18.096  0.00  0.00    +0.016 A 
ATOM     20  C   UNL     1      -5.859 -11.190  16.370  0.00  0.00    +0.016 A 
ATOM     21  C   UNL     1      -5.173 -11.329  19.072  0.00  0.00    +0.046 A 
ATOM     22  C   UNL     1      -6.797 -10.854  17.346  0.00  0.00    +0.046 A 
ATOM     23  C   UNL     1      -6.455 -10.924  18.697  0.00  0.00    +0.120 A 
BRANCH  23   4
ATOM      4  O   UNL     1      -7.371 -10.596  19.649  0.00  0.00    -0.495 OA
ATOM     24  C   UNL     1      -8.696 -11.095  19.475  0.00  0.00    +0.277 C 
ENDBRANCH  23   4
ENDBRANCH  15  17
ENDBRANCH   8   5
BRANCH   9   1
ATOM      1  O   UNL     1      -1.967 -15.428  14.878  0.00  0.00    -0.387 OA
ATOM     26  H   UNL     1      -1.390 -14.670  15.075  0.00  0.00    +0.210 HD
ENDBRANCH   9   1
BRANCH  11   2
ATOM      2  O   UNL     1      -1.004 -14.987  12.344  0.00  0.00    -0.389 OA
ATOM     27  H   UNL     1      -0.978 -14.094  11.960  0.00  0.00    +0.210 HD
ENDBRANCH  11   2
TORSDOF 6
ENDMDL
