MODEL 1
REMARK VINA RESULT:      -8.6      0.000      0.000
REMARK  Name = 40586329
REMARK  4 active torsions:
REMARK  status: ('A' for Active; 'I' for Inactive)
REMARK    1  A    between atoms: N_6  and  C_30
REMARK    2  A    between atoms: C_14  and  C_15
REMARK    3  A    between atoms: C_23  and  C_25
REMARK    4  A    between atoms: C_31  and  C_32
REMARK                            x       y       z     vdW  Elec       q    Type
REMARK                         _______ _______ _______ _____ _____    ______ ____
ROOT
ATOM      1  O   UNL     1      11.717   7.698  17.636  0.00  0.00    -0.275 OA
ATOM      2  O   UNL     1      15.224   6.033  21.315  0.00  0.00    -0.267 OA
ATOM      4  N   UNL     1      11.651   9.066  19.512  0.00  0.00    -0.300 N 
ATOM      5  N   UNL     1      13.930   7.969  21.462  0.00  0.00    -0.311 N 
ATOM      7  C   UNL     1      11.382   7.906  21.708  0.00  0.00    +0.027 C 
ATOM      8  C   UNL     1      12.547  10.069  21.606  0.00  0.00    +0.054 C 
ATOM      9  C   UNL     1      11.558   9.241  22.421  0.00  0.00    +0.018 C 
ATOM     10  C   UNL     1      10.840   8.123  20.284  0.00  0.00    +0.113 C 
ATOM     11  C   UNL     1      11.970  10.326  20.200  0.00  0.00    +0.117 C 
ATOM     12  C   UNL     1      12.725   7.164  21.706  0.00  0.00    +0.130 C 
ATOM     13  C   UNL     1      13.886   9.364  21.489  0.00  0.00    +0.027 A 
ATOM     15  C   UNL     1      11.992   8.762  18.194  0.00  0.00    +0.219 C 
ATOM     18  C   UNL     1      15.019  10.076  21.386  0.00  0.00    +0.022 A 
ATOM     21  C   UNL     1      15.140   7.263  21.311  0.00  0.00    +0.259 A 
ATOM     23  C   UNL     1      16.390   8.089  21.160  0.00  0.00    +0.047 A 
ATOM     24  C   UNL     1      16.286   9.425  21.213  0.00  0.00    +0.015 A 
ENDROOT
BRANCH  15  14
ATOM     14  C   UNL     1      12.749   9.810  17.438  0.00  0.00    +0.075 C 
ATOM     16  C   UNL     1      14.228   9.767  17.826  0.00  0.00    +0.013 C 
ATOM     17  C   UNL     1      12.556   9.588  15.937  0.00  0.00    +0.013 C 
ATOM     19  C   UNL     1      15.052  10.752  17.001  0.00  0.00    +0.001 C 
ATOM     20  C   UNL     1      13.384  10.570  15.113  0.00  0.00    +0.001 C 
ATOM     22  C   UNL     1      14.860  10.529  15.503  0.00  0.00    +0.000 C 
ENDBRANCH  15  14
BRANCH  23  25
ATOM     25  C   UNL     1      17.703   7.455  20.950  0.00  0.00    -0.013 A 
ATOM     26  C   UNL     1      17.823   6.373  20.078  0.00  0.00    +0.010 A 
ATOM     27  C   UNL     1      18.826   7.936  21.623  0.00  0.00    +0.010 A 
ATOM     28  C   UNL     1      19.066   5.773  19.878  0.00  0.00    +0.024 A 
ATOM     29  C   UNL     1      20.068   7.335  21.424  0.00  0.00    +0.024 A 
ATOM     30  C   UNL     1      20.188   6.254  20.552  0.00  0.00    +0.033 A 
BRANCH  30   6
ATOM      3  O   UNL     1      21.775   4.407  22.325  0.00  0.00    -0.276 OA
ATOM      6  N   UNL     1      21.432   5.652  20.353  0.00  0.00    -0.286 N 
ATOM     31  C   UNL     1      22.128   4.797  21.218  0.00  0.00    +0.214 C 
ATOM     32  C   UNL     1      23.447   4.360  20.630  0.00  0.00    +0.109 C 
ATOM     33  H   UNL     1      21.881   5.869  19.466  0.00  0.00    +0.155 HD
ENDBRANCH  30   6
ENDBRANCH  23  25
TORSDOF 3
ENDMDL
MODEL 2
REMARK VINA RESULT:      -7.7     26.394     29.442
REMARK  Name = 40586329
REMARK  4 active torsions:
REMARK  status: ('A' for Active; 'I' for Inactive)
REMARK    1  A    between atoms: N_6  and  C_30
REMARK    2  A    between atoms: C_14  and  C_15
REMARK    3  A    between atoms: C_23  and  C_25
REMARK    4  A    between atoms: C_31  and  C_32
REMARK                            x       y       z     vdW  Elec       q    Type
REMARK                         _______ _______ _______ _____ _____    ______ ____
ROOT
ATOM      1  O   UNL     1     -14.682  11.960  16.755  0.00  0.00    -0.275 OA
ATOM      2  O   UNL     1     -12.551   9.858  21.188  0.00  0.00    -0.267 OA
ATOM      4  N   UNL     1     -12.486  11.303  16.380  0.00  0.00    -0.300 N 
ATOM      5  N   UNL     1     -11.513   9.945  19.101  0.00  0.00    -0.311 N 
ATOM      7  C   UNL     1     -10.793  12.147  18.012  0.00  0.00    +0.027 C 
ATOM      8  C   UNL     1     -10.403  10.020  16.841  0.00  0.00    +0.054 C 
ATOM      9  C   UNL     1      -9.728  11.299  17.328  0.00  0.00    +0.018 C 
ATOM     10  C   UNL     1     -11.924  12.491  17.026  0.00  0.00    +0.113 C 
ATOM     11  C   UNL     1     -11.497  10.373  15.814  0.00  0.00    +0.117 C 
ATOM     12  C   UNL     1     -11.312  11.393  19.243  0.00  0.00    +0.130 C 
ATOM     13  C   UNL     1     -11.015   9.250  17.997  0.00  0.00    +0.027 A 
ATOM     15  C   UNL     1     -13.870  11.168  16.271  0.00  0.00    +0.219 C 
ATOM     18  C   UNL     1     -11.103   7.911  17.948  0.00  0.00    +0.022 A 
ATOM     21  C   UNL     1     -12.130   9.284  20.182  0.00  0.00    +0.259 A 
ATOM     23  C   UNL     1     -12.247   7.787  20.082  0.00  0.00    +0.047 A 
ATOM     24  C   UNL     1     -11.733   7.174  19.005  0.00  0.00    +0.015 A 
ENDROOT
BRANCH  15  14
ATOM     14  C   UNL     1     -14.371   9.971  15.522  0.00  0.00    +0.075 C 
ATOM     16  C   UNL     1     -14.680   8.837  16.500  0.00  0.00    +0.013 C 
ATOM     17  C   UNL     1     -15.606  10.365  14.711  0.00  0.00    +0.013 C 
ATOM     19  C   UNL     1     -15.291   7.633  15.786  0.00  0.00    +0.001 C 
ATOM     20  C   UNL     1     -16.218   9.161  14.002  0.00  0.00    +0.001 C 
ATOM     22  C   UNL     1     -16.524   8.027  14.978  0.00  0.00    +0.000 C 
ENDBRANCH  15  14
BRANCH  23  25
ATOM     25  C   UNL     1     -12.916   7.001  21.133  0.00  0.00    -0.013 A 
ATOM     26  C   UNL     1     -12.339   5.817  21.591  0.00  0.00    +0.010 A 
ATOM     27  C   UNL     1     -14.126   7.441  21.669  0.00  0.00    +0.010 A 
ATOM     28  C   UNL     1     -12.972   5.072  22.586  0.00  0.00    +0.024 A 
ATOM     29  C   UNL     1     -14.759   6.696  22.664  0.00  0.00    +0.024 A 
ATOM     30  C   UNL     1     -14.183   5.512  23.122  0.00  0.00    +0.033 A 
BRANCH  30   6
ATOM      3  O   UNL     1     -15.980   3.104  22.918  0.00  0.00    -0.276 OA
ATOM      6  N   UNL     1     -14.816   4.766  24.118  0.00  0.00    -0.286 N 
ATOM     31  C   UNL     1     -15.648   3.649  23.965  0.00  0.00    +0.214 C 
ATOM     32  C   UNL     1     -16.135   3.129  25.295  0.00  0.00    +0.109 C 
ATOM     33  H   UNL     1     -14.646   5.083  25.070  0.00  0.00    +0.155 HD
ENDBRANCH  30   6
ENDBRANCH  23  25
TORSDOF 3
ENDMDL
MODEL 3
REMARK VINA RESULT:      -7.5     17.327     21.082
REMARK  Name = 40586329
REMARK  4 active torsions:
REMARK  status: ('A' for Active; 'I' for Inactive)
REMARK    1  A    between atoms: N_6  and  C_30
REMARK    2  A    between atoms: C_14  and  C_15
REMARK    3  A    between atoms: C_23  and  C_25
REMARK    4  A    between atoms: C_31  and  C_32
REMARK                            x       y       z     vdW  Elec       q    Type
REMARK                         _______ _______ _______ _____ _____    ______ ____
ROOT
ATOM      1  O   UNL     1      13.103   5.970  -2.399  0.00  0.00    -0.275 OA
ATOM      2  O   UNL     1      12.192   7.775   2.553  0.00  0.00    -0.267 OA
ATOM      4  N   UNL     1      13.474   4.296  -0.832  0.00  0.00    -0.300 N 
ATOM      5  N   UNL     1      12.707   5.570   1.993  0.00  0.00    -0.311 N 
ATOM      7  C   UNL     1      14.991   4.883   1.063  0.00  0.00    +0.027 C 
ATOM      8  C   UNL     1      13.242   3.186   1.383  0.00  0.00    +0.054 C 
ATOM      9  C   UNL     1      14.692   3.535   1.706  0.00  0.00    +0.018 C 
ATOM     10  C   UNL     1      14.794   4.810  -0.461  0.00  0.00    +0.113 C 
ATOM     11  C   UNL     1      13.068   3.062  -0.144  0.00  0.00    +0.117 C 
ATOM     12  C   UNL     1      14.098   5.950   1.709  0.00  0.00    +0.130 C 
ATOM     13  C   UNL     1      12.292   4.239   1.923  0.00  0.00    +0.027 A 
ATOM     15  C   UNL     1      12.744   4.934  -1.835  0.00  0.00    +0.219 C 
ATOM     18  C   UNL     1      11.050   3.899   2.305  0.00  0.00    +0.022 A 
ATOM     21  C   UNL     1      11.853   6.596   2.445  0.00  0.00    +0.259 A 
ATOM     23  C   UNL     1      10.455   6.190   2.831  0.00  0.00    +0.047 A 
ATOM     24  C   UNL     1      10.120   4.893   2.759  0.00  0.00    +0.015 A 
ENDROOT
BRANCH  15  14
ATOM     14  C   UNL     1      11.442   4.302  -2.222  0.00  0.00    +0.075 C 
ATOM     16  C   UNL     1      10.383   5.383  -2.439  0.00  0.00    +0.013 C 
ATOM     17  C   UNL     1      11.647   3.456  -3.480  0.00  0.00    +0.013 C 
ATOM     19  C   UNL     1       9.068   4.788  -2.936  0.00  0.00    +0.001 C 
ATOM     20  C   UNL     1      10.331   2.865  -3.978  0.00  0.00    +0.001 C 
ATOM     22  C   UNL     1       9.273   3.944  -4.192  0.00  0.00    +0.000 C 
ENDBRANCH  15  14
BRANCH  23  25
ATOM     25  C   UNL     1       9.465   7.187   3.272  0.00  0.00    -0.013 A 
ATOM     26  C   UNL     1       9.098   7.258   4.615  0.00  0.00    +0.010 A 
ATOM     27  C   UNL     1       8.893   8.060   2.345  0.00  0.00    +0.010 A 
ATOM     28  C   UNL     1       8.161   8.203   5.033  0.00  0.00    +0.024 A 
ATOM     29  C   UNL     1       7.956   9.004   2.764  0.00  0.00    +0.024 A 
ATOM     30  C   UNL     1       7.589   9.075   4.107  0.00  0.00    +0.033 A 
BRANCH  30   6
ATOM      3  O   UNL     1       4.973   9.913   2.872  0.00  0.00    -0.276 OA
ATOM      6  N   UNL     1       6.651  10.020   4.526  0.00  0.00    -0.286 N 
ATOM     31  C   UNL     1       5.443  10.372   3.908  0.00  0.00    +0.214 C 
ATOM     32  C   UNL     1       4.712  11.441   4.680  0.00  0.00    +0.109 C 
ATOM     33  H   UNL     1       6.882  10.508   5.388  0.00  0.00    +0.155 HD
ENDBRANCH  30   6
ENDBRANCH  23  25
TORSDOF 3
ENDMDL
MODEL 4
REMARK VINA RESULT:      -7.5      1.802      2.418
REMARK  Name = 40586329
REMARK  4 active torsions:
REMARK  status: ('A' for Active; 'I' for Inactive)
REMARK    1  A    between atoms: N_6  and  C_30
REMARK    2  A    between atoms: C_14  and  C_15
REMARK    3  A    between atoms: C_23  and  C_25
REMARK    4  A    between atoms: C_31  and  C_32
REMARK                            x       y       z     vdW  Elec       q    Type
REMARK                         _______ _______ _______ _____ _____    ______ ____
ROOT
ATOM      1  O   UNL     1      14.194  10.578  16.288  0.00  0.00    -0.275 OA
ATOM      2  O   UNL     1      15.942   6.204  18.821  0.00  0.00    -0.267 OA
ATOM      4  N   UNL     1      13.001  10.233  18.251  0.00  0.00    -0.300 N 
ATOM      5  N   UNL     1      14.339   7.687  19.639  0.00  0.00    -0.311 N 
ATOM      7  C   UNL     1      12.032   7.952  18.561  0.00  0.00    +0.027 C 
ATOM      8  C   UNL     1      12.623   9.303  20.528  0.00  0.00    +0.054 C 
ATOM      9  C   UNL     1      11.577   8.347  19.960  0.00  0.00    +0.018 C 
ATOM     10  C   UNL     1      12.153   9.195  17.662  0.00  0.00    +0.113 C 
ATOM     11  C   UNL     1      12.698  10.568  19.651  0.00  0.00    +0.117 C 
ATOM     12  C   UNL     1      13.356   7.187  18.668  0.00  0.00    +0.130 C 
ATOM     13  C   UNL     1      13.988   8.643  20.595  0.00  0.00    +0.027 A 
ATOM     15  C   UNL     1      13.954  10.875  17.461  0.00  0.00    +0.219 C 
ATOM     18  C   UNL     1      14.865   8.995  21.548  0.00  0.00    +0.022 A 
ATOM     21  C   UNL     1      15.607   7.075  19.626  0.00  0.00    +0.259 A 
ATOM     23  C   UNL     1      16.582   7.517  20.685  0.00  0.00    +0.047 A 
ATOM     24  C   UNL     1      16.181   8.426  21.587  0.00  0.00    +0.015 A 
ENDROOT
BRANCH  15  14
ATOM     14  C   UNL     1      14.724  11.986  18.107  0.00  0.00    +0.075 C 
ATOM     16  C   UNL     1      15.912  11.414  18.882  0.00  0.00    +0.013 C 
ATOM     17  C   UNL     1      15.179  12.975  17.033  0.00  0.00    +0.013 C 
ATOM     19  C   UNL     1      16.783  12.521  19.470  0.00  0.00    +0.001 C 
ATOM     20  C   UNL     1      16.054  14.079  17.622  0.00  0.00    +0.001 C 
ATOM     22  C   UNL     1      17.237  13.507  18.398  0.00  0.00    +0.000 C 
ENDBRANCH  15  14
BRANCH  23  25
ATOM     25  C   UNL     1      17.951   6.977  20.736  0.00  0.00    -0.013 A 
ATOM     26  C   UNL     1      18.262   5.801  20.055  0.00  0.00    +0.010 A 
ATOM     27  C   UNL     1      18.937   7.642  21.467  0.00  0.00    +0.010 A 
ATOM     28  C   UNL     1      19.559   5.289  20.103  0.00  0.00    +0.024 A 
ATOM     29  C   UNL     1      20.233   7.129  21.515  0.00  0.00    +0.024 A 
ATOM     30  C   UNL     1      20.544   5.953  20.833  0.00  0.00    +0.033 A 
BRANCH  30   6
ATOM      3  O   UNL     1      21.789   3.955  22.711  0.00  0.00    -0.276 OA
ATOM      6  N   UNL     1      21.842   5.440  20.881  0.00  0.00    -0.286 N 
ATOM     31  C   UNL     1      22.370   4.507  21.783  0.00  0.00    +0.214 C 
ATOM     32  C   UNL     1      23.821   4.213  21.496  0.00  0.00    +0.109 C 
ATOM     33  H   UNL     1      22.474   5.796  20.168  0.00  0.00    +0.155 HD
ENDBRANCH  30   6
ENDBRANCH  23  25
TORSDOF 3
ENDMDL
MODEL 5
REMARK VINA RESULT:      -7.4     27.202     30.353
REMARK  Name = 40586329
REMARK  4 active torsions:
REMARK  status: ('A' for Active; 'I' for Inactive)
REMARK    1  A    between atoms: N_6  and  C_30
REMARK    2  A    between atoms: C_14  and  C_15
REMARK    3  A    between atoms: C_23  and  C_25
REMARK    4  A    between atoms: C_31  and  C_32
REMARK                            x       y       z     vdW  Elec       q    Type
REMARK                         _______ _______ _______ _____ _____    ______ ____
ROOT
ATOM      1  O   UNL     1      -4.191 -14.754  12.452  0.00  0.00    -0.275 OA
ATOM      2  O   UNL     1      -6.630 -10.323  14.192  0.00  0.00    -0.267 OA
ATOM      4  N   UNL     1      -2.642 -13.078  12.882  0.00  0.00    -0.300 N 
ATOM      5  N   UNL     1      -4.321 -10.627  14.054  0.00  0.00    -0.311 N 
ATOM      7  C   UNL     1      -3.095 -10.864  11.819  0.00  0.00    +0.027 C 
ATOM      8  C   UNL     1      -1.829 -10.968  13.923  0.00  0.00    +0.054 C 
ATOM      9  C   UNL     1      -1.907 -10.273  12.566  0.00  0.00    +0.018 C 
ATOM     10  C   UNL     1      -2.912 -12.379  11.624  0.00  0.00    +0.113 C 
ATOM     11  C   UNL     1      -1.591 -12.478  13.717  0.00  0.00    +0.117 C 
ATOM     12  C   UNL     1      -4.380 -10.533  12.589  0.00  0.00    +0.130 C 
ATOM     13  C   UNL     1      -3.102 -10.755  14.722  0.00  0.00    +0.027 A 
ATOM     15  C   UNL     1      -3.311 -14.268  13.166  0.00  0.00    +0.219 C 
ATOM     18  C   UNL     1      -3.061 -10.716  16.063  0.00  0.00    +0.022 A 
ATOM     21  C   UNL     1      -5.539 -10.471  14.746  0.00  0.00    +0.259 A 
ATOM     23  C   UNL     1      -5.466 -10.469  16.250  0.00  0.00    +0.047 A 
ATOM     24  C   UNL     1      -4.263 -10.576  16.834  0.00  0.00    +0.015 A 
ENDROOT
BRANCH  15  14
ATOM     14  C   UNL     1      -2.922 -14.972  14.429  0.00  0.00    +0.075 C 
ATOM     16  C   UNL     1      -4.174 -15.432  15.177  0.00  0.00    +0.013 C 
ATOM     17  C   UNL     1      -2.007 -16.150  14.088  0.00  0.00    +0.013 C 
ATOM     19  C   UNL     1      -3.818 -16.245  16.419  0.00  0.00    +0.001 C 
ATOM     20  C   UNL     1      -1.656 -16.965  15.330  0.00  0.00    +0.001 C 
ATOM     22  C   UNL     1      -2.906 -17.421  16.078  0.00  0.00    +0.000 C 
ENDBRANCH  15  14
BRANCH  23  25
ATOM     25  C   UNL     1      -6.682 -10.359  17.073  0.00  0.00    -0.013 A 
ATOM     26  C   UNL     1      -7.467  -9.208  17.006  0.00  0.00    +0.010 A 
ATOM     27  C   UNL     1      -7.049 -11.405  17.920  0.00  0.00    +0.010 A 
ATOM     28  C   UNL     1      -8.620  -9.103  17.785  0.00  0.00    +0.024 A 
ATOM     29  C   UNL     1      -8.200 -11.300  18.699  0.00  0.00    +0.024 A 
ATOM     30  C   UNL     1      -8.985 -10.149  18.632  0.00  0.00    +0.033 A 
BRANCH  30   6
ATOM      3  O   UNL     1     -11.890 -10.135  17.836  0.00  0.00    -0.276 OA
ATOM      6  N   UNL     1     -10.139 -10.044  19.412  0.00  0.00    -0.286 N 
ATOM     31  C   UNL     1     -11.473 -10.042  18.986  0.00  0.00    +0.214 C 
ATOM     32  C   UNL     1     -12.430  -9.910  20.145  0.00  0.00    +0.109 C 
ATOM     33  H   UNL     1      -9.978  -9.959  20.413  0.00  0.00    +0.155 HD
ENDBRANCH  30   6
ENDBRANCH  23  25
TORSDOF 3
ENDMDL
MODEL 6
REMARK VINA RESULT:      -7.1     12.522     14.657
REMARK  Name = 40586329
REMARK  4 active torsions:
REMARK  status: ('A' for Active; 'I' for Inactive)
REMARK    1  A    between atoms: N_6  and  C_30
REMARK    2  A    between atoms: C_14  and  C_15
REMARK    3  A    between atoms: C_23  and  C_25
REMARK    4  A    between atoms: C_31  and  C_32
REMARK                            x       y       z     vdW  Elec       q    Type
REMARK                         _______ _______ _______ _____ _____    ______ ____
ROOT
ATOM      1  O   UNL     1       9.144  11.138   6.462  0.00  0.00    -0.275 OA
ATOM      2  O   UNL     1      12.683   8.211   3.721  0.00  0.00    -0.267 OA
ATOM      4  N   UNL     1       8.908   8.883   6.963  0.00  0.00    -0.300 N 
ATOM      5  N   UNL     1      11.221   7.391   5.343  0.00  0.00    -0.311 N 
ATOM      7  C   UNL     1       8.683   7.342   5.010  0.00  0.00    +0.027 C 
ATOM      8  C   UNL     1       9.656   6.513   7.110  0.00  0.00    +0.054 C 
ATOM      9  C   UNL     1       8.721   6.151   5.959  0.00  0.00    +0.018 C 
ATOM     10  C   UNL     1       8.162   8.594   5.737  0.00  0.00    +0.113 C 
ATOM     11  C   UNL     1       9.096   7.736   7.865  0.00  0.00    +0.117 C 
ATOM     12  C   UNL     1      10.085   7.556   4.426  0.00  0.00    +0.130 C 
ATOM     13  C   UNL     1      11.054   6.818   6.606  0.00  0.00    +0.027 A 
ATOM     15  C   UNL     1       9.310  10.191   7.233  0.00  0.00    +0.219 C 
ATOM     18  C   UNL     1      12.123   6.565   7.377  0.00  0.00    +0.022 A 
ATOM     21  C   UNL     1      12.492   7.735   4.841  0.00  0.00    +0.259 A 
ATOM     23  C   UNL     1      13.668   7.474   5.744  0.00  0.00    +0.047 A 
ATOM     24  C   UNL     1      13.446   6.904   6.938  0.00  0.00    +0.015 A 
ENDROOT
BRANCH  15  14
ATOM     14  C   UNL     1       9.992  10.426   8.546  0.00  0.00    +0.075 C 
ATOM     16  C   UNL     1      11.306  11.177   8.323  0.00  0.00    +0.013 C 
ATOM     17  C   UNL     1       9.052  11.200   9.471  0.00  0.00    +0.013 C 
ATOM     19  C   UNL     1      11.982  11.527   9.646  0.00  0.00    +0.001 C 
ATOM     20  C   UNL     1       9.731  11.553  10.791  0.00  0.00    +0.001 C 
ATOM     22  C   UNL     1      11.043  12.301  10.569  0.00  0.00    +0.000 C 
ENDBRANCH  15  14
BRANCH  23  25
ATOM     25  C   UNL     1      15.036   7.838   5.340  0.00  0.00    -0.013 A 
ATOM     26  C   UNL     1      15.545   7.391   4.120  0.00  0.00    +0.010 A 
ATOM     27  C   UNL     1      15.825   8.629   6.176  0.00  0.00    +0.010 A 
ATOM     28  C   UNL     1      16.841   7.736   3.737  0.00  0.00    +0.024 A 
ATOM     29  C   UNL     1      17.120   8.973   5.793  0.00  0.00    +0.024 A 
ATOM     30  C   UNL     1      17.629   8.526   4.574  0.00  0.00    +0.033 A 
BRANCH  30   6
ATOM      3  O   UNL     1      20.153   6.884   4.516  0.00  0.00    -0.276 OA
ATOM      6  N   UNL     1      18.926   8.871   4.190  0.00  0.00    -0.286 N 
ATOM     31  C   UNL     1      20.070   8.062   4.184  0.00  0.00    +0.214 C 
ATOM     32  C   UNL     1      21.283   8.813   3.696  0.00  0.00    +0.109 C 
ATOM     33  H   UNL     1      19.044   9.832   3.877  0.00  0.00    +0.155 HD
ENDBRANCH  30   6
ENDBRANCH  23  25
TORSDOF 3
ENDMDL
MODEL 7
REMARK VINA RESULT:      -7.0     22.592     27.226
REMARK  Name = 40586329
REMARK  4 active torsions:
REMARK  status: ('A' for Active; 'I' for Inactive)
REMARK    1  A    between atoms: N_6  and  C_30
REMARK    2  A    between atoms: C_14  and  C_15
REMARK    3  A    between atoms: C_23  and  C_25
REMARK    4  A    between atoms: C_31  and  C_32
REMARK                            x       y       z     vdW  Elec       q    Type
REMARK                         _______ _______ _______ _____ _____    ______ ____
ROOT
ATOM      1  O   UNL     1      -2.700  12.328   2.822  0.00  0.00    -0.275 OA
ATOM      2  O   UNL     1      -6.356  10.094   6.023  0.00  0.00    -0.267 OA
ATOM      4  N   UNL     1      -1.710  10.786   4.250  0.00  0.00    -0.300 N 
ATOM      5  N   UNL     1      -4.105   9.491   5.918  0.00  0.00    -0.311 N 
ATOM      7  C   UNL     1      -2.225  11.052   6.679  0.00  0.00    +0.027 C 
ATOM      8  C   UNL     1      -1.679   8.828   5.785  0.00  0.00    +0.054 C 
ATOM      9  C   UNL     1      -1.463   9.766   6.971  0.00  0.00    +0.018 C 
ATOM     10  C   UNL     1      -1.704  11.708   5.388  0.00  0.00    +0.113 C 
ATOM     11  C   UNL     1      -1.105   9.471   4.507  0.00  0.00    +0.117 C 
ATOM     12  C   UNL     1      -3.723  10.735   6.601  0.00  0.00    +0.130 C 
ATOM     13  C   UNL     1      -3.153   8.524   5.589  0.00  0.00    +0.027 A 
ATOM     15  C   UNL     1      -2.195  11.220   3.016  0.00  0.00    +0.219 C 
ATOM     18  C   UNL     1      -3.539   7.345   5.078  0.00  0.00    +0.022 A 
ATOM     21  C   UNL     1      -5.484   9.280   5.716  0.00  0.00    +0.259 A 
ATOM     23  C   UNL     1      -5.883   7.962   5.106  0.00  0.00    +0.047 A 
ATOM     24  C   UNL     1      -4.924   7.066   4.829  0.00  0.00    +0.015 A 
ENDROOT
BRANCH  15  14
ATOM     14  C   UNL     1      -2.090  10.253   1.876  0.00  0.00    +0.075 C 
ATOM     16  C   UNL     1      -3.300  10.403   0.953  0.00  0.00    +0.013 C 
ATOM     17  C   UNL     1      -0.778  10.497   1.128  0.00  0.00    +0.013 C 
ATOM     19  C   UNL     1      -3.179   9.507  -0.277  0.00  0.00    +0.001 C 
ATOM     20  C   UNL     1      -0.662   9.604  -0.104  0.00  0.00    +0.001 C 
ATOM     22  C   UNL     1      -1.871   9.752  -1.025  0.00  0.00    +0.000 C 
ENDBRANCH  15  14
BRANCH  23  25
ATOM     25  C   UNL     1      -7.292   7.655   4.808  0.00  0.00    -0.013 A 
ATOM     26  C   UNL     1      -8.071   6.976   5.746  0.00  0.00    +0.010 A 
ATOM     27  C   UNL     1      -7.849   8.042   3.588  0.00  0.00    +0.010 A 
ATOM     28  C   UNL     1      -9.406   6.685   5.464  0.00  0.00    +0.024 A 
ATOM     29  C   UNL     1      -9.182   7.750   3.307  0.00  0.00    +0.024 A 
ATOM     30  C   UNL     1      -9.961   7.071   4.244  0.00  0.00    +0.033 A 
BRANCH  30   6
ATOM      3  O   UNL     1     -11.167   5.078   2.336  0.00  0.00    -0.276 OA
ATOM      6  N   UNL     1     -11.297   6.780   3.963  0.00  0.00    -0.286 N 
ATOM     31  C   UNL     1     -11.804   5.837   3.059  0.00  0.00    +0.214 C 
ATOM     32  C   UNL     1     -13.313   5.828   3.048  0.00  0.00    +0.109 C 
ATOM     33  H   UNL     1     -11.979   7.326   4.485  0.00  0.00    +0.155 HD
ENDBRANCH  30   6
ENDBRANCH  23  25
TORSDOF 3
ENDMDL
MODEL 8
REMARK VINA RESULT:      -7.0     22.291     25.033
REMARK  Name = 40586329
REMARK  4 active torsions:
REMARK  status: ('A' for Active; 'I' for Inactive)
REMARK    1  A    between atoms: N_6  and  C_30
REMARK    2  A    between atoms: C_14  and  C_15
REMARK    3  A    between atoms: C_23  and  C_25
REMARK    4  A    between atoms: C_31  and  C_32
REMARK                            x       y       z     vdW  Elec       q    Type
REMARK                         _______ _______ _______ _____ _____    ______ ____
ROOT
ATOM      1  O   UNL     1       7.007 -10.596  36.393  0.00  0.00    -0.275 OA
ATOM      2  O   UNL     1       9.392 -11.587  31.709  0.00  0.00    -0.267 OA
ATOM      4  N   UNL     1       7.174  -8.655  35.129  0.00  0.00    -0.300 N 
ATOM      5  N   UNL     1       8.466  -9.543  32.347  0.00  0.00    -0.311 N 
ATOM      7  C   UNL     1       9.444  -8.118  34.236  0.00  0.00    +0.027 C 
ATOM      8  C   UNL     1       7.446  -7.344  33.031  0.00  0.00    +0.054 C 
ATOM      9  C   UNL     1       8.853  -6.943  33.468  0.00  0.00    +0.018 C 
ATOM     10  C   UNL     1       8.583  -8.446  35.468  0.00  0.00    +0.113 C 
ATOM     11  C   UNL     1       6.577  -7.618  34.274  0.00  0.00    +0.117 C 
ATOM     12  C   UNL     1       9.572  -9.316  33.287  0.00  0.00    +0.130 C 
ATOM     13  C   UNL     1       7.478  -8.577  32.146  0.00  0.00    +0.027 A 
ATOM     15  C   UNL     1       6.486  -9.736  35.679  0.00  0.00    +0.219 C 
ATOM     18  C   UNL     1       6.547  -8.753  31.195  0.00  0.00    +0.022 A 
ATOM     21  C   UNL     1       8.518 -10.727  31.585  0.00  0.00    +0.259 A 
ATOM     23  C   UNL     1       7.439 -10.913  30.551  0.00  0.00    +0.047 A 
ATOM     24  C   UNL     1       6.528  -9.941  30.392  0.00  0.00    +0.015 A 
ENDROOT
BRANCH  15  14
ATOM     14  C   UNL     1       5.027  -9.837  35.357  0.00  0.00    +0.075 C 
ATOM     16  C   UNL     1       4.676 -11.275  34.973  0.00  0.00    +0.013 C 
ATOM     17  C   UNL     1       4.211  -9.362  36.561  0.00  0.00    +0.013 C 
ATOM     19  C   UNL     1       3.177 -11.443  34.738  0.00  0.00    +0.001 C 
ATOM     20  C   UNL     1       2.713  -9.535  36.326  0.00  0.00    +0.001 C 
ATOM     22  C   UNL     1       2.364 -10.970  35.940  0.00  0.00    +0.000 C 
ENDBRANCH  15  14
BRANCH  23  25
ATOM     25  C   UNL     1       7.370 -12.135  29.732  0.00  0.00    -0.013 A 
ATOM     26  C   UNL     1       6.408 -13.106  30.008  0.00  0.00    +0.010 A 
ATOM     27  C   UNL     1       8.267 -12.321  28.679  0.00  0.00    +0.010 A 
ATOM     28  C   UNL     1       6.342 -14.263  29.231  0.00  0.00    +0.024 A 
ATOM     29  C   UNL     1       8.201 -13.478  27.904  0.00  0.00    +0.024 A 
ATOM     30  C   UNL     1       7.239 -14.449  28.180  0.00  0.00    +0.033 A 
BRANCH  30   6
ATOM      3  O   UNL     1       5.825 -14.978  25.575  0.00  0.00    -0.276 OA
ATOM      6  N   UNL     1       7.174 -15.607  27.403  0.00  0.00    -0.286 N 
ATOM     31  C   UNL     1       6.496 -15.799  26.192  0.00  0.00    +0.214 C 
ATOM     32  C   UNL     1       6.673 -17.202  25.668  0.00  0.00    +0.109 C 
ATOM     33  H   UNL     1       7.685 -16.406  27.772  0.00  0.00    +0.155 HD
ENDBRANCH  30   6
ENDBRANCH  23  25
TORSDOF 3
ENDMDL
MODEL 9
REMARK VINA RESULT:      -7.0     21.478     24.468
REMARK  Name = 40586329
REMARK  4 active torsions:
REMARK  status: ('A' for Active; 'I' for Inactive)
REMARK    1  A    between atoms: N_6  and  C_30
REMARK    2  A    between atoms: C_14  and  C_15
REMARK    3  A    between atoms: C_23  and  C_25
REMARK    4  A    between atoms: C_31  and  C_32
REMARK                            x       y       z     vdW  Elec       q    Type
REMARK                         _______ _______ _______ _____ _____    ______ ____
ROOT
ATOM      1  O   UNL     1       8.812  -7.737  37.726  0.00  0.00    -0.275 OA
ATOM      2  O   UNL     1       9.389  -9.476  32.701  0.00  0.00    -0.267 OA
ATOM      4  N   UNL     1       8.417  -6.020  36.211  0.00  0.00    -0.300 N 
ATOM      5  N   UNL     1       8.659  -7.348  33.317  0.00  0.00    -0.311 N 
ATOM      7  C   UNL     1      10.183  -5.653  34.483  0.00  0.00    +0.027 C 
ATOM      8  C   UNL     1       7.850  -5.059  33.987  0.00  0.00    +0.054 C 
ATOM      9  C   UNL     1       9.298  -4.608  33.817  0.00  0.00    +0.018 C 
ATOM     10  C   UNL     1       9.842  -5.775  35.979  0.00  0.00    +0.113 C 
ATOM     11  C   UNL     1       7.502  -5.125  35.488  0.00  0.00    +0.117 C 
ATOM     12  C   UNL     1      10.018  -6.987  33.744  0.00  0.00    +0.130 C 
ATOM     13  C   UNL     1       7.619  -6.416  33.348  0.00  0.00    +0.027 A 
ATOM     15  C   UNL     1       8.028  -6.995  37.130  0.00  0.00    +0.219 C 
ATOM     18  C   UNL     1       6.418  -6.730  32.839  0.00  0.00    +0.022 A 
ATOM     21  C   UNL     1       8.489  -8.638  32.776  0.00  0.00    +0.259 A 
ATOM     23  C   UNL     1       7.120  -8.974  32.247  0.00  0.00    +0.047 A 
ATOM     24  C   UNL     1       6.167  -8.030  32.287  0.00  0.00    +0.015 A 
ENDROOT
BRANCH  15  14
ATOM     14  C   UNL     1       6.557  -7.131  37.381  0.00  0.00    +0.075 C 
ATOM     16  C   UNL     1       6.016  -8.360  36.650  0.00  0.00    +0.013 C 
ATOM     17  C   UNL     1       6.309  -7.219  38.888  0.00  0.00    +0.013 C 
ATOM     19  C   UNL     1       4.540  -8.593  36.964  0.00  0.00    +0.001 C 
ATOM     20  C   UNL     1       4.834  -7.457  39.199  0.00  0.00    +0.001 C 
ATOM     22  C   UNL     1       4.293  -8.682  38.467  0.00  0.00    +0.000 C 
ENDBRANCH  15  14
BRANCH  23  25
ATOM     25  C   UNL     1       6.819 -10.308  31.702  0.00  0.00    -0.013 A 
ATOM     26  C   UNL     1       6.328 -11.309  32.540  0.00  0.00    +0.010 A 
ATOM     27  C   UNL     1       7.024 -10.572  30.347  0.00  0.00    +0.010 A 
ATOM     28  C   UNL     1       6.043 -12.573  32.024  0.00  0.00    +0.024 A 
ATOM     29  C   UNL     1       6.740 -11.836  29.832  0.00  0.00    +0.024 A 
ATOM     30  C   UNL     1       6.249 -12.837  30.671  0.00  0.00    +0.033 A 
BRANCH  30   6
ATOM      3  O   UNL     1       3.868 -13.820  29.111  0.00  0.00    -0.276 OA
ATOM      6  N   UNL     1       5.964 -14.102  30.155  0.00  0.00    -0.286 N 
ATOM     31  C   UNL     1       4.832 -14.506  29.433  0.00  0.00    +0.214 C 
ATOM     32  C   UNL     1       4.904 -15.964  29.053  0.00  0.00    +0.109 C 
ATOM     33  H   UNL     1       6.672 -14.811  30.330  0.00  0.00    +0.155 HD
ENDBRANCH  30   6
ENDBRANCH  23  25
TORSDOF 3
ENDMDL
MODEL 10
REMARK VINA RESULT:      -6.9     28.117     31.277
REMARK  Name = 40586329
REMARK  4 active torsions:
REMARK  status: ('A' for Active; 'I' for Inactive)
REMARK    1  A    between atoms: N_6  and  C_30
REMARK    2  A    between atoms: C_14  and  C_15
REMARK    3  A    between atoms: C_23  and  C_25
REMARK    4  A    between atoms: C_31  and  C_32
REMARK                            x       y       z     vdW  Elec       q    Type
REMARK                         _______ _______ _______ _____ _____    ______ ____
ROOT
ATOM      1  O   UNL     1     -12.893 -10.494  15.163  0.00  0.00    -0.275 OA
ATOM      2  O   UNL     1      -8.649 -13.199  16.972  0.00  0.00    -0.267 OA
ATOM      4  N   UNL     1     -13.136 -10.992  17.419  0.00  0.00    -0.300 N 
ATOM      5  N   UNL     1     -10.425 -12.444  18.281  0.00  0.00    -0.311 N 
ATOM      7  C   UNL     1     -12.797 -13.383  18.058  0.00  0.00    +0.027 C 
ATOM      8  C   UNL     1     -12.335 -11.607  19.694  0.00  0.00    +0.054 C 
ATOM      9  C   UNL     1     -12.937 -13.000  19.525  0.00  0.00    +0.018 C 
ATOM     10  C   UNL     1     -13.541 -12.376  17.163  0.00  0.00    +0.113 C 
ATOM     11  C   UNL     1     -13.122 -10.597  18.835  0.00  0.00    +0.117 C 
ATOM     12  C   UNL     1     -11.306 -13.472  17.708  0.00  0.00    +0.130 C 
ATOM     13  C   UNL     1     -10.872 -11.590  19.292  0.00  0.00    +0.027 A 
ATOM     15  C   UNL     1     -12.877 -10.141  16.345  0.00  0.00    +0.219 C 
ATOM     18  C   UNL     1     -10.016 -10.742  19.884  0.00  0.00    +0.022 A 
ATOM     21  C   UNL     1      -9.088 -12.440  17.837  0.00  0.00    +0.259 A 
ATOM     23  C   UNL     1      -8.161 -11.452  18.494  0.00  0.00    +0.047 A 
ATOM     24  C   UNL     1      -8.643 -10.672  19.473  0.00  0.00    +0.015 A 
ENDROOT
BRANCH  15  14
ATOM     14  C   UNL     1     -12.554  -8.717  16.679  0.00  0.00    +0.075 C 
ATOM     16  C   UNL     1     -11.042  -8.550  16.837  0.00  0.00    +0.013 C 
ATOM     17  C   UNL     1     -13.109  -7.803  15.586  0.00  0.00    +0.013 C 
ATOM     19  C   UNL     1     -10.662  -7.091  17.077  0.00  0.00    +0.001 C 
ATOM     20  C   UNL     1     -12.724  -6.346  15.825  0.00  0.00    +0.001 C 
ATOM     22  C   UNL     1     -11.215  -6.179  15.985  0.00  0.00    +0.000 C 
ENDBRANCH  15  14
BRANCH  23  25
ATOM     25  C   UNL     1      -6.754 -11.331  18.076  0.00  0.00    -0.013 A 
ATOM     26  C   UNL     1      -5.797 -12.206  18.588  0.00  0.00    +0.010 A 
ATOM     27  C   UNL     1      -6.379 -10.340  17.168  0.00  0.00    +0.010 A 
ATOM     28  C   UNL     1      -4.464 -12.091  18.192  0.00  0.00    +0.024 A 
ATOM     29  C   UNL     1      -5.047 -10.225  16.773  0.00  0.00    +0.024 A 
ATOM     30  C   UNL     1      -4.089 -11.100  17.285  0.00  0.00    +0.033 A 
BRANCH  30   6
ATOM      3  O   UNL     1      -2.890 -10.673  14.556  0.00  0.00    -0.276 OA
ATOM      6  N   UNL     1      -2.755 -10.986  16.888  0.00  0.00    -0.286 N 
ATOM     31  C   UNL     1      -2.251 -10.787  15.596  0.00  0.00    +0.214 C 
ATOM     32  C   UNL     1      -0.745 -10.717  15.589  0.00  0.00    +0.109 C 
ATOM     33  H   UNL     1      -2.073 -11.057  17.640  0.00  0.00    +0.155 HD
ENDBRANCH  30   6
ENDBRANCH  23  25
TORSDOF 3
ENDMDL
