MODEL 1
REMARK VINA RESULT:      -6.0      0.000      0.000
REMARK  Name = 38027524
REMARK  14 active torsions:
REMARK  status: ('A' for Active; 'I' for Inactive)
REMARK    1  A    between atoms: S_1  and  N_6
REMARK    2  A    between atoms: S_1  and  C_21
REMARK    3  A    between atoms: N_6  and  C_15
REMARK    4  A    between atoms: N_7  and  C_23
REMARK    5  A    between atoms: C_8  and  C_12
REMARK    6  A    between atoms: C_9  and  C_15
REMARK    7  A    between atoms: C_11  and  C_16
REMARK    8  A    between atoms: C_12  and  C_17
REMARK    9  A    between atoms: C_12  and  C_18
REMARK   10  A    between atoms: C_13  and  C_19
REMARK   11  A    between atoms: C_16  and  C_20
REMARK   12  A    between atoms: C_21  and  C_22
REMARK   13  A    between atoms: C_22  and  C_24
REMARK   14  A    between atoms: C_23  and  C_25
REMARK                            x       y       z     vdW  Elec       q    Type
REMARK                         _______ _______ _______ _____ _____    ______ ____
ROOT
ATOM      8  C   UNL     1      -5.703 -10.590  15.256  0.00  0.00    +0.000 C 
ATOM      9  C   UNL     1      -6.547 -10.585  16.554  0.00  0.00    +0.030 C 
ATOM     10  C   UNL     1      -4.749 -11.794  15.240  0.00  0.00    +0.012 C 
ATOM     11  C   UNL     1      -3.791 -11.792  16.445  0.00  0.00    +0.023 C 
ATOM     13  C   UNL     1      -4.520 -11.524  17.745  0.00  0.00    -0.073 C 
ATOM     14  C   UNL     1      -5.757 -10.996  17.774  0.00  0.00    -0.023 C 
ATOM     19  C   UNL     1      -3.814 -11.918  19.013  0.00  0.00    +0.039 C 
ENDROOT
BRANCH   8  12
ATOM     12  C   UNL     1      -6.586 -10.611  14.003  0.00  0.00    -0.013 C 
ATOM     17  C   UNL     1      -6.697 -12.031  13.455  0.00  0.00    +0.007 C 
ATOM     18  C   UNL     1      -6.031  -9.665  12.944  0.00  0.00    +0.007 C 
ENDBRANCH   8  12
BRANCH   9  15
ATOM     15  C   UNL     1      -7.182  -9.209  16.796  0.00  0.00    +0.113 C 
BRANCH  15   6
ATOM      6  N   UNL     1      -8.208  -9.291  17.788  0.00  0.00    -0.194 NA
ATOM     31  H   UNL     1      -7.933  -9.774  18.652  0.00  0.00    +0.148 HD
BRANCH   6   1
ATOM      1  S   UNL     1      -9.859  -9.518  17.324  0.00  0.00    +0.029 S 
ATOM      4  O   UNL     1      -9.903  -9.966  15.946  0.00  0.00    -0.158 OA
ATOM      5  O   UNL     1     -10.651  -8.384  17.761  0.00  0.00    -0.158 OA
BRANCH   1  21
ATOM     21  C   UNL     1     -10.286 -10.896  18.362  0.00  0.00    +0.185 C 
BRANCH  21  22
ATOM     22  C   UNL     1      -9.376 -10.977  19.577  0.00  0.00    +0.021 C 
ATOM     24  C   UNL     1      -8.659 -12.315  19.645  0.00  0.00    +0.005 C 
ENDBRANCH  21  22
ENDBRANCH   1  21
ENDBRANCH   6   1
ENDBRANCH  15   6
ENDBRANCH   9  15
BRANCH  11  16
ATOM     16  C   UNL     1      -2.648 -10.791  16.240  0.00  0.00    +0.103 C 
BRANCH  16  20
ATOM      3  O   UNL     1      -1.137 -12.022  14.805  0.00  0.00    -0.276 OA
ATOM      7  N   UNL     1      -2.132 -10.074  14.019  0.00  0.00    -0.311 N 
ATOM     20  C   UNL     1      -1.881 -11.058  14.964  0.00  0.00    +0.214 C 
ATOM     32  H   UNL     1      -2.772  -9.317  14.240  0.00  0.00    +0.149 HD
BRANCH   7  23
ATOM     23  C   UNL     1      -1.533 -10.072  12.705  0.00  0.00    +0.139 C 
BRANCH  23  25
ATOM      2  F   UNL     1      -5.279 -11.276   8.676  0.00  0.00    -0.205 F 
ATOM     25  C   UNL     1      -2.532 -10.393  11.631  0.00  0.00    -0.030 A 
ATOM     26  C   UNL     1      -3.124 -11.656  11.583  0.00  0.00    +0.008 A 
ATOM     27  C   UNL     1      -2.868  -9.430  10.679  0.00  0.00    +0.008 A 
ATOM     28  C   UNL     1      -4.051 -11.955  10.585  0.00  0.00    +0.038 A 
ATOM     29  C   UNL     1      -3.795  -9.728   9.682  0.00  0.00    +0.038 A 
ATOM     30  C   UNL     1      -4.387 -10.990   9.634  0.00  0.00    +0.123 A 
ENDBRANCH  23  25
ENDBRANCH   7  23
ENDBRANCH  16  20
ENDBRANCH  11  16
TORSDOF 10
ENDMDL
MODEL 2
REMARK VINA RESULT:      -5.9      1.562      2.113
REMARK  Name = 38027524
REMARK  14 active torsions:
REMARK  status: ('A' for Active; 'I' for Inactive)
REMARK    1  A    between atoms: S_1  and  N_6
REMARK    2  A    between atoms: S_1  and  C_21
REMARK    3  A    between atoms: N_6  and  C_15
REMARK    4  A    between atoms: N_7  and  C_23
REMARK    5  A    between atoms: C_8  and  C_12
REMARK    6  A    between atoms: C_9  and  C_15
REMARK    7  A    between atoms: C_11  and  C_16
REMARK    8  A    between atoms: C_12  and  C_17
REMARK    9  A    between atoms: C_12  and  C_18
REMARK   10  A    between atoms: C_13  and  C_19
REMARK   11  A    between atoms: C_16  and  C_20
REMARK   12  A    between atoms: C_21  and  C_22
REMARK   13  A    between atoms: C_22  and  C_24
REMARK   14  A    between atoms: C_23  and  C_25
REMARK                            x       y       z     vdW  Elec       q    Type
REMARK                         _______ _______ _______ _____ _____    ______ ____
ROOT
ATOM      8  C   UNL     1      -6.143 -10.548  15.382  0.00  0.00    +0.000 C 
ATOM      9  C   UNL     1      -6.890 -10.505  16.738  0.00  0.00    +0.030 C 
ATOM     10  C   UNL     1      -5.221 -11.775  15.315  0.00  0.00    +0.012 C 
ATOM     11  C   UNL     1      -4.178 -11.781  16.447  0.00  0.00    +0.023 C 
ATOM     13  C   UNL     1      -4.803 -11.478  17.792  0.00  0.00    -0.073 C 
ATOM     14  C   UNL     1      -6.022 -10.920  17.903  0.00  0.00    -0.023 C 
ATOM     19  C   UNL     1      -4.016 -11.873  19.011  0.00  0.00    +0.039 C 
ENDROOT
BRANCH   8  12
ATOM     12  C   UNL     1      -7.115 -10.564  14.197  0.00  0.00    -0.013 C 
ATOM     17  C   UNL     1      -7.312 -11.990  13.691  0.00  0.00    +0.007 C 
ATOM     18  C   UNL     1      -6.609  -9.658  13.080  0.00  0.00    +0.007 C 
ENDBRANCH   8  12
BRANCH   9  15
ATOM     15  C   UNL     1      -7.473  -9.112  17.005  0.00  0.00    +0.113 C 
BRANCH  15   6
ATOM      6  N   UNL     1      -8.700  -9.206  17.731  0.00  0.00    -0.194 NA
ATOM     31  H   UNL     1      -8.699  -9.898  18.491  0.00  0.00    +0.148 HD
BRANCH   6   1
ATOM      1  S   UNL     1     -10.215  -9.026  16.917  0.00  0.00    +0.029 S 
ATOM      4  O   UNL     1     -11.264  -8.867  17.904  0.00  0.00    -0.158 OA
ATOM      5  O   UNL     1     -10.329 -10.020  15.867  0.00  0.00    -0.158 OA
BRANCH   1  21
ATOM     21  C   UNL     1      -9.960  -7.451  16.131  0.00  0.00    +0.185 C 
BRANCH  21  22
ATOM     22  C   UNL     1     -11.017  -6.444  16.552  0.00  0.00    +0.021 C 
ATOM     24  C   UNL     1     -12.110  -6.315  15.504  0.00  0.00    +0.005 C 
ENDBRANCH  21  22
ENDBRANCH   1  21
ENDBRANCH   6   1
ENDBRANCH  15   6
ENDBRANCH   9  15
BRANCH  11  16
ATOM     16  C   UNL     1      -3.029 -10.811  16.145  0.00  0.00    +0.103 C 
BRANCH  16  20
ATOM      3  O   UNL     1      -1.689 -12.244  14.728  0.00  0.00    -0.276 OA
ATOM      7  N   UNL     1      -2.383 -10.173  13.933  0.00  0.00    -0.311 N 
ATOM     20  C   UNL     1      -2.289 -11.183  14.879  0.00  0.00    +0.214 C 
ATOM     32  H   UNL     1      -2.911  -9.333  14.148  0.00  0.00    +0.149 HD
BRANCH   7  23
ATOM     23  C   UNL     1      -1.770 -10.255  12.628  0.00  0.00    +0.139 C 
BRANCH  23  25
ATOM      2  F   UNL     1      -5.601 -10.538   8.511  0.00  0.00    -0.205 F 
ATOM     25  C   UNL     1      -2.791 -10.331  11.530  0.00  0.00    -0.030 A 
ATOM     26  C   UNL     1      -3.709 -11.381  11.502  0.00  0.00    +0.008 A 
ATOM     27  C   UNL     1      -2.823  -9.351  10.538  0.00  0.00    +0.008 A 
ATOM     28  C   UNL     1      -4.657 -11.452  10.482  0.00  0.00    +0.038 A 
ATOM     29  C   UNL     1      -3.772  -9.421   9.519  0.00  0.00    +0.038 A 
ATOM     30  C   UNL     1      -4.689 -10.471   9.490  0.00  0.00    +0.123 A 
ENDBRANCH  23  25
ENDBRANCH   7  23
ENDBRANCH  16  20
ENDBRANCH  11  16
TORSDOF 10
ENDMDL
MODEL 3
REMARK VINA RESULT:      -5.9      4.433      7.590
REMARK  Name = 38027524
REMARK  14 active torsions:
REMARK  status: ('A' for Active; 'I' for Inactive)
REMARK    1  A    between atoms: S_1  and  N_6
REMARK    2  A    between atoms: S_1  and  C_21
REMARK    3  A    between atoms: N_6  and  C_15
REMARK    4  A    between atoms: N_7  and  C_23
REMARK    5  A    between atoms: C_8  and  C_12
REMARK    6  A    between atoms: C_9  and  C_15
REMARK    7  A    between atoms: C_11  and  C_16
REMARK    8  A    between atoms: C_12  and  C_17
REMARK    9  A    between atoms: C_12  and  C_18
REMARK   10  A    between atoms: C_13  and  C_19
REMARK   11  A    between atoms: C_16  and  C_20
REMARK   12  A    between atoms: C_21  and  C_22
REMARK   13  A    between atoms: C_22  and  C_24
REMARK   14  A    between atoms: C_23  and  C_25
REMARK                            x       y       z     vdW  Elec       q    Type
REMARK                         _______ _______ _______ _____ _____    ______ ____
ROOT
ATOM      8  C   UNL     1      -5.063 -10.416  10.950  0.00  0.00    +0.000 C 
ATOM      9  C   UNL     1      -4.498  -9.501   9.835  0.00  0.00    +0.030 C 
ATOM     10  C   UNL     1      -4.448 -10.049  12.309  0.00  0.00    +0.012 C 
ATOM     11  C   UNL     1      -2.913 -10.174  12.305  0.00  0.00    +0.023 C 
ATOM     13  C   UNL     1      -2.296  -9.521  11.086  0.00  0.00    -0.073 C 
ATOM     14  C   UNL     1      -3.023  -9.216   9.996  0.00  0.00    -0.023 C 
ATOM     19  C   UNL     1      -0.833  -9.185  11.163  0.00  0.00    +0.039 C 
ENDROOT
BRANCH   8  12
ATOM     12  C   UNL     1      -6.591 -10.335  11.033  0.00  0.00    -0.013 C 
ATOM     17  C   UNL     1      -7.013  -9.509  12.245  0.00  0.00    +0.007 C 
ATOM     18  C   UNL     1      -7.196 -11.733  11.094  0.00  0.00    +0.007 C 
ENDBRANCH   8  12
BRANCH   9  15
ATOM     15  C   UNL     1      -4.754 -10.099   8.446  0.00  0.00    +0.113 C 
BRANCH  15   6
ATOM      6  N   UNL     1      -5.421  -9.156   7.604  0.00  0.00    -0.194 NA
ATOM     31  H   UNL     1      -5.401  -8.186   7.943  0.00  0.00    +0.148 HD
BRANCH   6   1
ATOM      1  S   UNL     1      -6.866  -9.601   6.764  0.00  0.00    +0.029 S 
ATOM      4  O   UNL     1      -7.482 -10.721   7.446  0.00  0.00    -0.158 OA
ATOM      5  O   UNL     1      -6.608  -9.652   5.337  0.00  0.00    -0.158 OA
BRANCH   1  21
ATOM     21  C   UNL     1      -7.860  -8.159   7.072  0.00  0.00    +0.185 C 
BRANCH  21  22
ATOM     22  C   UNL     1      -7.768  -7.723   8.525  0.00  0.00    +0.021 C 
ATOM     24  C   UNL     1      -9.000  -8.142   9.309  0.00  0.00    +0.005 C 
ENDBRANCH  21  22
ENDBRANCH   1  21
ENDBRANCH   6   1
ENDBRANCH  15   6
ENDBRANCH   9  15
BRANCH  11  16
ATOM     16  C   UNL     1      -2.478 -11.640  12.423  0.00  0.00    +0.103 C 
BRANCH  16  20
ATOM      3  O   UNL     1      -2.385 -13.285  14.194  0.00  0.00    -0.276 OA
ATOM      7  N   UNL     1      -2.438 -11.025  14.733  0.00  0.00    -0.311 N 
ATOM     20  C   UNL     1      -2.427 -12.104  13.861  0.00  0.00    +0.214 C 
ATOM     32  H   UNL     1      -2.466 -10.080  14.361  0.00  0.00    +0.149 HD
BRANCH   7  23
ATOM     23  C   UNL     1      -2.398 -11.170  16.169  0.00  0.00    +0.139 C 
BRANCH  23  25
ATOM      2  F   UNL     1      -7.429 -10.237  18.522  0.00  0.00    -0.205 F 
ATOM     25  C   UNL     1      -3.740 -10.922  16.796  0.00  0.00    -0.030 A 
ATOM     26  C   UNL     1      -4.019 -11.421  18.069  0.00  0.00    +0.008 A 
ATOM     27  C   UNL     1      -4.708 -10.191  16.107  0.00  0.00    +0.008 A 
ATOM     28  C   UNL     1      -5.264 -11.192  18.652  0.00  0.00    +0.038 A 
ATOM     29  C   UNL     1      -5.953  -9.961  16.690  0.00  0.00    +0.038 A 
ATOM     30  C   UNL     1      -6.232 -10.460  17.962  0.00  0.00    +0.123 A 
ENDBRANCH  23  25
ENDBRANCH   7  23
ENDBRANCH  16  20
ENDBRANCH  11  16
TORSDOF 10
ENDMDL
MODEL 4
REMARK VINA RESULT:      -5.7      4.404      8.073
REMARK  Name = 38027524
REMARK  14 active torsions:
REMARK  status: ('A' for Active; 'I' for Inactive)
REMARK    1  A    between atoms: S_1  and  N_6
REMARK    2  A    between atoms: S_1  and  C_21
REMARK    3  A    between atoms: N_6  and  C_15
REMARK    4  A    between atoms: N_7  and  C_23
REMARK    5  A    between atoms: C_8  and  C_12
REMARK    6  A    between atoms: C_9  and  C_15
REMARK    7  A    between atoms: C_11  and  C_16
REMARK    8  A    between atoms: C_12  and  C_17
REMARK    9  A    between atoms: C_12  and  C_18
REMARK   10  A    between atoms: C_13  and  C_19
REMARK   11  A    between atoms: C_16  and  C_20
REMARK   12  A    between atoms: C_21  and  C_22
REMARK   13  A    between atoms: C_22  and  C_24
REMARK   14  A    between atoms: C_23  and  C_25
REMARK                            x       y       z     vdW  Elec       q    Type
REMARK                         _______ _______ _______ _____ _____    ______ ____
ROOT
ATOM      8  C   UNL     1      -4.930 -10.616  11.061  0.00  0.00    +0.000 C 
ATOM      9  C   UNL     1      -4.460  -9.693   9.909  0.00  0.00    +0.030 C 
ATOM     10  C   UNL     1      -4.321 -10.159  12.397  0.00  0.00    +0.012 C 
ATOM     11  C   UNL     1      -2.782 -10.162  12.365  0.00  0.00    +0.023 C 
ATOM     13  C   UNL     1      -2.242  -9.500  11.115  0.00  0.00    -0.073 C 
ATOM     14  C   UNL     1      -3.010  -9.286  10.032  0.00  0.00    -0.023 C 
ATOM     19  C   UNL     1      -0.809  -9.046  11.152  0.00  0.00    +0.039 C 
ENDROOT
BRANCH   8  12
ATOM     12  C   UNL     1      -6.457 -10.654  11.174  0.00  0.00    -0.013 C 
ATOM     17  C   UNL     1      -7.021  -9.237  11.245  0.00  0.00    +0.007 C 
ATOM     18  C   UNL     1      -6.882 -11.467  12.392  0.00  0.00    +0.007 C 
ENDBRANCH   8  12
BRANCH   9  15
ATOM     15  C   UNL     1      -4.693 -10.351   8.544  0.00  0.00    +0.113 C 
BRANCH  15   6
ATOM      6  N   UNL     1      -5.202  -9.402   7.604  0.00  0.00    -0.194 NA
ATOM     31  H   UNL     1      -5.101  -8.419   7.887  0.00  0.00    +0.148 HD
BRANCH   6   1
ATOM      1  S   UNL     1      -6.630  -9.751   6.693  0.00  0.00    +0.029 S 
ATOM      4  O   UNL     1      -6.645  -8.923   5.504  0.00  0.00    -0.158 OA
ATOM      5  O   UNL     1      -7.778  -9.797   7.579  0.00  0.00    -0.158 OA
BRANCH   1  21
ATOM     21  C   UNL     1      -6.279 -11.421   6.193  0.00  0.00    +0.185 C 
BRANCH  21  22
ATOM     22  C   UNL     1      -5.205 -11.462   5.118  0.00  0.00    +0.021 C 
ATOM     24  C   UNL     1      -5.731 -12.077   3.831  0.00  0.00    +0.005 C 
ENDBRANCH  21  22
ENDBRANCH   1  21
ENDBRANCH   6   1
ENDBRANCH  15   6
ENDBRANCH   9  15
BRANCH  11  16
ATOM     16  C   UNL     1      -2.229 -11.584  12.516  0.00  0.00    +0.103 C 
BRANCH  16  20
ATOM      3  O   UNL     1      -2.189 -13.223  14.296  0.00  0.00    -0.276 OA
ATOM      7  N   UNL     1      -2.269 -10.960  14.823  0.00  0.00    -0.311 N 
ATOM     20  C   UNL     1      -2.225 -12.043  13.957  0.00  0.00    +0.214 C 
ATOM     32  H   UNL     1      -2.288 -10.017  14.447  0.00  0.00    +0.149 HD
BRANCH   7  23
ATOM     23  C   UNL     1      -2.277 -11.100  16.261  0.00  0.00    +0.139 C 
BRANCH  23  25
ATOM      2  F   UNL     1      -7.415 -10.311  18.427  0.00  0.00    -0.205 F 
ATOM     25  C   UNL     1      -3.647 -10.890  16.838  0.00  0.00    -0.030 A 
ATOM     26  C   UNL     1      -3.963 -11.411  18.093  0.00  0.00    +0.008 A 
ATOM     27  C   UNL     1      -4.605 -10.174  16.120  0.00  0.00    +0.008 A 
ATOM     28  C   UNL     1      -5.235 -11.217  18.630  0.00  0.00    +0.038 A 
ATOM     29  C   UNL     1      -5.877  -9.979  16.657  0.00  0.00    +0.038 A 
ATOM     30  C   UNL     1      -6.193 -10.500  17.911  0.00  0.00    +0.123 A 
ENDBRANCH  23  25
ENDBRANCH   7  23
ENDBRANCH  16  20
ENDBRANCH  11  16
TORSDOF 10
ENDMDL
MODEL 5
REMARK VINA RESULT:      -5.5     20.277     23.148
REMARK  Name = 38027524
REMARK  14 active torsions:
REMARK  status: ('A' for Active; 'I' for Inactive)
REMARK    1  A    between atoms: S_1  and  N_6
REMARK    2  A    between atoms: S_1  and  C_21
REMARK    3  A    between atoms: N_6  and  C_15
REMARK    4  A    between atoms: N_7  and  C_23
REMARK    5  A    between atoms: C_8  and  C_12
REMARK    6  A    between atoms: C_9  and  C_15
REMARK    7  A    between atoms: C_11  and  C_16
REMARK    8  A    between atoms: C_12  and  C_17
REMARK    9  A    between atoms: C_12  and  C_18
REMARK   10  A    between atoms: C_13  and  C_19
REMARK   11  A    between atoms: C_16  and  C_20
REMARK   12  A    between atoms: C_21  and  C_22
REMARK   13  A    between atoms: C_22  and  C_24
REMARK   14  A    between atoms: C_23  and  C_25
REMARK                            x       y       z     vdW  Elec       q    Type
REMARK                         _______ _______ _______ _____ _____    ______ ____
ROOT
ATOM      8  C   UNL     1     -13.876   7.411  21.972  0.00  0.00    +0.000 C 
ATOM      9  C   UNL     1     -14.721   8.617  22.454  0.00  0.00    +0.030 C 
ATOM     10  C   UNL     1     -14.790   6.249  21.552  0.00  0.00    +0.012 C 
ATOM     11  C   UNL     1     -15.700   5.780  22.702  0.00  0.00    +0.023 C 
ATOM     13  C   UNL     1     -16.367   6.944  23.405  0.00  0.00    -0.073 C 
ATOM     14  C   UNL     1     -15.923   8.207  23.271  0.00  0.00    -0.023 C 
ATOM     19  C   UNL     1     -17.584   6.631  24.230  0.00  0.00    +0.039 C 
ENDROOT
BRANCH   8  12
ATOM     12  C   UNL     1     -12.953   7.790  20.810  0.00  0.00    -0.013 C 
ATOM     17  C   UNL     1     -13.706   7.712  19.485  0.00  0.00    +0.007 C 
ATOM     18  C   UNL     1     -11.725   6.887  20.789  0.00  0.00    +0.007 C 
ENDBRANCH   8  12
BRANCH   9  15
ATOM     15  C   UNL     1     -13.867   9.603  23.259  0.00  0.00    +0.113 C 
BRANCH  15   6
ATOM      6  N   UNL     1     -14.167   9.513  24.654  0.00  0.00    -0.194 NA
ATOM     31  H   UNL     1     -14.868   8.803  24.898  0.00  0.00    +0.148 HD
BRANCH   6   1
ATOM      1  S   UNL     1     -14.201  10.936  25.636  0.00  0.00    +0.029 S 
ATOM      4  O   UNL     1     -15.456  10.977  26.361  0.00  0.00    -0.158 OA
ATOM      5  O   UNL     1     -13.754  12.078  24.862  0.00  0.00    -0.158 OA
BRANCH   1  21
ATOM     21  C   UNL     1     -12.912  10.543  26.796  0.00  0.00    +0.185 C 
BRANCH  21  22
ATOM     22  C   UNL     1     -11.558  10.462  26.112  0.00  0.00    +0.021 C 
ATOM     24  C   UNL     1     -10.485   9.953  27.061  0.00  0.00    +0.005 C 
ENDBRANCH  21  22
ENDBRANCH   1  21
ENDBRANCH   6   1
ENDBRANCH  15   6
ENDBRANCH   9  15
BRANCH  11  16
ATOM     16  C   UNL     1     -14.927   4.907  23.698  0.00  0.00    +0.103 C 
BRANCH  16  20
ATOM      3  O   UNL     1     -16.082   2.834  23.224  0.00  0.00    -0.276 OA
ATOM      7  N   UNL     1     -15.855   3.542  25.427  0.00  0.00    -0.311 N 
ATOM     20  C   UNL     1     -15.681   3.646  24.054  0.00  0.00    +0.214 C 
ATOM     32  H   UNL     1     -15.479   4.262  26.036  0.00  0.00    +0.149 HD
BRANCH   7  23
ATOM     23  C   UNL     1     -16.544   2.438  26.053  0.00  0.00    +0.139 C 
BRANCH  23  25
ATOM      2  F   UNL     1     -15.487   2.151  31.577  0.00  0.00    -0.205 F 
ATOM     25  C   UNL     1     -16.262   2.361  27.526  0.00  0.00    -0.030 A 
ATOM     26  C   UNL     1     -15.891   3.510  28.226  0.00  0.00    +0.008 A 
ATOM     27  C   UNL     1     -16.370   1.142  28.195  0.00  0.00    +0.008 A 
ATOM     28  C   UNL     1     -15.628   3.439  29.594  0.00  0.00    +0.038 A 
ATOM     29  C   UNL     1     -16.108   1.071  29.562  0.00  0.00    +0.038 A 
ATOM     30  C   UNL     1     -15.737   2.219  30.262  0.00  0.00    +0.123 A 
ENDBRANCH  23  25
ENDBRANCH   7  23
ENDBRANCH  16  20
ENDBRANCH  11  16
TORSDOF 10
ENDMDL
MODEL 6
REMARK VINA RESULT:      -5.4      1.718      2.983
REMARK  Name = 38027524
REMARK  14 active torsions:
REMARK  status: ('A' for Active; 'I' for Inactive)
REMARK    1  A    between atoms: S_1  and  N_6
REMARK    2  A    between atoms: S_1  and  C_21
REMARK    3  A    between atoms: N_6  and  C_15
REMARK    4  A    between atoms: N_7  and  C_23
REMARK    5  A    between atoms: C_8  and  C_12
REMARK    6  A    between atoms: C_9  and  C_15
REMARK    7  A    between atoms: C_11  and  C_16
REMARK    8  A    between atoms: C_12  and  C_17
REMARK    9  A    between atoms: C_12  and  C_18
REMARK   10  A    between atoms: C_13  and  C_19
REMARK   11  A    between atoms: C_16  and  C_20
REMARK   12  A    between atoms: C_21  and  C_22
REMARK   13  A    between atoms: C_22  and  C_24
REMARK   14  A    between atoms: C_23  and  C_25
REMARK                            x       y       z     vdW  Elec       q    Type
REMARK                         _______ _______ _______ _____ _____    ______ ____
ROOT
ATOM      8  C   UNL     1      -6.104 -12.912  15.899  0.00  0.00    +0.000 C 
ATOM      9  C   UNL     1      -7.301 -13.013  16.878  0.00  0.00    +0.030 C 
ATOM     10  C   UNL     1      -4.776 -12.982  16.667  0.00  0.00    +0.012 C 
ATOM     11  C   UNL     1      -4.648 -11.858  17.711  0.00  0.00    +0.023 C 
ATOM     13  C   UNL     1      -5.904 -11.718  18.545  0.00  0.00    -0.073 C 
ATOM     14  C   UNL     1      -7.078 -12.252  18.163  0.00  0.00    -0.023 C 
ATOM     19  C   UNL     1      -5.772 -10.988  19.853  0.00  0.00    +0.039 C 
ENDROOT
BRANCH   8  12
ATOM     12  C   UNL     1      -6.146 -14.013  14.833  0.00  0.00    -0.013 C 
ATOM     17  C   UNL     1      -4.937 -14.934  14.973  0.00  0.00    +0.007 C 
ATOM     18  C   UNL     1      -6.203 -13.401  13.438  0.00  0.00    +0.007 C 
ENDBRANCH   8  12
BRANCH   9  15
ATOM     15  C   UNL     1      -8.598 -12.531  16.217  0.00  0.00    +0.113 C 
BRANCH  15   6
ATOM      6  N   UNL     1      -9.089 -11.354  16.862  0.00  0.00    -0.194 NA
ATOM     31  H   UNL     1      -9.980 -11.476  17.359  0.00  0.00    +0.148 HD
BRANCH   6   1
ATOM      1  S   UNL     1      -8.872  -9.800  16.134  0.00  0.00    +0.029 S 
ATOM      4  O   UNL     1      -7.808  -9.100  16.827  0.00  0.00    -0.158 OA
ATOM      5  O   UNL     1     -10.162  -9.170  15.928  0.00  0.00    -0.158 OA
BRANCH   1  21
ATOM     21  C   UNL     1      -8.258 -10.288  14.538  0.00  0.00    +0.185 C 
BRANCH  21  22
ATOM     22  C   UNL     1      -6.809  -9.870  14.351  0.00  0.00    +0.021 C 
ATOM     24  C   UNL     1      -6.472  -9.675  12.882  0.00  0.00    +0.005 C 
ENDBRANCH  21  22
ENDBRANCH   1  21
ENDBRANCH   6   1
ENDBRANCH  15   6
ENDBRANCH   9  15
BRANCH  11  16
ATOM     16  C   UNL     1      -4.278 -10.526  17.047  0.00  0.00    +0.103 C 
BRANCH  16  20
ATOM      3  O   UNL     1      -1.913 -10.900  16.699  0.00  0.00    -0.276 OA
ATOM      7  N   UNL     1      -3.272 -10.389  14.883  0.00  0.00    -0.311 N 
ATOM     20  C   UNL     1      -3.014 -10.633  16.225  0.00  0.00    +0.214 C 
ATOM     32  H   UNL     1      -4.220 -10.184  14.584  0.00  0.00    +0.149 HD
BRANCH   7  23
ATOM     23  C   UNL     1      -2.248 -10.421  13.865  0.00  0.00    +0.139 C 
BRANCH  23  25
ATOM      2  F   UNL     1      -4.097 -12.765   9.090  0.00  0.00    -0.205 F 
ATOM     25  C   UNL     1      -2.741 -11.046  12.592  0.00  0.00    -0.030 A 
ATOM     26  C   UNL     1      -3.125 -10.239  11.521  0.00  0.00    +0.008 A 
ATOM     27  C   UNL     1      -2.816 -12.435  12.479  0.00  0.00    +0.008 A 
ATOM     28  C   UNL     1      -3.584 -10.818  10.339  0.00  0.00    +0.038 A 
ATOM     29  C   UNL     1      -3.274 -13.015  11.297  0.00  0.00    +0.038 A 
ATOM     30  C   UNL     1      -3.658 -12.208  10.227  0.00  0.00    +0.123 A 
ENDBRANCH  23  25
ENDBRANCH   7  23
ENDBRANCH  16  20
ENDBRANCH  11  16
TORSDOF 10
ENDMDL
MODEL 7
REMARK VINA RESULT:      -5.4     20.745     23.765
REMARK  Name = 38027524
REMARK  14 active torsions:
REMARK  status: ('A' for Active; 'I' for Inactive)
REMARK    1  A    between atoms: S_1  and  N_6
REMARK    2  A    between atoms: S_1  and  C_21
REMARK    3  A    between atoms: N_6  and  C_15
REMARK    4  A    between atoms: N_7  and  C_23
REMARK    5  A    between atoms: C_8  and  C_12
REMARK    6  A    between atoms: C_9  and  C_15
REMARK    7  A    between atoms: C_11  and  C_16
REMARK    8  A    between atoms: C_12  and  C_17
REMARK    9  A    between atoms: C_12  and  C_18
REMARK   10  A    between atoms: C_13  and  C_19
REMARK   11  A    between atoms: C_16  and  C_20
REMARK   12  A    between atoms: C_21  and  C_22
REMARK   13  A    between atoms: C_22  and  C_24
REMARK   14  A    between atoms: C_23  and  C_25
REMARK                            x       y       z     vdW  Elec       q    Type
REMARK                         _______ _______ _______ _____ _____    ______ ____
ROOT
ATOM      8  C   UNL     1     -11.780  10.124  18.415  0.00  0.00    +0.000 C 
ATOM      9  C   UNL     1     -11.456   8.744  17.790  0.00  0.00    +0.030 C 
ATOM     10  C   UNL     1     -11.230  10.207  19.847  0.00  0.00    +0.012 C 
ATOM     11  C   UNL     1     -11.812   9.110  20.758  0.00  0.00    +0.023 C 
ATOM     13  C   UNL     1     -11.773   7.748  20.096  0.00  0.00    -0.073 C 
ATOM     14  C   UNL     1     -11.599   7.604  18.770  0.00  0.00    -0.023 C 
ATOM     19  C   UNL     1     -11.891   6.551  20.999  0.00  0.00    +0.039 C 
ENDROOT
BRANCH   8  12
ATOM     12  C   UNL     1     -11.216  11.276  17.576  0.00  0.00    -0.013 C 
ATOM     17  C   UNL     1      -9.814  10.935  17.080  0.00  0.00    +0.007 C 
ATOM     18  C   UNL     1     -11.204  12.568  18.385  0.00  0.00    +0.007 C 
ENDBRANCH   8  12
BRANCH   9  15
ATOM     15  C   UNL     1     -12.332   8.475  16.561  0.00  0.00    +0.113 C 
BRANCH  15   6
ATOM      6  N   UNL     1     -11.564   7.887  15.509  0.00  0.00    -0.194 NA
ATOM     31  H   UNL     1     -10.584   7.693  15.749  0.00  0.00    +0.148 HD
BRANCH   6   1
ATOM      1  S   UNL     1     -11.830   8.350  13.864  0.00  0.00    +0.029 S 
ATOM      4  O   UNL     1     -13.142   7.893  13.453  0.00  0.00    -0.158 OA
ATOM      5  O   UNL     1     -10.655   8.041  13.071  0.00  0.00    -0.158 OA
BRANCH   1  21
ATOM     21  C   UNL     1     -11.898  10.117  14.047  0.00  0.00    +0.185 C 
BRANCH  21  22
ATOM     22  C   UNL     1     -13.308  10.642  13.835  0.00  0.00    +0.021 C 
ATOM     24  C   UNL     1     -13.691  11.654  14.902  0.00  0.00    +0.005 C 
ENDBRANCH  21  22
ENDBRANCH   1  21
ENDBRANCH   6   1
ENDBRANCH  15   6
ENDBRANCH   9  15
BRANCH  11  16
ATOM     16  C   UNL     1     -13.235   9.461  21.206  0.00  0.00    +0.103 C 
BRANCH  16  20
ATOM      3  O   UNL     1     -13.936  11.710  21.761  0.00  0.00    -0.276 OA
ATOM      7  N   UNL     1     -12.463  10.589  23.167  0.00  0.00    -0.311 N 
ATOM     20  C   UNL     1     -13.272  10.717  22.048  0.00  0.00    +0.214 C 
ATOM     32  H   UNL     1     -11.957   9.723  23.324  0.00  0.00    +0.149 HD
BRANCH   7  23
ATOM     23  C   UNL     1     -12.304  11.636  24.149  0.00  0.00    +0.139 C 
BRANCH  23  25
ATOM      2  F   UNL     1     -11.489   9.569  29.323  0.00  0.00    -0.205 F 
ATOM     25  C   UNL     1     -12.086  11.085  25.529  0.00  0.00    -0.030 A 
ATOM     26  C   UNL     1     -13.157  10.989  26.419  0.00  0.00    +0.008 A 
ATOM     27  C   UNL     1     -10.814  10.669  25.922  0.00  0.00    +0.008 A 
ATOM     28  C   UNL     1     -12.955  10.478  27.700  0.00  0.00    +0.038 A 
ATOM     29  C   UNL     1     -10.613  10.158  27.203  0.00  0.00    +0.038 A 
ATOM     30  C   UNL     1     -11.682  10.062  28.092  0.00  0.00    +0.123 A 
ENDBRANCH  23  25
ENDBRANCH   7  23
ENDBRANCH  16  20
ENDBRANCH  11  16
TORSDOF 10
ENDMDL
MODEL 8
REMARK VINA RESULT:      -5.3     19.446     20.920
REMARK  Name = 38027524
REMARK  14 active torsions:
REMARK  status: ('A' for Active; 'I' for Inactive)
REMARK    1  A    between atoms: S_1  and  N_6
REMARK    2  A    between atoms: S_1  and  C_21
REMARK    3  A    between atoms: N_6  and  C_15
REMARK    4  A    between atoms: N_7  and  C_23
REMARK    5  A    between atoms: C_8  and  C_12
REMARK    6  A    between atoms: C_9  and  C_15
REMARK    7  A    between atoms: C_11  and  C_16
REMARK    8  A    between atoms: C_12  and  C_17
REMARK    9  A    between atoms: C_12  and  C_18
REMARK   10  A    between atoms: C_13  and  C_19
REMARK   11  A    between atoms: C_16  and  C_20
REMARK   12  A    between atoms: C_21  and  C_22
REMARK   13  A    between atoms: C_22  and  C_24
REMARK   14  A    between atoms: C_23  and  C_25
REMARK                            x       y       z     vdW  Elec       q    Type
REMARK                         _______ _______ _______ _____ _____    ______ ____
ROOT
ATOM      8  C   UNL     1     -16.222   5.924  22.490  0.00  0.00    +0.000 C 
ATOM      9  C   UNL     1     -15.291   4.708  22.727  0.00  0.00    +0.030 C 
ATOM     10  C   UNL     1     -15.863   6.625  21.171  0.00  0.00    +0.012 C 
ATOM     11  C   UNL     1     -14.404   7.116  21.151  0.00  0.00    +0.023 C 
ATOM     13  C   UNL     1     -13.443   6.049  21.633  0.00  0.00    -0.073 C 
ATOM     14  C   UNL     1     -13.860   4.973  22.324  0.00  0.00    -0.023 C 
ATOM     19  C   UNL     1     -11.996   6.222  21.263  0.00  0.00    +0.039 C 
ENDROOT
BRANCH   8  12
ATOM     12  C   UNL     1     -17.699   5.515  22.475  0.00  0.00    -0.013 C 
ATOM     17  C   UNL     1     -18.341   5.893  21.143  0.00  0.00    +0.007 C 
ATOM     18  C   UNL     1     -18.442   6.164  23.637  0.00  0.00    +0.007 C 
ENDBRANCH   8  12
BRANCH   9  15
ATOM     15  C   UNL     1     -15.335   4.256  24.192  0.00  0.00    +0.113 C 
BRANCH  15   6
ATOM      6  N   UNL     1     -15.489   2.838  24.280  0.00  0.00    -0.194 NA
ATOM     31  H   UNL     1     -15.340   2.333  23.398  0.00  0.00    +0.148 HD
BRANCH   6   1
ATOM      1  S   UNL     1     -16.692   2.150  25.315  0.00  0.00    +0.029 S 
ATOM      4  O   UNL     1     -16.516   0.712  25.352  0.00  0.00    -0.158 OA
ATOM      5  O   UNL     1     -17.987   2.731  25.014  0.00  0.00    -0.158 OA
BRANCH   1  21
ATOM     21  C   UNL     1     -16.167   2.807  26.881  0.00  0.00    +0.185 C 
BRANCH  21  22
ATOM     22  C   UNL     1     -17.113   2.400  27.998  0.00  0.00    +0.021 C 
ATOM     24  C   UNL     1     -16.531   1.275  28.837  0.00  0.00    +0.005 C 
ENDBRANCH  21  22
ENDBRANCH   1  21
ENDBRANCH   6   1
ENDBRANCH  15   6
ENDBRANCH   9  15
BRANCH  11  16
ATOM     16  C   UNL     1     -14.245   8.406  21.965  0.00  0.00    +0.103 C 
BRANCH  16  20
ATOM      3  O   UNL     1     -14.454  10.370  20.566  0.00  0.00    -0.276 OA
ATOM      7  N   UNL     1     -12.342   9.538  21.064  0.00  0.00    -0.311 N 
ATOM     20  C   UNL     1     -13.728   9.550  21.121  0.00  0.00    +0.214 C 
ATOM     32  H   UNL     1     -11.825   8.822  21.565  0.00  0.00    +0.149 HD
BRANCH   7  23
ATOM     23  C   UNL     1     -11.575  10.515  20.326  0.00  0.00    +0.139 C 
BRANCH  23  25
ATOM      2  F   UNL     1     -10.029   8.596  15.262  0.00  0.00    -0.205 F 
ATOM     25  C   UNL     1     -11.162  10.003  18.976  0.00  0.00    -0.030 A 
ATOM     26  C   UNL     1     -11.472   8.695  18.601  0.00  0.00    +0.008 A 
ATOM     27  C   UNL     1     -10.469  10.835  18.096  0.00  0.00    +0.008 A 
ATOM     28  C   UNL     1     -11.089   8.219  17.348  0.00  0.00    +0.038 A 
ATOM     29  C   UNL     1     -10.086  10.359  16.843  0.00  0.00    +0.038 A 
ATOM     30  C   UNL     1     -10.396   9.052  16.468  0.00  0.00    +0.123 A 
ENDBRANCH  23  25
ENDBRANCH   7  23
ENDBRANCH  16  20
ENDBRANCH  11  16
TORSDOF 10
ENDMDL
MODEL 9
REMARK VINA RESULT:      -5.3     24.402     26.535
REMARK  Name = 38027524
REMARK  14 active torsions:
REMARK  status: ('A' for Active; 'I' for Inactive)
REMARK    1  A    between atoms: S_1  and  N_6
REMARK    2  A    between atoms: S_1  and  C_21
REMARK    3  A    between atoms: N_6  and  C_15
REMARK    4  A    between atoms: N_7  and  C_23
REMARK    5  A    between atoms: C_8  and  C_12
REMARK    6  A    between atoms: C_9  and  C_15
REMARK    7  A    between atoms: C_11  and  C_16
REMARK    8  A    between atoms: C_12  and  C_17
REMARK    9  A    between atoms: C_12  and  C_18
REMARK   10  A    between atoms: C_13  and  C_19
REMARK   11  A    between atoms: C_16  and  C_20
REMARK   12  A    between atoms: C_21  and  C_22
REMARK   13  A    between atoms: C_22  and  C_24
REMARK   14  A    between atoms: C_23  and  C_25
REMARK                            x       y       z     vdW  Elec       q    Type
REMARK                         _______ _______ _______ _____ _____    ______ ____
ROOT
ATOM      8  C   UNL     1       8.987   8.311   3.540  0.00  0.00    +0.000 C 
ATOM      9  C   UNL     1       8.088   7.748   4.669  0.00  0.00    +0.030 C 
ATOM     10  C   UNL     1       9.457   7.179   2.614  0.00  0.00    +0.012 C 
ATOM     11  C   UNL     1      10.246   6.097   3.372  0.00  0.00    +0.023 C 
ATOM     13  C   UNL     1       9.547   5.679   4.649  0.00  0.00    -0.073 C 
ATOM     14  C   UNL     1       8.575   6.423   5.207  0.00  0.00    -0.023 C 
ATOM     19  C   UNL     1       9.957   4.362   5.247  0.00  0.00    +0.039 C 
ENDROOT
BRANCH   8  12
ATOM     12  C   UNL     1       8.265   9.386   2.721  0.00  0.00    -0.013 C 
ATOM     17  C   UNL     1       8.157   8.958   1.260  0.00  0.00    +0.007 C 
ATOM     18  C   UNL     1       8.988  10.723   2.841  0.00  0.00    +0.007 C 
ENDBRANCH   8  12
BRANCH   9  15
ATOM     15  C   UNL     1       7.956   8.750   5.822  0.00  0.00    +0.113 C 
BRANCH  15   6
ATOM      6  N   UNL     1       9.224   9.327   6.141  0.00  0.00    -0.194 NA
ATOM     31  H   UNL     1       9.828   9.514   5.331  0.00  0.00    +0.148 HD
BRANCH   6   1
ATOM      1  S   UNL     1      10.065   8.855   7.578  0.00  0.00    +0.029 S 
ATOM      4  O   UNL     1       9.422   7.683   8.136  0.00  0.00    -0.158 OA
ATOM      5  O   UNL     1      10.323  10.022   8.400  0.00  0.00    -0.158 OA
BRANCH   1  21
ATOM     21  C   UNL     1      11.617   8.347   6.876  0.00  0.00    +0.185 C 
BRANCH  21  22
ATOM     22  C   UNL     1      11.945   6.908   7.241  0.00  0.00    +0.021 C 
ATOM     24  C   UNL     1      13.440   6.645   7.176  0.00  0.00    +0.005 C 
ENDBRANCH  21  22
ENDBRANCH   1  21
ENDBRANCH   6   1
ENDBRANCH  15   6
ENDBRANCH   9  15
BRANCH  11  16
ATOM     16  C   UNL     1      11.681   6.557   3.658  0.00  0.00    +0.103 C 
BRANCH  16  20
ATOM      3  O   UNL     1      13.751   6.430   2.412  0.00  0.00    -0.276 OA
ATOM      7  N   UNL     1      12.222   4.685   2.274  0.00  0.00    -0.311 N 
ATOM     20  C   UNL     1      12.681   5.915   2.723  0.00  0.00    +0.214 C 
ATOM     32  H   UNL     1      11.323   4.337   2.594  0.00  0.00    +0.149 HD
BRANCH   7  23
ATOM     23  C   UNL     1      12.971   3.847   1.366  0.00  0.00    +0.139 C 
BRANCH  23  25
ATOM      2  F   UNL     1      10.515   3.489  -3.689  0.00  0.00    -0.205 F 
ATOM     25  C   UNL     1      12.316   3.752   0.019  0.00  0.00    -0.030 A 
ATOM     26  C   UNL     1      11.179   4.511  -0.261  0.00  0.00    +0.008 A 
ATOM     27  C   UNL     1      12.844   2.903  -0.955  0.00  0.00    +0.008 A 
ATOM     28  C   UNL     1      10.570   4.422  -1.512  0.00  0.00    +0.038 A 
ATOM     29  C   UNL     1      12.235   2.815  -2.207  0.00  0.00    +0.038 A 
ATOM     30  C   UNL     1      11.099   3.574  -2.485  0.00  0.00    +0.123 A 
ENDBRANCH  23  25
ENDBRANCH   7  23
ENDBRANCH  16  20
ENDBRANCH  11  16
TORSDOF 10
ENDMDL
MODEL 10
REMARK VINA RESULT:      -5.3     24.511     26.922
REMARK  Name = 38027524
REMARK  14 active torsions:
REMARK  status: ('A' for Active; 'I' for Inactive)
REMARK    1  A    between atoms: S_1  and  N_6
REMARK    2  A    between atoms: S_1  and  C_21
REMARK    3  A    between atoms: N_6  and  C_15
REMARK    4  A    between atoms: N_7  and  C_23
REMARK    5  A    between atoms: C_8  and  C_12
REMARK    6  A    between atoms: C_9  and  C_15
REMARK    7  A    between atoms: C_11  and  C_16
REMARK    8  A    between atoms: C_12  and  C_17
REMARK    9  A    between atoms: C_12  and  C_18
REMARK   10  A    between atoms: C_13  and  C_19
REMARK   11  A    between atoms: C_16  and  C_20
REMARK   12  A    between atoms: C_21  and  C_22
REMARK   13  A    between atoms: C_22  and  C_24
REMARK   14  A    between atoms: C_23  and  C_25
REMARK                            x       y       z     vdW  Elec       q    Type
REMARK                         _______ _______ _______ _____ _____    ______ ____
ROOT
ATOM      8  C   UNL     1       8.553   8.912   4.271  0.00  0.00    +0.000 C 
ATOM      9  C   UNL     1       8.318   9.310   5.749  0.00  0.00    +0.030 C 
ATOM     10  C   UNL     1       8.177   7.440   4.045  0.00  0.00    +0.012 C 
ATOM     11  C   UNL     1       8.989   6.488   4.941  0.00  0.00    +0.023 C 
ATOM     13  C   UNL     1       9.028   6.963   6.379  0.00  0.00    -0.073 C 
ATOM     14  C   UNL     1       8.712   8.224   6.723  0.00  0.00    -0.023 C 
ATOM     19  C   UNL     1       9.395   5.943   7.421  0.00  0.00    +0.039 C 
ENDROOT
BRANCH   8  12
ATOM     12  C   UNL     1       7.760   9.804   3.309  0.00  0.00    -0.013 C 
ATOM     17  C   UNL     1       6.319   9.953   3.788  0.00  0.00    +0.007 C 
ATOM     18  C   UNL     1       7.804   9.233   1.896  0.00  0.00    +0.007 C 
ENDBRANCH   8  12
BRANCH   9  15
ATOM     15  C   UNL     1       9.062  10.604   6.099  0.00  0.00    +0.113 C 
BRANCH  15   6
ATOM      6  N   UNL     1      10.477  10.402   6.063  0.00  0.00    -0.194 NA
ATOM     31  H   UNL     1      10.778   9.553   5.569  0.00  0.00    +0.148 HD
BRANCH   6   1
ATOM      1  S   UNL     1      11.459  10.838   7.418  0.00  0.00    +0.029 S 
ATOM      4  O   UNL     1      10.827  10.361   8.631  0.00  0.00    -0.158 OA
ATOM      5  O   UNL     1      11.878  12.222   7.294  0.00  0.00    -0.158 OA
BRANCH   1  21
ATOM     21  C   UNL     1      12.885   9.823   7.108  0.00  0.00    +0.185 C 
BRANCH  21  22
ATOM     22  C   UNL     1      12.487   8.387   6.809  0.00  0.00    +0.021 C 
ATOM     24  C   UNL     1      13.384   7.771   5.748  0.00  0.00    +0.005 C 
ENDBRANCH  21  22
ENDBRANCH   1  21
ENDBRANCH   6   1
ENDBRANCH  15   6
ENDBRANCH   9  15
BRANCH  11  16
ATOM     16  C   UNL     1      10.406   6.286   4.392  0.00  0.00    +0.103 C 
BRANCH  16  20
ATOM      3  O   UNL     1      10.333   3.891   4.733  0.00  0.00    -0.276 OA
ATOM      7  N   UNL     1      11.357   4.747   2.829  0.00  0.00    -0.311 N 
ATOM     20  C   UNL     1      10.677   4.842   4.035  0.00  0.00    +0.214 C 
ATOM     32  H   UNL     1      11.592   5.592   2.317  0.00  0.00    +0.149 HD
BRANCH   7  23
ATOM     23  C   UNL     1      11.750   3.487   2.242  0.00  0.00    +0.139 C 
BRANCH  23  25
ATOM      2  F   UNL     1      16.023   4.083  -1.376  0.00  0.00    -0.205 F 
ATOM     25  C   UNL     1      12.889   3.646   1.278  0.00  0.00    -0.030 A 
ATOM     26  C   UNL     1      14.203   3.661   1.746  0.00  0.00    +0.008 A 
ATOM     27  C   UNL     1      12.634   3.780  -0.088  0.00  0.00    +0.008 A 
ATOM     28  C   UNL     1      15.262   3.810   0.850  0.00  0.00    +0.038 A 
ATOM     29  C   UNL     1      13.692   3.928  -0.983  0.00  0.00    +0.038 A 
ATOM     30  C   UNL     1      15.006   3.942  -0.515  0.00  0.00    +0.123 A 
ENDBRANCH  23  25
ENDBRANCH   7  23
ENDBRANCH  16  20
ENDBRANCH  11  16
TORSDOF 10
ENDMDL
