MODEL 1
REMARK VINA RESULT:      -6.6      0.000      0.000
REMARK  Name = 75536064
REMARK  8 active torsions:
REMARK  status: ('A' for Active; 'I' for Inactive)
REMARK    1  A    between atoms: O_1  and  C_10
REMARK    2  A    between atoms: O_2  and  C_12
REMARK    3  A    between atoms: N_4  and  C_9
REMARK    4  A    between atoms: N_6  and  C_21
REMARK    5  A    between atoms: C_8  and  C_13
REMARK    6  A    between atoms: C_15  and  C_17
REMARK    7  A    between atoms: C_21  and  C_23
REMARK    8  A    between atoms: C_22  and  C_24
REMARK                            x       y       z     vdW  Elec       q    Type
REMARK                         _______ _______ _______ _____ _____    ______ ____
ROOT
ATOM      8  C   UNL     1      14.068   9.059  18.891  0.00  0.00    +0.046 C 
ATOM      9  C   UNL     1      12.760   8.856  19.689  0.00  0.00    +0.112 C 
ATOM     10  C   UNL     1      11.668   9.033  18.635  0.00  0.00    +0.164 C 
ATOM     11  C   UNL     1      13.712   8.748  17.414  0.00  0.00    +0.044 C 
ATOM     12  C   UNL     1      12.245   8.322  17.417  0.00  0.00    +0.145 C 
ENDROOT
BRANCH   8  13
ATOM      5  N   UNL     1      16.466   6.177  19.464  0.00  0.00    -0.263 NA
ATOM     13  C   UNL     1      15.226   8.252  19.437  0.00  0.00    -0.024 A 
ATOM     14  C   UNL     1      16.096   8.792  20.377  0.00  0.00    +0.007 A 
ATOM     16  C   UNL     1      15.452   6.951  19.016  0.00  0.00    +0.114 A 
ATOM     18  C   UNL     1      17.152   8.026  20.861  0.00  0.00    +0.020 A 
ATOM     19  C   UNL     1      17.291   6.735  20.376  0.00  0.00    +0.111 A 
ENDBRANCH   8  13
BRANCH   9   4
ATOM      3  O   UNL     1      11.849   8.316  22.359  0.00  0.00    -0.269 OA
ATOM      4  N   UNL     1      12.629   9.808  20.763  0.00  0.00    -0.304 N 
ATOM     15  C   UNL     1      12.178   9.452  22.027  0.00  0.00    +0.262 C 
ATOM     25  H   UNL     1      12.904  10.769  20.584  0.00  0.00    +0.149 HD
BRANCH  15  17
ATOM      6  N   UNL     1      13.130  11.200  23.594  0.00  0.00    -0.259 N 
ATOM      7  N   UNL     1      12.769  12.164  24.459  0.00  0.00    -0.176 NA
ATOM     17  C   UNL     1      12.076  10.555  23.017  0.00  0.00    +0.123 A 
ATOM     20  C   UNL     1      10.948  11.137  23.541  0.00  0.00    +0.057 A 
ATOM     22  C   UNL     1      11.435  12.120  24.422  0.00  0.00    +0.061 A 
ATOM     24  C   UNL     1      10.650  13.048  25.254  0.00  0.00    +0.067 C 
BRANCH   6  21
ATOM     21  C   UNL     1      14.534  10.947  23.365  0.00  0.00    +0.141 C 
ATOM     23  C   UNL     1      15.120  11.900  22.333  0.00  0.00    +0.029 C 
ENDBRANCH   6  21
ENDBRANCH  15  17
ENDBRANCH   9   4
BRANCH  10   1
ATOM      1  O   UNL     1      10.440   8.451  19.031  0.00  0.00    -0.387 OA
ATOM     26  H   UNL     1      10.082   8.991  19.757  0.00  0.00    +0.210 HD
ENDBRANCH  10   1
BRANCH  12   2
ATOM      2  O   UNL     1      12.180   6.908  17.572  0.00  0.00    -0.389 OA
ATOM     27  H   UNL     1      11.538   6.572  16.923  0.00  0.00    +0.210 HD
ENDBRANCH  12   2
TORSDOF 6
ENDMDL
MODEL 2
REMARK VINA RESULT:      -6.6      2.243      6.174
REMARK  Name = 75536064
REMARK  8 active torsions:
REMARK  status: ('A' for Active; 'I' for Inactive)
REMARK    1  A    between atoms: O_1  and  C_10
REMARK    2  A    between atoms: O_2  and  C_12
REMARK    3  A    between atoms: N_4  and  C_9
REMARK    4  A    between atoms: N_6  and  C_21
REMARK    5  A    between atoms: C_8  and  C_13
REMARK    6  A    between atoms: C_15  and  C_17
REMARK    7  A    between atoms: C_21  and  C_23
REMARK    8  A    between atoms: C_22  and  C_24
REMARK                            x       y       z     vdW  Elec       q    Type
REMARK                         _______ _______ _______ _____ _____    ______ ____
ROOT
ATOM      8  C   UNL     1      12.597   8.828  22.171  0.00  0.00    +0.046 C 
ATOM      9  C   UNL     1      13.096   8.048  20.933  0.00  0.00    +0.112 C 
ATOM     10  C   UNL     1      12.219   6.796  20.925  0.00  0.00    +0.164 C 
ATOM     11  C   UNL     1      11.152   8.327  22.431  0.00  0.00    +0.044 C 
ATOM     12  C   UNL     1      10.847   7.332  21.313  0.00  0.00    +0.145 C 
ENDROOT
BRANCH   8  13
ATOM      5  N   UNL     1      14.026  12.339  22.319  0.00  0.00    -0.263 NA
ATOM     13  C   UNL     1      12.718  10.329  22.013  0.00  0.00    -0.024 A 
ATOM     14  C   UNL     1      11.691  11.075  21.446  0.00  0.00    +0.007 A 
ATOM     16  C   UNL     1      13.854  11.002  22.430  0.00  0.00    +0.114 A 
ATOM     18  C   UNL     1      11.831  12.453  21.314  0.00  0.00    +0.020 A 
ATOM     19  C   UNL     1      13.007  13.031  21.762  0.00  0.00    +0.111 A 
ENDBRANCH   8  13
BRANCH   9   4
ATOM      3  O   UNL     1      14.933   7.721  18.750  0.00  0.00    -0.269 OA
ATOM      4  N   UNL     1      14.496   7.723  21.028  0.00  0.00    -0.304 N 
ATOM     15  C   UNL     1      15.309   7.585  19.911  0.00  0.00    +0.262 C 
ATOM     25  H   UNL     1      14.900   7.617  21.955  0.00  0.00    +0.149 HD
BRANCH  15  17
ATOM      6  N   UNL     1      17.639   8.014  20.809  0.00  0.00    -0.259 N 
ATOM      7  N   UNL     1      18.855   7.452  20.924  0.00  0.00    -0.176 NA
ATOM     17  C   UNL     1      16.725   7.222  20.177  0.00  0.00    +0.123 A 
ATOM     20  C   UNL     1      17.390   6.064  19.857  0.00  0.00    +0.057 A 
ATOM     22  C   UNL     1      18.696   6.262  20.342  0.00  0.00    +0.061 A 
ATOM     24  C   UNL     1      19.831   5.327  20.266  0.00  0.00    +0.067 C 
BRANCH   6  21
ATOM     21  C   UNL     1      17.421   9.340  21.338  0.00  0.00    +0.141 C 
ATOM     23  C   UNL     1      18.715   9.977  21.821  0.00  0.00    +0.029 C 
ENDBRANCH   6  21
ENDBRANCH  15  17
ENDBRANCH   9   4
BRANCH  10   1
ATOM      1  O   UNL     1      12.184   6.175  19.654  0.00  0.00    -0.387 OA
ATOM     26  H   UNL     1      11.285   6.283  19.300  0.00  0.00    +0.210 HD
ENDBRANCH  10   1
BRANCH  12   2
ATOM      2  O   UNL     1      10.247   8.034  20.228  0.00  0.00    -0.389 OA
ATOM     27  H   UNL     1      10.966   8.410  19.691  0.00  0.00    +0.210 HD
ENDBRANCH  12   2
TORSDOF 6
ENDMDL
MODEL 3
REMARK VINA RESULT:      -6.5      2.991      5.973
REMARK  Name = 75536064
REMARK  8 active torsions:
REMARK  status: ('A' for Active; 'I' for Inactive)
REMARK    1  A    between atoms: O_1  and  C_10
REMARK    2  A    between atoms: O_2  and  C_12
REMARK    3  A    between atoms: N_4  and  C_9
REMARK    4  A    between atoms: N_6  and  C_21
REMARK    5  A    between atoms: C_8  and  C_13
REMARK    6  A    between atoms: C_15  and  C_17
REMARK    7  A    between atoms: C_21  and  C_23
REMARK    8  A    between atoms: C_22  and  C_24
REMARK                            x       y       z     vdW  Elec       q    Type
REMARK                         _______ _______ _______ _____ _____    ______ ____
ROOT
ATOM      8  C   UNL     1      12.971   9.236  19.931  0.00  0.00    +0.046 C 
ATOM      9  C   UNL     1      13.242   7.769  20.339  0.00  0.00    +0.112 C 
ATOM     10  C   UNL     1      12.407   7.592  21.606  0.00  0.00    +0.164 C 
ATOM     11  C   UNL     1      11.613   9.610  20.581  0.00  0.00    +0.044 C 
ATOM     12  C   UNL     1      11.122   8.345  21.282  0.00  0.00    +0.145 C 
ENDROOT
BRANCH   8  13
ATOM      5  N   UNL     1      12.216   8.880  16.232  0.00  0.00    -0.263 NA
ATOM     13  C   UNL     1      13.028   9.454  18.435  0.00  0.00    -0.024 A 
ATOM     14  C   UNL     1      13.899  10.384  17.879  0.00  0.00    +0.007 A 
ATOM     16  C   UNL     1      12.215   8.733  17.576  0.00  0.00    +0.114 A 
ATOM     18  C   UNL     1      13.930  10.563  16.499  0.00  0.00    +0.020 A 
ATOM     19  C   UNL     1      13.075   9.792  15.728  0.00  0.00    +0.111 A 
ENDBRANCH   8  13
BRANCH   9   4
ATOM      3  O   UNL     1      15.202   6.972  18.397  0.00  0.00    -0.269 OA
ATOM      4  N   UNL     1      14.642   7.525  20.579  0.00  0.00    -0.304 N 
ATOM     15  C   UNL     1      15.518   7.142  19.572  0.00  0.00    +0.262 C 
ATOM     25  H   UNL     1      14.996   7.666  21.521  0.00  0.00    +0.149 HD
BRANCH  15  17
ATOM      6  N   UNL     1      17.704   7.785  20.678  0.00  0.00    -0.259 N 
ATOM      7  N   UNL     1      18.943   7.329  20.932  0.00  0.00    -0.176 NA
ATOM     17  C   UNL     1      16.924   6.904  19.988  0.00  0.00    +0.123 A 
ATOM     20  C   UNL     1      17.707   5.796  19.776  0.00  0.00    +0.057 A 
ATOM     22  C   UNL     1      18.938   6.114  20.378  0.00  0.00    +0.061 A 
ATOM     24  C   UNL     1      20.146   5.274  20.447  0.00  0.00    +0.067 C 
BRANCH   6  21
ATOM     21  C   UNL     1      17.329   9.103  21.137  0.00  0.00    +0.141 C 
ATOM     23  C   UNL     1      18.495   9.826  21.795  0.00  0.00    +0.029 C 
ENDBRANCH   6  21
ENDBRANCH  15  17
ENDBRANCH   9   4
BRANCH  10   1
ATOM      1  O   UNL     1      12.144   6.231  21.889  0.00  0.00    -0.387 OA
ATOM     26  H   UNL     1      11.284   6.187  22.342  0.00  0.00    +0.210 HD
ENDBRANCH  10   1
BRANCH  12   2
ATOM      2  O   UNL     1      10.312   7.604  20.374  0.00  0.00    -0.389 OA
ATOM     27  H   UNL     1      10.809   7.520  19.542  0.00  0.00    +0.210 HD
ENDBRANCH  12   2
TORSDOF 6
ENDMDL
MODEL 4
REMARK VINA RESULT:      -6.3      1.519      1.832
REMARK  Name = 75536064
REMARK  8 active torsions:
REMARK  status: ('A' for Active; 'I' for Inactive)
REMARK    1  A    between atoms: O_1  and  C_10
REMARK    2  A    between atoms: O_2  and  C_12
REMARK    3  A    between atoms: N_4  and  C_9
REMARK    4  A    between atoms: N_6  and  C_21
REMARK    5  A    between atoms: C_8  and  C_13
REMARK    6  A    between atoms: C_15  and  C_17
REMARK    7  A    between atoms: C_21  and  C_23
REMARK    8  A    between atoms: C_22  and  C_24
REMARK                            x       y       z     vdW  Elec       q    Type
REMARK                         _______ _______ _______ _____ _____    ______ ____
ROOT
ATOM      8  C   UNL     1      14.036   9.081  19.059  0.00  0.00    +0.046 C 
ATOM      9  C   UNL     1      12.640   8.937  19.707  0.00  0.00    +0.112 C 
ATOM     10  C   UNL     1      11.683   9.047  18.521  0.00  0.00    +0.164 C 
ATOM     11  C   UNL     1      13.854   8.673  17.573  0.00  0.00    +0.044 C 
ATOM     12  C   UNL     1      12.392   8.254  17.430  0.00  0.00    +0.145 C 
ENDROOT
BRANCH   8  13
ATOM      5  N   UNL     1      17.142   8.331  21.102  0.00  0.00    -0.263 NA
ATOM     13  C   UNL     1      15.111   8.308  19.791  0.00  0.00    -0.024 A 
ATOM     14  C   UNL     1      15.087   6.918  19.841  0.00  0.00    +0.007 A 
ATOM     16  C   UNL     1      16.151   8.961  20.432  0.00  0.00    +0.114 A 
ATOM     18  C   UNL     1      16.089   6.234  20.522  0.00  0.00    +0.020 A 
ATOM     19  C   UNL     1      17.085   6.982  21.130  0.00  0.00    +0.111 A 
ENDBRANCH   8  13
BRANCH   9   4
ATOM      3  O   UNL     1      10.595   8.921  21.724  0.00  0.00    -0.269 OA
ATOM      4  N   UNL     1      12.395   9.960  20.692  0.00  0.00    -0.304 N 
ATOM     15  C   UNL     1      11.377   9.864  21.633  0.00  0.00    +0.262 C 
ATOM     25  H   UNL     1      13.011  10.767  20.706  0.00  0.00    +0.149 HD
BRANCH  15  17
ATOM      6  N   UNL     1      11.371  12.328  22.220  0.00  0.00    -0.259 N 
ATOM      7  N   UNL     1      11.198  13.177  23.248  0.00  0.00    -0.176 NA
ATOM     17  C   UNL     1      11.239  11.014  22.562  0.00  0.00    +0.123 A 
ATOM     20  C   UNL     1      10.960  11.003  23.907  0.00  0.00    +0.057 A 
ATOM     22  C   UNL     1      10.948  12.362  24.275  0.00  0.00    +0.061 A 
ATOM     24  C   UNL     1      10.697  12.926  25.612  0.00  0.00    +0.067 C 
BRANCH   6  21
ATOM     21  C   UNL     1      11.666  12.858  20.909  0.00  0.00    +0.141 C 
ATOM     23  C   UNL     1      11.463  14.364  20.848  0.00  0.00    +0.029 C 
ENDBRANCH   6  21
ENDBRANCH  15  17
ENDBRANCH   9   4
BRANCH  10   1
ATOM      1  O   UNL     1      10.410   8.499  18.806  0.00  0.00    -0.387 OA
ATOM     26  H   UNL     1       9.745   9.169  18.574  0.00  0.00    +0.210 HD
ENDBRANCH  10   1
BRANCH  12   2
ATOM      2  O   UNL     1      12.292   6.854  17.670  0.00  0.00    -0.389 OA
ATOM     27  H   UNL     1      12.749   6.399  16.942  0.00  0.00    +0.210 HD
ENDBRANCH  12   2
TORSDOF 6
ENDMDL
MODEL 5
REMARK VINA RESULT:      -6.0     26.556     28.914
REMARK  Name = 75536064
REMARK  8 active torsions:
REMARK  status: ('A' for Active; 'I' for Inactive)
REMARK    1  A    between atoms: O_1  and  C_10
REMARK    2  A    between atoms: O_2  and  C_12
REMARK    3  A    between atoms: N_4  and  C_9
REMARK    4  A    between atoms: N_6  and  C_21
REMARK    5  A    between atoms: C_8  and  C_13
REMARK    6  A    between atoms: C_15  and  C_17
REMARK    7  A    between atoms: C_21  and  C_23
REMARK    8  A    between atoms: C_22  and  C_24
REMARK                            x       y       z     vdW  Elec       q    Type
REMARK                         _______ _______ _______ _____ _____    ______ ____
ROOT
ATOM      8  C   UNL     1      -6.513 -10.170  17.637  0.00  0.00    +0.046 C 
ATOM      9  C   UNL     1      -5.754 -11.339  16.969  0.00  0.00    +0.112 C 
ATOM     10  C   UNL     1      -4.874 -11.881  18.095  0.00  0.00    +0.164 C 
ATOM     11  C   UNL     1      -6.496 -10.471  19.158  0.00  0.00    +0.044 C 
ATOM     12  C   UNL     1      -5.790 -11.816  19.311  0.00  0.00    +0.145 C 
ENDROOT
BRANCH   8  13
ATOM      5  N   UNL     1      -9.819 -10.866  15.912  0.00  0.00    -0.263 NA
ATOM     13  C   UNL     1      -7.895  -9.955  17.059  0.00  0.00    -0.024 A 
ATOM     14  C   UNL     1      -8.514  -8.712  17.124  0.00  0.00    +0.007 A 
ATOM     16  C   UNL     1      -8.583 -10.991  16.448  0.00  0.00    +0.114 A 
ATOM     18  C   UNL     1      -9.786  -8.545  16.584  0.00  0.00    +0.020 A 
ATOM     19  C   UNL     1     -10.389  -9.644  15.995  0.00  0.00    +0.111 A 
ENDBRANCH   8  13
BRANCH   9   4
ATOM      3  O   UNL     1      -4.909 -12.944  14.742  0.00  0.00    -0.269 OA
ATOM      4  N   UNL     1      -4.973 -10.901  15.840  0.00  0.00    -0.304 N 
ATOM     15  C   UNL     1      -4.611 -11.754  14.805  0.00  0.00    +0.262 C 
ATOM     25  H   UNL     1      -4.702  -9.923  15.798  0.00  0.00    +0.149 HD
BRANCH  15  17
ATOM      6  N   UNL     1      -2.425 -11.025  13.753  0.00  0.00    -0.259 N 
ATOM      7  N   UNL     1      -1.914 -10.448  12.651  0.00  0.00    -0.176 NA
ATOM     17  C   UNL     1      -3.783 -11.155  13.727  0.00  0.00    +0.123 A 
ATOM     20  C   UNL     1      -4.187 -10.626  12.526  0.00  0.00    +0.057 A 
ATOM     22  C   UNL     1      -2.995 -10.206  11.907  0.00  0.00    +0.061 A 
ATOM     24  C   UNL     1      -2.847  -9.565  10.589  0.00  0.00    +0.067 C 
BRANCH   6  21
ATOM     21  C   UNL     1      -1.534 -11.436  14.813  0.00  0.00    +0.141 C 
ATOM     23  C   UNL     1      -1.140 -10.269  15.706  0.00  0.00    +0.029 C 
ENDBRANCH   6  21
ENDBRANCH  15  17
ENDBRANCH   9   4
BRANCH  10   1
ATOM      1  O   UNL     1      -4.445 -13.207  17.849  0.00  0.00    -0.387 OA
ATOM     26  H   UNL     1      -3.473 -13.200  17.825  0.00  0.00    +0.210 HD
ENDBRANCH  10   1
BRANCH  12   2
ATOM      2  O   UNL     1      -6.766 -12.852  19.271  0.00  0.00    -0.389 OA
ATOM     27  H   UNL     1      -6.627 -13.353  18.448  0.00  0.00    +0.210 HD
ENDBRANCH  12   2
TORSDOF 6
ENDMDL
MODEL 6
REMARK VINA RESULT:      -6.0      1.356      2.039
REMARK  Name = 75536064
REMARK  8 active torsions:
REMARK  status: ('A' for Active; 'I' for Inactive)
REMARK    1  A    between atoms: O_1  and  C_10
REMARK    2  A    between atoms: O_2  and  C_12
REMARK    3  A    between atoms: N_4  and  C_9
REMARK    4  A    between atoms: N_6  and  C_21
REMARK    5  A    between atoms: C_8  and  C_13
REMARK    6  A    between atoms: C_15  and  C_17
REMARK    7  A    between atoms: C_21  and  C_23
REMARK    8  A    between atoms: C_22  and  C_24
REMARK                            x       y       z     vdW  Elec       q    Type
REMARK                         _______ _______ _______ _____ _____    ______ ____
ROOT
ATOM      8  C   UNL     1      14.297   8.750  19.274  0.00  0.00    +0.046 C 
ATOM      9  C   UNL     1      13.110   8.397  20.199  0.00  0.00    +0.112 C 
ATOM     10  C   UNL     1      11.887   8.821  19.387  0.00  0.00    +0.164 C 
ATOM     11  C   UNL     1      13.717   8.781  17.837  0.00  0.00    +0.044 C 
ATOM     12  C   UNL     1      12.246   8.389  17.970  0.00  0.00    +0.145 C 
ENDROOT
BRANCH   8  13
ATOM      5  N   UNL     1      16.612   5.779  18.830  0.00  0.00    -0.263 NA
ATOM     13  C   UNL     1      15.480   7.823  19.450  0.00  0.00    -0.024 A 
ATOM     14  C   UNL     1      16.498   8.122  20.348  0.00  0.00    +0.007 A 
ATOM     16  C   UNL     1      15.583   6.649  18.721  0.00  0.00    +0.114 A 
ATOM     18  C   UNL     1      17.574   7.250  20.488  0.00  0.00    +0.020 A 
ATOM     19  C   UNL     1      17.582   6.103  19.712  0.00  0.00    +0.111 A 
ENDBRANCH   8  13
BRANCH   9   4
ATOM      3  O   UNL     1      13.622  11.195  20.593  0.00  0.00    -0.269 OA
ATOM      4  N   UNL     1      13.183   9.089  21.461  0.00  0.00    -0.304 N 
ATOM     15  C   UNL     1      13.437  10.451  21.552  0.00  0.00    +0.262 C 
ATOM     25  H   UNL     1      13.018   8.554  22.309  0.00  0.00    +0.149 HD
BRANCH  15  17
ATOM      6  N   UNL     1      12.459  11.546  23.617  0.00  0.00    -0.259 N 
ATOM      7  N   UNL     1      12.785  11.982  24.846  0.00  0.00    -0.176 NA
ATOM     17  C   UNL     1      13.507  11.009  22.927  0.00  0.00    +0.123 A 
ATOM     20  C   UNL     1      14.592  11.102  23.763  0.00  0.00    +0.057 A 
ATOM     22  C   UNL     1      14.089  11.709  24.929  0.00  0.00    +0.061 A 
ATOM     24  C   UNL     1      14.831  12.046  26.155  0.00  0.00    +0.067 C 
BRANCH   6  21
ATOM     21  C   UNL     1      11.095  11.677  23.161  0.00  0.00    +0.141 C 
ATOM     23  C   UNL     1      10.875  12.976  22.399  0.00  0.00    +0.029 C 
ENDBRANCH   6  21
ENDBRANCH  15  17
ENDBRANCH   9   4
BRANCH  10   1
ATOM      1  O   UNL     1      10.703   8.187  19.829  0.00  0.00    -0.387 OA
ATOM     26  H   UNL     1      10.283   7.777  19.053  0.00  0.00    +0.210 HD
ENDBRANCH  10   1
BRANCH  12   2
ATOM      2  O   UNL     1      12.134   6.977  17.823  0.00  0.00    -0.389 OA
ATOM     27  H   UNL     1      11.604   6.808  17.025  0.00  0.00    +0.210 HD
ENDBRANCH  12   2
TORSDOF 6
ENDMDL
MODEL 7
REMARK VINA RESULT:      -6.0      2.760      4.088
REMARK  Name = 75536064
REMARK  8 active torsions:
REMARK  status: ('A' for Active; 'I' for Inactive)
REMARK    1  A    between atoms: O_1  and  C_10
REMARK    2  A    between atoms: O_2  and  C_12
REMARK    3  A    between atoms: N_4  and  C_9
REMARK    4  A    between atoms: N_6  and  C_21
REMARK    5  A    between atoms: C_8  and  C_13
REMARK    6  A    between atoms: C_15  and  C_17
REMARK    7  A    between atoms: C_21  and  C_23
REMARK    8  A    between atoms: C_22  and  C_24
REMARK                            x       y       z     vdW  Elec       q    Type
REMARK                         _______ _______ _______ _____ _____    ______ ____
ROOT
ATOM      8  C   UNL     1      11.919   8.425  19.671  0.00  0.00    +0.046 C 
ATOM      9  C   UNL     1      12.720   9.332  20.633  0.00  0.00    +0.112 C 
ATOM     10  C   UNL     1      13.093   8.393  21.779  0.00  0.00    +0.164 C 
ATOM     11  C   UNL     1      12.370   6.974  19.986  0.00  0.00    +0.044 C 
ATOM     12  C   UNL     1      13.447   7.095  21.063  0.00  0.00    +0.145 C 
ENDROOT
BRANCH   8  13
ATOM      5  N   UNL     1      11.180   8.811  15.971  0.00  0.00    -0.263 NA
ATOM     13  C   UNL     1      12.070   8.823  18.219  0.00  0.00    -0.024 A 
ATOM     14  C   UNL     1      13.179   9.538  17.783  0.00  0.00    +0.007 A 
ATOM     16  C   UNL     1      11.106   8.486  17.282  0.00  0.00    +0.114 A 
ATOM     18  C   UNL     1      13.291   9.890  16.441  0.00  0.00    +0.020 A 
ATOM     19  C   UNL     1      12.272   9.506  15.585  0.00  0.00    +0.111 A 
ENDBRANCH   8  13
BRANCH   9   4
ATOM      3  O   UNL     1      13.729  11.861  21.545  0.00  0.00    -0.269 OA
ATOM      4  N   UNL     1      11.941  10.455  21.090  0.00  0.00    -0.304 N 
ATOM     15  C   UNL     1      12.521  11.643  21.513  0.00  0.00    +0.262 C 
ATOM     25  H   UNL     1      10.929  10.371  21.074  0.00  0.00    +0.149 HD
BRANCH  15  17
ATOM      6  N   UNL     1      11.332  13.013  23.283  0.00  0.00    -0.259 N 
ATOM      7  N   UNL     1      10.439  14.006  23.438  0.00  0.00    -0.176 NA
ATOM     17  C   UNL     1      11.582  12.696  21.979  0.00  0.00    +0.123 A 
ATOM     20  C   UNL     1      10.797  13.539  21.231  0.00  0.00    +0.057 A 
ATOM     22  C   UNL     1      10.116  14.322  22.182  0.00  0.00    +0.061 A 
ATOM     24  C   UNL     1       9.139  15.394  21.926  0.00  0.00    +0.067 C 
BRANCH   6  21
ATOM     21  C   UNL     1      11.920  12.402  24.452  0.00  0.00    +0.141 C 
ATOM     23  C   UNL     1      11.105  11.212  24.938  0.00  0.00    +0.029 C 
ENDBRANCH   6  21
ENDBRANCH  15  17
ENDBRANCH   9   4
BRANCH  10   1
ATOM      1  O   UNL     1      14.190   8.875  22.532  0.00  0.00    -0.387 OA
ATOM     26  H   UNL     1      14.670   9.512  21.975  0.00  0.00    +0.210 HD
ENDBRANCH  10   1
BRANCH  12   2
ATOM      2  O   UNL     1      14.718   7.193  20.429  0.00  0.00    -0.389 OA
ATOM     27  H   UNL     1      15.396   7.055  21.112  0.00  0.00    +0.210 HD
ENDBRANCH  12   2
TORSDOF 6
ENDMDL
MODEL 8
REMARK VINA RESULT:      -5.7     26.700     28.545
REMARK  Name = 75536064
REMARK  8 active torsions:
REMARK  status: ('A' for Active; 'I' for Inactive)
REMARK    1  A    between atoms: O_1  and  C_10
REMARK    2  A    between atoms: O_2  and  C_12
REMARK    3  A    between atoms: N_4  and  C_9
REMARK    4  A    between atoms: N_6  and  C_21
REMARK    5  A    between atoms: C_8  and  C_13
REMARK    6  A    between atoms: C_15  and  C_17
REMARK    7  A    between atoms: C_21  and  C_23
REMARK    8  A    between atoms: C_22  and  C_24
REMARK                            x       y       z     vdW  Elec       q    Type
REMARK                         _______ _______ _______ _____ _____    ______ ____
ROOT
ATOM      8  C   UNL     1      -5.203 -11.574  16.682  0.00  0.00    +0.046 C 
ATOM      9  C   UNL     1      -5.653 -10.502  17.701  0.00  0.00    +0.112 C 
ATOM     10  C   UNL     1      -6.150 -11.326  18.888  0.00  0.00    +0.164 C 
ATOM     11  C   UNL     1      -4.905 -12.848  17.514  0.00  0.00    +0.044 C 
ATOM     12  C   UNL     1      -5.132 -12.457  18.974  0.00  0.00    +0.145 C 
ENDROOT
BRANCH   8  13
ATOM      5  N   UNL     1      -3.236 -10.522  13.614  0.00  0.00    -0.263 NA
ATOM     13  C   UNL     1      -4.053 -11.115  15.810  0.00  0.00    -0.024 A 
ATOM     14  C   UNL     1      -2.797 -10.870  16.352  0.00  0.00    +0.007 A 
ATOM     16  C   UNL     1      -4.220 -10.928  14.448  0.00  0.00    +0.114 A 
ATOM     18  C   UNL     1      -1.759 -10.450  15.526  0.00  0.00    +0.020 A 
ATOM     19  C   UNL     1      -2.029 -10.293  14.176  0.00  0.00    +0.111 A 
ENDBRANCH   8  13
BRANCH   9   4
ATOM      3  O   UNL     1      -8.437 -11.151  17.426  0.00  0.00    -0.269 OA
ATOM      4  N   UNL     1      -6.686  -9.651  17.168  0.00  0.00    -0.304 N 
ATOM     15  C   UNL     1      -8.012 -10.053  17.075  0.00  0.00    +0.262 C 
ATOM     25  H   UNL     1      -6.428  -8.713  16.875  0.00  0.00    +0.149 HD
BRANCH  15  17
ATOM      6  N   UNL     1      -9.403  -9.086  15.191  0.00  0.00    -0.259 N 
ATOM      7  N   UNL     1     -10.247  -8.081  14.899  0.00  0.00    -0.176 NA
ATOM     17  C   UNL     1      -8.951  -9.069  16.478  0.00  0.00    +0.123 A 
ATOM     20  C   UNL     1      -9.541  -7.977  17.068  0.00  0.00    +0.057 A 
ATOM     22  C   UNL     1     -10.327  -7.408  16.049  0.00  0.00    +0.061 A 
ATOM     24  C   UNL     1     -11.177  -6.209  16.136  0.00  0.00    +0.067 C 
BRANCH   6  21
ATOM     21  C   UNL     1      -9.067 -10.047  14.166  0.00  0.00    +0.141 C 
ATOM     23  C   UNL     1      -7.821  -9.638  13.394  0.00  0.00    +0.029 C 
ENDBRANCH   6  21
ENDBRANCH  15  17
ENDBRANCH   9   4
BRANCH  10   1
ATOM      1  O   UNL     1      -6.180 -10.575  20.087  0.00  0.00    -0.387 OA
ATOM     26  H   UNL     1      -5.901  -9.669  19.872  0.00  0.00    +0.210 HD
ENDBRANCH  10   1
BRANCH  12   2
ATOM      2  O   UNL     1      -3.901 -11.996  19.520  0.00  0.00    -0.389 OA
ATOM     27  H   UNL     1      -4.025 -11.899  20.480  0.00  0.00    +0.210 HD
ENDBRANCH  12   2
TORSDOF 6
ENDMDL
MODEL 9
REMARK VINA RESULT:      -5.5      3.263      6.284
REMARK  Name = 75536064
REMARK  8 active torsions:
REMARK  status: ('A' for Active; 'I' for Inactive)
REMARK    1  A    between atoms: O_1  and  C_10
REMARK    2  A    between atoms: O_2  and  C_12
REMARK    3  A    between atoms: N_4  and  C_9
REMARK    4  A    between atoms: N_6  and  C_21
REMARK    5  A    between atoms: C_8  and  C_13
REMARK    6  A    between atoms: C_15  and  C_17
REMARK    7  A    between atoms: C_21  and  C_23
REMARK    8  A    between atoms: C_22  and  C_24
REMARK                            x       y       z     vdW  Elec       q    Type
REMARK                         _______ _______ _______ _____ _____    ______ ____
ROOT
ATOM      8  C   UNL     1      16.656   8.734  20.432  0.00  0.00    +0.046 C 
ATOM      9  C   UNL     1      15.217   8.418  19.965  0.00  0.00    +0.112 C 
ATOM     10  C   UNL     1      15.159   6.892  19.997  0.00  0.00    +0.164 C 
ATOM     11  C   UNL     1      17.118   7.495  21.242  0.00  0.00    +0.044 C 
ATOM     12  C   UNL     1      15.923   6.543  21.268  0.00  0.00    +0.145 C 
ENDROOT
BRANCH   8  13
ATOM      5  N   UNL     1      18.007  12.063  21.648  0.00  0.00    -0.263 NA
ATOM     13  C   UNL     1      16.761  10.044  21.182  0.00  0.00    -0.024 A 
ATOM     14  C   UNL     1      15.766  10.446  22.066  0.00  0.00    +0.007 A 
ATOM     16  C   UNL     1      17.852  10.881  21.010  0.00  0.00    +0.114 A 
ATOM     18  C   UNL     1      15.890  11.656  22.741  0.00  0.00    +0.020 A 
ATOM     19  C   UNL     1      17.020  12.420  22.499  0.00  0.00    +0.111 A 
ENDBRANCH   8  13
BRANCH   9   4
ATOM      3  O   UNL     1      13.507  10.631  19.310  0.00  0.00    -0.269 OA
ATOM      4  N   UNL     1      14.950   8.939  18.648  0.00  0.00    -0.304 N 
ATOM     15  C   UNL     1      14.105  10.019  18.428  0.00  0.00    +0.262 C 
ATOM     25  H   UNL     1      15.423   8.507  17.859  0.00  0.00    +0.149 HD
BRANCH  15  17
ATOM      6  N   UNL     1      13.033   9.845  16.139  0.00  0.00    -0.259 N 
ATOM      7  N   UNL     1      13.054  10.390  14.911  0.00  0.00    -0.176 NA
ATOM     17  C   UNL     1      13.914  10.418  17.010  0.00  0.00    +0.123 A 
ATOM     20  C   UNL     1      14.553  11.405  16.302  0.00  0.00    +0.057 A 
ATOM     22  C   UNL     1      13.983  11.342  15.016  0.00  0.00    +0.061 A 
ATOM     24  C   UNL     1      14.304  12.183  13.851  0.00  0.00    +0.067 C 
BRANCH   6  21
ATOM     21  C   UNL     1      12.126   8.755  16.413  0.00  0.00    +0.141 C 
ATOM     23  C   UNL     1      10.715   9.059  15.932  0.00  0.00    +0.029 C 
ENDBRANCH   6  21
ENDBRANCH  15  17
ENDBRANCH   9   4
BRANCH  10   1
ATOM      1  O   UNL     1      13.831   6.406  20.050  0.00  0.00    -0.387 OA
ATOM     26  H   UNL     1      13.264   7.054  19.598  0.00  0.00    +0.210 HD
ENDBRANCH  10   1
BRANCH  12   2
ATOM      2  O   UNL     1      15.142   6.821  22.426  0.00  0.00    -0.389 OA
ATOM     27  H   UNL     1      15.703   7.322  23.043  0.00  0.00    +0.210 HD
ENDBRANCH  12   2
TORSDOF 6
ENDMDL
MODEL 10
REMARK VINA RESULT:      -5.5     14.669     16.710
REMARK  Name = 75536064
REMARK  8 active torsions:
REMARK  status: ('A' for Active; 'I' for Inactive)
REMARK    1  A    between atoms: O_1  and  C_10
REMARK    2  A    between atoms: O_2  and  C_12
REMARK    3  A    between atoms: N_4  and  C_9
REMARK    4  A    between atoms: N_6  and  C_21
REMARK    5  A    between atoms: C_8  and  C_13
REMARK    6  A    between atoms: C_15  and  C_17
REMARK    7  A    between atoms: C_21  and  C_23
REMARK    8  A    between atoms: C_22  and  C_24
REMARK                            x       y       z     vdW  Elec       q    Type
REMARK                         _______ _______ _______ _____ _____    ______ ____
ROOT
ATOM      8  C   UNL     1      10.030   6.308   5.040  0.00  0.00    +0.046 C 
ATOM      9  C   UNL     1      11.311   6.302   5.905  0.00  0.00    +0.112 C 
ATOM     10  C   UNL     1      10.780   6.111   7.325  0.00  0.00    +0.164 C 
ATOM     11  C   UNL     1       8.958   5.555   5.869  0.00  0.00    +0.044 C 
ATOM     12  C   UNL     1       9.663   5.091   7.142  0.00  0.00    +0.145 C 
ENDROOT
BRANCH   8  13
ATOM      5  N   UNL     1      11.037   3.940   2.254  0.00  0.00    -0.263 NA
ATOM     13  C   UNL     1      10.251   5.749   3.651  0.00  0.00    -0.024 A 
ATOM     14  C   UNL     1       9.898   6.477   2.520  0.00  0.00    +0.007 A 
ATOM     16  C   UNL     1      10.812   4.497   3.465  0.00  0.00    +0.114 A 
ATOM     18  C   UNL     1      10.113   5.938   1.256  0.00  0.00    +0.020 A 
ATOM     19  C   UNL     1      10.680   4.676   1.179  0.00  0.00    +0.111 A 
ENDBRANCH   8  13
BRANCH   9   4
ATOM      3  O   UNL     1      14.035   6.743   6.701  0.00  0.00    -0.269 OA
ATOM      4  N   UNL     1      12.059   7.526   5.771  0.00  0.00    -0.304 N 
ATOM     15  C   UNL     1      13.379   7.645   6.186  0.00  0.00    +0.262 C 
ATOM     25  H   UNL     1      11.601   8.320   5.332  0.00  0.00    +0.149 HD
BRANCH  15  17
ATOM      6  N   UNL     1      14.839   9.330   4.983  0.00  0.00    -0.259 N 
ATOM      7  N   UNL     1      15.267  10.603   5.046  0.00  0.00    -0.176 NA
ATOM     17  C   UNL     1      14.002   8.981   6.003  0.00  0.00    +0.123 A 
ATOM     20  C   UNL     1      13.875  10.103   6.785  0.00  0.00    +0.057 A 
ATOM     22  C   UNL     1      14.676  11.069   6.148  0.00  0.00    +0.061 A 
ATOM     24  C   UNL     1      14.902  12.463   6.566  0.00  0.00    +0.067 C 
BRANCH   6  21
ATOM     21  C   UNL     1      15.280   8.488   3.896  0.00  0.00    +0.141 C 
ATOM     23  C   UNL     1      16.636   7.860   4.181  0.00  0.00    +0.029 C 
ENDBRANCH   6  21
ENDBRANCH  15  17
ENDBRANCH   9   4
BRANCH  10   1
ATOM      1  O   UNL     1      11.774   5.626   8.208  0.00  0.00    -0.387 OA
ATOM     26  H   UNL     1      11.765   4.655   8.154  0.00  0.00    +0.210 HD
ENDBRANCH  10   1
BRANCH  12   2
ATOM      2  O   UNL     1      10.192   3.787   6.922  0.00  0.00    -0.389 OA
ATOM     27  H   UNL     1      11.144   3.884   6.751  0.00  0.00    +0.210 HD
ENDBRANCH  12   2
TORSDOF 6
ENDMDL
