MODEL 1
REMARK VINA RESULT:      -7.1      0.000      0.000
REMARK  Name = 75536800
REMARK  7 active torsions:
REMARK  status: ('A' for Active; 'I' for Inactive)
REMARK    1  A    between atoms: O_2  and  C_10
REMARK    2  A    between atoms: N_4  and  C_9
REMARK    3  A    between atoms: N_4  and  C_14
REMARK    4  A    between atoms: N_5  and  C_13
REMARK    5  A    between atoms: C_11  and  C_13
REMARK    6  A    between atoms: C_14  and  C_15
REMARK    7  A    between atoms: C_16  and  C_17
REMARK                            x       y       z     vdW  Elec       q    Type
REMARK                         _______ _______ _______ _____ _____    ______ ____
ROOT
ATOM      1  O   UNL     1      14.009   6.855  21.007  0.00  0.00    -0.371 OA
ATOM      9  C   UNL     1      11.694   7.118  20.547  0.00  0.00    +0.111 C 
ATOM     10  C   UNL     1      12.490   7.522  19.321  0.00  0.00    +0.164 C 
ATOM     11  C   UNL     1      13.812   6.814  19.584  0.00  0.00    +0.165 C 
ATOM     12  C   UNL     1      12.756   7.185  21.633  0.00  0.00    +0.181 C 
ENDROOT
BRANCH  10   2
ATOM      2  O   UNL     1      11.892   7.091  18.114  0.00  0.00    -0.388 OA
ATOM     25  H   UNL     1      11.179   6.468  18.333  0.00  0.00    +0.210 HD
ENDBRANCH  10   2
BRANCH   9   4
ATOM      4  N   UNL     1      10.555   7.983  20.815  0.00  0.00    -0.302 NA
ATOM     24  H   UNL     1       9.696   7.441  20.723  0.00  0.00    +0.123 HD
BRANCH   4  14
ATOM     14  C   UNL     1      10.622   8.537  22.162  0.00  0.00    +0.156 C 
BRANCH  14  15
ATOM      6  N   UNL     1      10.526  10.835  23.156  0.00  0.00    -0.347 N 
ATOM      7  N   UNL     1      11.606  10.663  21.223  0.00  0.00    -0.240 NA
ATOM     15  C   UNL     1      10.937  10.009  22.147  0.00  0.00    +0.121 A 
ATOM     18  C   UNL     1      10.961  12.096  22.857  0.00  0.00    +0.104 A 
ATOM     19  C   UNL     1      11.624  11.964  21.660  0.00  0.00    +0.130 A 
ATOM     27  H   UNL     1       9.997  10.564  23.975  0.00  0.00    +0.167 HD
ENDBRANCH  14  15
ENDBRANCH   4  14
ENDBRANCH   9   4
BRANCH  11  13
ATOM     13  C   UNL     1      14.993   7.465  18.885  0.00  0.00    +0.138 C 
BRANCH  13   5
ATOM      3  O   UNL     1      16.922   5.376  18.493  0.00  0.00    -0.270 OA
ATOM      5  N   UNL     1      16.208   7.273  19.622  0.00  0.00    -0.309 N 
ATOM     16  C   UNL     1      17.088   6.227  19.362  0.00  0.00    +0.244 C 
ATOM     26  H   UNL     1      16.373   7.903  20.399  0.00  0.00    +0.149 HD
BRANCH  16  17
ATOM      8  N   UNL     1      20.554   6.012  21.867  0.00  0.00    -0.263 NA
ATOM     17  C   UNL     1      18.291   6.151  20.232  0.00  0.00    +0.040 A 
ATOM     20  C   UNL     1      18.380   6.946  21.370  0.00  0.00    +0.033 A 
ATOM     21  C   UNL     1      19.331   5.287  19.911  0.00  0.00    +0.033 A 
ATOM     22  C   UNL     1      19.523   6.840  22.146  0.00  0.00    +0.111 A 
ATOM     23  C   UNL     1      20.431   5.256  20.753  0.00  0.00    +0.111 A 
ENDBRANCH  16  17
ENDBRANCH  13   5
ENDBRANCH  11  13
TORSDOF 7
ENDMDL
MODEL 2
REMARK VINA RESULT:      -6.9      1.613      2.247
REMARK  Name = 75536800
REMARK  7 active torsions:
REMARK  status: ('A' for Active; 'I' for Inactive)
REMARK    1  A    between atoms: O_2  and  C_10
REMARK    2  A    between atoms: N_4  and  C_9
REMARK    3  A    between atoms: N_4  and  C_14
REMARK    4  A    between atoms: N_5  and  C_13
REMARK    5  A    between atoms: C_11  and  C_13
REMARK    6  A    between atoms: C_14  and  C_15
REMARK    7  A    between atoms: C_16  and  C_17
REMARK                            x       y       z     vdW  Elec       q    Type
REMARK                         _______ _______ _______ _____ _____    ______ ____
ROOT
ATOM      1  O   UNL     1      12.889   6.661  20.653  0.00  0.00    -0.371 OA
ATOM      9  C   UNL     1      10.899   7.865  21.134  0.00  0.00    +0.111 C 
ATOM     10  C   UNL     1      11.457   8.342  19.806  0.00  0.00    +0.164 C 
ATOM     11  C   UNL     1      12.346   7.167  19.423  0.00  0.00    +0.165 C 
ATOM     12  C   UNL     1      12.114   7.187  21.745  0.00  0.00    +0.181 C 
ENDROOT
BRANCH  10   2
ATOM      2  O   UNL     1      10.448   8.577  18.843  0.00  0.00    -0.388 OA
ATOM     25  H   UNL     1      10.704   8.133  18.017  0.00  0.00    +0.210 HD
ENDBRANCH  10   2
BRANCH   9   4
ATOM      4  N   UNL     1      10.371   8.936  21.965  0.00  0.00    -0.302 NA
ATOM     24  H   UNL     1      10.338   8.620  22.934  0.00  0.00    +0.123 HD
BRANCH   4  14
ATOM     14  C   UNL     1      11.208  10.126  21.883  0.00  0.00    +0.156 C 
BRANCH  14  15
ATOM      6  N   UNL     1      10.574  12.322  22.909  0.00  0.00    -0.347 N 
ATOM      7  N   UNL     1      11.206  10.737  24.331  0.00  0.00    -0.240 NA
ATOM     15  C   UNL     1      11.007  11.035  23.066  0.00  0.00    +0.121 A 
ATOM     18  C   UNL     1      10.492  12.882  24.154  0.00  0.00    +0.104 A 
ATOM     19  C   UNL     1      10.887  11.885  25.014  0.00  0.00    +0.130 A 
ATOM     27  H   UNL     1      10.354  12.778  22.034  0.00  0.00    +0.167 HD
ENDBRANCH  14  15
ENDBRANCH   4  14
ENDBRANCH   9   4
BRANCH  11  13
ATOM     13  C   UNL     1      13.474   7.549  18.482  0.00  0.00    +0.138 C 
BRANCH  13   5
ATOM      3  O   UNL     1      15.228   9.229  20.012  0.00  0.00    -0.270 OA
ATOM      5  N   UNL     1      14.752   7.186  19.023  0.00  0.00    -0.309 N 
ATOM     16  C   UNL     1      15.538   8.069  19.756  0.00  0.00    +0.244 C 
ATOM     26  H   UNL     1      15.098   6.261  18.792  0.00  0.00    +0.149 HD
BRANCH  16  17
ATOM      8  N   UNL     1      19.309   6.563  21.112  0.00  0.00    -0.263 NA
ATOM     17  C   UNL     1      16.848   7.547  20.226  0.00  0.00    +0.040 A 
ATOM     20  C   UNL     1      17.357   6.365  19.699  0.00  0.00    +0.033 A 
ATOM     21  C   UNL     1      17.567   8.237  21.195  0.00  0.00    +0.033 A 
ATOM     22  C   UNL     1      18.581   5.920  20.172  0.00  0.00    +0.111 A 
ATOM     23  C   UNL     1      18.781   7.707  21.601  0.00  0.00    +0.111 A 
ENDBRANCH  16  17
ENDBRANCH  13   5
ENDBRANCH  11  13
TORSDOF 7
ENDMDL
MODEL 3
REMARK VINA RESULT:      -6.4      2.712      4.879
REMARK  Name = 75536800
REMARK  7 active torsions:
REMARK  status: ('A' for Active; 'I' for Inactive)
REMARK    1  A    between atoms: O_2  and  C_10
REMARK    2  A    between atoms: N_4  and  C_9
REMARK    3  A    between atoms: N_4  and  C_14
REMARK    4  A    between atoms: N_5  and  C_13
REMARK    5  A    between atoms: C_11  and  C_13
REMARK    6  A    between atoms: C_14  and  C_15
REMARK    7  A    between atoms: C_16  and  C_17
REMARK                            x       y       z     vdW  Elec       q    Type
REMARK                         _______ _______ _______ _____ _____    ______ ____
ROOT
ATOM      1  O   UNL     1      17.083   6.017  19.036  0.00  0.00    -0.371 OA
ATOM      9  C   UNL     1      16.282   7.142  20.968  0.00  0.00    +0.111 C 
ATOM     10  C   UNL     1      17.565   6.411  21.318  0.00  0.00    +0.164 C 
ATOM     11  C   UNL     1      18.181   6.225  19.938  0.00  0.00    +0.165 C 
ATOM     12  C   UNL     1      15.870   6.434  19.689  0.00  0.00    +0.181 C 
ENDROOT
BRANCH  10   2
ATOM      2  O   UNL     1      18.405   7.160  22.175  0.00  0.00    -0.388 OA
ATOM     25  H   UNL     1      19.203   6.635  22.355  0.00  0.00    +0.210 HD
ENDBRANCH  10   2
BRANCH   9   4
ATOM      4  N   UNL     1      15.267   7.071  22.007  0.00  0.00    -0.302 NA
ATOM     24  H   UNL     1      15.715   7.172  22.918  0.00  0.00    +0.123 HD
BRANCH   4  14
ATOM     14  C   UNL     1      14.277   8.129  21.848  0.00  0.00    +0.156 C 
BRANCH  14  15
ATOM      6  N   UNL     1      12.617   6.327  21.321  0.00  0.00    -0.347 N 
ATOM      7  N   UNL     1      11.777   8.193  22.184  0.00  0.00    -0.240 NA
ATOM     15  C   UNL     1      12.875   7.581  21.799  0.00  0.00    +0.121 A 
ATOM     18  C   UNL     1      11.268   6.125  21.406  0.00  0.00    +0.104 A 
ATOM     19  C   UNL     1      10.771   7.291  21.941  0.00  0.00    +0.130 A 
ATOM     27  H   UNL     1      13.298   5.667  20.969  0.00  0.00    +0.167 HD
ENDBRANCH  14  15
ENDBRANCH   4  14
ENDBRANCH   9   4
BRANCH  11  13
ATOM     13  C   UNL     1      19.139   5.049  19.861  0.00  0.00    +0.138 C 
BRANCH  13   5
ATOM      3  O   UNL     1      21.158   3.293  20.901  0.00  0.00    -0.270 OA
ATOM      5  N   UNL     1      20.456   5.419  20.291  0.00  0.00    -0.309 N 
ATOM     16  C   UNL     1      21.374   4.496  20.784  0.00  0.00    +0.244 C 
ATOM     26  H   UNL     1      20.676   6.409  20.284  0.00  0.00    +0.149 HD
BRANCH  16  17
ATOM      8  N   UNL     1      25.160   6.067  22.020  0.00  0.00    -0.263 NA
ATOM     17  C   UNL     1      22.688   5.043  21.213  0.00  0.00    +0.040 A 
ATOM     20  C   UNL     1      23.804   4.896  20.397  0.00  0.00    +0.033 A 
ATOM     21  C   UNL     1      22.806   5.701  22.432  0.00  0.00    +0.033 A 
ATOM     22  C   UNL     1      25.006   5.422  20.843  0.00  0.00    +0.111 A 
ATOM     23  C   UNL     1      24.053   6.190  22.786  0.00  0.00    +0.111 A 
ENDBRANCH  16  17
ENDBRANCH  13   5
ENDBRANCH  11  13
TORSDOF 7
ENDMDL
MODEL 4
REMARK VINA RESULT:      -6.3      4.251      5.387
REMARK  Name = 75536800
REMARK  7 active torsions:
REMARK  status: ('A' for Active; 'I' for Inactive)
REMARK    1  A    between atoms: O_2  and  C_10
REMARK    2  A    between atoms: N_4  and  C_9
REMARK    3  A    between atoms: N_4  and  C_14
REMARK    4  A    between atoms: N_5  and  C_13
REMARK    5  A    between atoms: C_11  and  C_13
REMARK    6  A    between atoms: C_14  and  C_15
REMARK    7  A    between atoms: C_16  and  C_17
REMARK                            x       y       z     vdW  Elec       q    Type
REMARK                         _______ _______ _______ _____ _____    ______ ____
ROOT
ATOM      1  O   UNL     1      13.345   8.075  21.508  0.00  0.00    -0.371 OA
ATOM      9  C   UNL     1      11.436   8.996  22.579  0.00  0.00    +0.111 C 
ATOM     10  C   UNL     1      10.982   8.134  21.416  0.00  0.00    +0.164 C 
ATOM     11  C   UNL     1      12.206   7.251  21.212  0.00  0.00    +0.165 C 
ATOM     12  C   UNL     1      12.894   9.238  22.225  0.00  0.00    +0.181 C 
ENDROOT
BRANCH  10   2
ATOM      2  O   UNL     1       9.828   7.374  21.717  0.00  0.00    -0.388 OA
ATOM     25  H   UNL     1      10.103   6.582  22.208  0.00  0.00    +0.210 HD
ENDBRANCH  10   2
BRANCH   9   4
ATOM      4  N   UNL     1      10.677  10.228  22.724  0.00  0.00    -0.302 NA
ATOM     24  H   UNL     1       9.682  10.019  22.638  0.00  0.00    +0.123 HD
BRANCH   4  14
ATOM     14  C   UNL     1      10.919  10.845  24.022  0.00  0.00    +0.156 C 
BRANCH  14  15
ATOM      6  N   UNL     1      10.193  12.950  22.873  0.00  0.00    -0.347 N 
ATOM      7  N   UNL     1      10.602  13.129  25.048  0.00  0.00    -0.240 NA
ATOM     15  C   UNL     1      10.578  12.312  24.019  0.00  0.00    +0.121 A 
ATOM     18  C   UNL     1       9.956  14.258  23.191  0.00  0.00    +0.104 A 
ATOM     19  C   UNL     1      10.216  14.344  24.539  0.00  0.00    +0.130 A 
ATOM     27  H   UNL     1      10.099  12.532  21.956  0.00  0.00    +0.167 HD
ENDBRANCH  14  15
ENDBRANCH   4  14
ENDBRANCH   9   4
BRANCH  11  13
ATOM     13  C   UNL     1      12.322   6.703  19.801  0.00  0.00    +0.138 C 
BRANCH  13   5
ATOM      3  O   UNL     1      10.982   8.186  17.741  0.00  0.00    -0.270 OA
ATOM      5  N   UNL     1      12.913   7.663  18.914  0.00  0.00    -0.309 N 
ATOM     16  C   UNL     1      12.184   8.338  17.940  0.00  0.00    +0.244 C 
ATOM     26  H   UNL     1      13.918   7.787  18.982  0.00  0.00    +0.149 HD
BRANCH  16  17
ATOM      8  N   UNL     1      14.386  11.061  15.477  0.00  0.00    -0.263 NA
ATOM     17  C   UNL     1      12.949   9.282  17.084  0.00  0.00    +0.040 A 
ATOM     20  C   UNL     1      14.116   9.867  17.562  0.00  0.00    +0.033 A 
ATOM     21  C   UNL     1      12.500   9.584  15.804  0.00  0.00    +0.033 A 
ATOM     22  C   UNL     1      14.791  10.742  16.726  0.00  0.00    +0.111 A 
ATOM     23  C   UNL     1      13.247  10.472  15.047  0.00  0.00    +0.111 A 
ENDBRANCH  16  17
ENDBRANCH  13   5
ENDBRANCH  11  13
TORSDOF 7
ENDMDL
MODEL 5
REMARK VINA RESULT:      -6.3      1.772      7.421
REMARK  Name = 75536800
REMARK  7 active torsions:
REMARK  status: ('A' for Active; 'I' for Inactive)
REMARK    1  A    between atoms: O_2  and  C_10
REMARK    2  A    between atoms: N_4  and  C_9
REMARK    3  A    between atoms: N_4  and  C_14
REMARK    4  A    between atoms: N_5  and  C_13
REMARK    5  A    between atoms: C_11  and  C_13
REMARK    6  A    between atoms: C_14  and  C_15
REMARK    7  A    between atoms: C_16  and  C_17
REMARK                            x       y       z     vdW  Elec       q    Type
REMARK                         _______ _______ _______ _____ _____    ______ ____
ROOT
ATOM      1  O   UNL     1      13.385   7.880  18.260  0.00  0.00    -0.371 OA
ATOM      9  C   UNL     1      14.683   6.650  19.824  0.00  0.00    +0.111 C 
ATOM     10  C   UNL     1      13.444   7.182  20.520  0.00  0.00    +0.164 C 
ATOM     11  C   UNL     1      12.530   7.444  19.330  0.00  0.00    +0.165 C 
ATOM     12  C   UNL     1      14.743   7.540  18.593  0.00  0.00    +0.181 C 
ENDROOT
BRANCH  10   2
ATOM      2  O   UNL     1      12.881   6.249  21.422  0.00  0.00    -0.388 OA
ATOM     25  H   UNL     1      12.839   6.661  22.301  0.00  0.00    +0.210 HD
ENDBRANCH  10   2
BRANCH   9   4
ATOM      4  N   UNL     1      15.887   6.726  20.636  0.00  0.00    -0.302 NA
ATOM     24  H   UNL     1      15.837   6.021  21.372  0.00  0.00    +0.123 HD
BRANCH   4  14
ATOM     14  C   UNL     1      17.079   6.487  19.833  0.00  0.00    +0.156 C 
BRANCH  14  15
ATOM      6  N   UNL     1      18.360   6.969  21.931  0.00  0.00    -0.347 N 
ATOM      7  N   UNL     1      19.468   5.865  20.354  0.00  0.00    -0.240 NA
ATOM     15  C   UNL     1      18.322   6.422  20.679  0.00  0.00    +0.121 A 
ATOM     18  C   UNL     1      19.611   6.749  22.438  0.00  0.00    +0.104 A 
ATOM     19  C   UNL     1      20.276   6.066  21.446  0.00  0.00    +0.130 A 
ATOM     27  H   UNL     1      17.603   7.449  22.399  0.00  0.00    +0.167 HD
ENDBRANCH  14  15
ENDBRANCH   4  14
ENDBRANCH   9   4
BRANCH  11  13
ATOM     13  C   UNL     1      11.474   8.500  19.605  0.00  0.00    +0.138 C 
BRANCH  13   5
ATOM      3  O   UNL     1      10.217   8.744  22.174  0.00  0.00    -0.270 OA
ATOM      5  N   UNL     1      11.871   9.371  20.673  0.00  0.00    -0.309 N 
ATOM     16  C   UNL     1      11.200   9.424  21.891  0.00  0.00    +0.244 C 
ATOM     26  H   UNL     1      12.636  10.008  20.480  0.00  0.00    +0.149 HD
BRANCH  16  17
ATOM      8  N   UNL     1      12.699  12.233  24.753  0.00  0.00    -0.263 NA
ATOM     17  C   UNL     1      11.721  10.398  22.886  0.00  0.00    +0.040 A 
ATOM     20  C   UNL     1      10.893  10.872  23.897  0.00  0.00    +0.033 A 
ATOM     21  C   UNL     1      13.037  10.840  22.807  0.00  0.00    +0.033 A 
ATOM     22  C   UNL     1      11.426  11.781  24.798  0.00  0.00    +0.111 A 
ATOM     23  C   UNL     1      13.473  11.750  23.756  0.00  0.00    +0.111 A 
ENDBRANCH  16  17
ENDBRANCH  13   5
ENDBRANCH  11  13
TORSDOF 7
ENDMDL
MODEL 6
REMARK VINA RESULT:      -6.3      3.568      5.695
REMARK  Name = 75536800
REMARK  7 active torsions:
REMARK  status: ('A' for Active; 'I' for Inactive)
REMARK    1  A    between atoms: O_2  and  C_10
REMARK    2  A    between atoms: N_4  and  C_9
REMARK    3  A    between atoms: N_4  and  C_14
REMARK    4  A    between atoms: N_5  and  C_13
REMARK    5  A    between atoms: C_11  and  C_13
REMARK    6  A    between atoms: C_14  and  C_15
REMARK    7  A    between atoms: C_16  and  C_17
REMARK                            x       y       z     vdW  Elec       q    Type
REMARK                         _______ _______ _______ _____ _____    ______ ____
ROOT
ATOM      1  O   UNL     1      15.820   8.292  21.613  0.00  0.00    -0.371 OA
ATOM      9  C   UNL     1      14.641  10.159  22.486  0.00  0.00    +0.111 C 
ATOM     10  C   UNL     1      13.642   9.148  21.955  0.00  0.00    +0.164 C 
ATOM     11  C   UNL     1      14.485   7.880  21.948  0.00  0.00    +0.165 C 
ATOM     12  C   UNL     1      15.917   9.716  21.790  0.00  0.00    +0.181 C 
ENDROOT
BRANCH  10   2
ATOM      2  O   UNL     1      12.502   9.019  22.783  0.00  0.00    -0.388 OA
ATOM     25  H   UNL     1      11.719   9.264  22.264  0.00  0.00    +0.210 HD
ENDBRANCH  10   2
BRANCH   9   4
ATOM      4  N   UNL     1      14.286  11.539  22.194  0.00  0.00    -0.302 NA
ATOM     24  H   UNL     1      13.409  11.555  21.673  0.00  0.00    +0.123 HD
BRANCH   4  14
ATOM     14  C   UNL     1      14.122  12.310  23.420  0.00  0.00    +0.156 C 
BRANCH  14  15
ATOM      6  N   UNL     1      12.396  11.402  24.993  0.00  0.00    -0.347 N 
ATOM      7  N   UNL     1      11.668  12.889  23.514  0.00  0.00    -0.240 NA
ATOM     15  C   UNL     1      12.715  12.226  23.950  0.00  0.00    +0.121 A 
ATOM     18  C   UNL     1      11.059  11.548  25.238  0.00  0.00    +0.104 A 
ATOM     19  C   UNL     1      10.632  12.471  24.312  0.00  0.00    +0.130 A 
ATOM     27  H   UNL     1      13.032  10.794  25.494  0.00  0.00    +0.167 HD
ENDBRANCH  14  15
ENDBRANCH   4  14
ENDBRANCH   9   4
BRANCH  11  13
ATOM     13  C   UNL     1      14.002   6.843  20.950  0.00  0.00    +0.138 C 
BRANCH  13   5
ATOM      3  O   UNL     1      11.464   7.421  19.740  0.00  0.00    -0.270 OA
ATOM      5  N   UNL     1      13.782   7.424  19.657  0.00  0.00    -0.309 N 
ATOM     16  C   UNL     1      12.511   7.670  19.148  0.00  0.00    +0.244 C 
ATOM     26  H   UNL     1      14.605   7.592  19.088  0.00  0.00    +0.149 HD
BRANCH  16  17
ATOM      8  N   UNL     1      12.342   9.344  15.212  0.00  0.00    -0.263 NA
ATOM     17  C   UNL     1      12.453   8.253  17.782  0.00  0.00    +0.040 A 
ATOM     20  C   UNL     1      11.224   8.549  17.203  0.00  0.00    +0.033 A 
ATOM     21  C   UNL     1      13.625   8.501  17.079  0.00  0.00    +0.033 A 
ATOM     22  C   UNL     1      11.224   9.089  15.926  0.00  0.00    +0.111 A 
ATOM     23  C   UNL     1      13.517   9.042  15.808  0.00  0.00    +0.111 A 
ENDBRANCH  16  17
ENDBRANCH  13   5
ENDBRANCH  11  13
TORSDOF 7
ENDMDL
MODEL 7
REMARK VINA RESULT:      -6.3      1.889      7.863
REMARK  Name = 75536800
REMARK  7 active torsions:
REMARK  status: ('A' for Active; 'I' for Inactive)
REMARK    1  A    between atoms: O_2  and  C_10
REMARK    2  A    between atoms: N_4  and  C_9
REMARK    3  A    between atoms: N_4  and  C_14
REMARK    4  A    between atoms: N_5  and  C_13
REMARK    5  A    between atoms: C_11  and  C_13
REMARK    6  A    between atoms: C_14  and  C_15
REMARK    7  A    between atoms: C_16  and  C_17
REMARK                            x       y       z     vdW  Elec       q    Type
REMARK                         _______ _______ _______ _____ _____    ______ ____
ROOT
ATOM      1  O   UNL     1      15.973   6.141  19.077  0.00  0.00    -0.371 OA
ATOM      9  C   UNL     1      17.025   6.557  21.165  0.00  0.00    +0.111 C 
ATOM     10  C   UNL     1      15.674   7.246  21.147  0.00  0.00    +0.164 C 
ATOM     11  C   UNL     1      14.964   6.470  20.046  0.00  0.00    +0.165 C 
ATOM     12  C   UNL     1      17.265   6.323  19.682  0.00  0.00    +0.181 C 
ENDROOT
BRANCH  10   2
ATOM      2  O   UNL     1      14.994   7.150  22.383  0.00  0.00    -0.388 OA
ATOM     25  H   UNL     1      15.522   6.592  22.979  0.00  0.00    +0.210 HD
ENDBRANCH  10   2
BRANCH   9   4
ATOM      4  N   UNL     1      18.075   7.344  21.791  0.00  0.00    -0.302 NA
ATOM     24  H   UNL     1      17.805   7.556  22.752  0.00  0.00    +0.123 HD
BRANCH   4  14
ATOM     14  C   UNL     1      19.339   6.620  21.804  0.00  0.00    +0.156 C 
BRANCH  14  15
ATOM      6  N   UNL     1      19.882   7.962  23.849  0.00  0.00    -0.347 N 
ATOM      7  N   UNL     1      21.048   6.091  23.584  0.00  0.00    -0.240 NA
ATOM     15  C   UNL     1      20.110   6.859  23.075  0.00  0.00    +0.121 A 
ATOM     18  C   UNL     1      20.728   7.895  24.920  0.00  0.00    +0.104 A 
ATOM     19  C   UNL     1      21.438   6.732  24.734  0.00  0.00    +0.130 A 
ATOM     27  H   UNL     1      19.210   8.696  23.664  0.00  0.00    +0.167 HD
ENDBRANCH  14  15
ENDBRANCH   4  14
ENDBRANCH   9   4
BRANCH  11  13
ATOM     13  C   UNL     1      13.849   7.256  19.379  0.00  0.00    +0.138 C 
BRANCH  13   5
ATOM      3  O   UNL     1      12.790   9.868  18.832  0.00  0.00    -0.270 OA
ATOM      5  N   UNL     1      13.194   8.128  20.312  0.00  0.00    -0.309 N 
ATOM     16  C   UNL     1      12.710   9.383  19.957  0.00  0.00    +0.244 C 
ATOM     26  H   UNL     1      13.155   7.815  21.276  0.00  0.00    +0.149 HD
BRANCH  16  17
ATOM      8  N   UNL     1      10.900  11.664  23.096  0.00  0.00    -0.263 NA
ATOM     17  C   UNL     1      12.080  10.175  21.046  0.00  0.00    +0.040 A 
ATOM     20  C   UNL     1      12.068  11.564  20.981  0.00  0.00    +0.033 A 
ATOM     21  C   UNL     1      11.504   9.530  22.134  0.00  0.00    +0.033 A 
ATOM     22  C   UNL     1      11.470  12.256  22.023  0.00  0.00    +0.111 A 
ATOM     23  C   UNL     1      10.932  10.313  23.124  0.00  0.00    +0.111 A 
ENDBRANCH  16  17
ENDBRANCH  13   5
ENDBRANCH  11  13
TORSDOF 7
ENDMDL
MODEL 8
REMARK VINA RESULT:      -6.1     25.506     27.576
REMARK  Name = 75536800
REMARK  7 active torsions:
REMARK  status: ('A' for Active; 'I' for Inactive)
REMARK    1  A    between atoms: O_2  and  C_10
REMARK    2  A    between atoms: N_4  and  C_9
REMARK    3  A    between atoms: N_4  and  C_14
REMARK    4  A    between atoms: N_5  and  C_13
REMARK    5  A    between atoms: C_11  and  C_13
REMARK    6  A    between atoms: C_14  and  C_15
REMARK    7  A    between atoms: C_16  and  C_17
REMARK                            x       y       z     vdW  Elec       q    Type
REMARK                         _______ _______ _______ _____ _____    ______ ____
ROOT
ATOM      1  O   UNL     1      -1.109 -11.403  15.135  0.00  0.00    -0.371 OA
ATOM      9  C   UNL     1      -3.157 -11.003  16.269  0.00  0.00    +0.111 C 
ATOM     10  C   UNL     1      -3.455 -11.607  14.909  0.00  0.00    +0.164 C 
ATOM     11  C   UNL     1      -2.120 -12.261  14.580  0.00  0.00    +0.165 C 
ATOM     12  C   UNL     1      -1.732 -10.510  16.075  0.00  0.00    +0.181 C 
ENDROOT
BRANCH  10   2
ATOM      2  O   UNL     1      -4.509 -12.549  14.948  0.00  0.00    -0.388 OA
ATOM     25  H   UNL     1      -4.122 -13.440  14.937  0.00  0.00    +0.210 HD
ENDBRANCH  10   2
BRANCH   9   4
ATOM      4  N   UNL     1      -4.076  -9.943  16.652  0.00  0.00    -0.302 NA
ATOM     24  H   UNL     1      -4.542  -9.588  15.816  0.00  0.00    +0.123 HD
BRANCH   4  14
ATOM     14  C   UNL     1      -5.084 -10.433  17.584  0.00  0.00    +0.156 C 
BRANCH  14  15
ATOM      6  N   UNL     1      -6.992 -11.280  16.198  0.00  0.00    -0.347 N 
ATOM      7  N   UNL     1      -7.328  -9.336  17.220  0.00  0.00    -0.240 NA
ATOM     15  C   UNL     1      -6.474 -10.316  17.018  0.00  0.00    +0.121 A 
ATOM     18  C   UNL     1      -8.257 -10.890  15.855  0.00  0.00    +0.104 A 
ATOM     19  C   UNL     1      -8.441  -9.688  16.498  0.00  0.00    +0.130 A 
ATOM     27  H   UNL     1      -6.527 -12.127  15.900  0.00  0.00    +0.167 HD
ENDBRANCH  14  15
ENDBRANCH   4  14
ENDBRANCH   9   4
BRANCH  11  13
ATOM     13  C   UNL     1      -1.885 -12.433  13.090  0.00  0.00    +0.138 C 
BRANCH  13   5
ATOM      3  O   UNL     1      -1.449  -9.894  11.823  0.00  0.00    -0.270 OA
ATOM      5  N   UNL     1      -2.838 -11.685  12.321  0.00  0.00    -0.309 N 
ATOM     16  C   UNL     1      -2.538 -10.456  11.741  0.00  0.00    +0.244 C 
ATOM     26  H   UNL     1      -3.778 -12.062  12.270  0.00  0.00    +0.149 HD
BRANCH  16  17
ATOM      8  N   UNL     1      -5.718  -8.548   9.602  0.00  0.00    -0.263 NA
ATOM     17  C   UNL     1      -3.643  -9.795  10.998  0.00  0.00    +0.040 A 
ATOM     20  C   UNL     1      -3.429  -9.319   9.709  0.00  0.00    +0.033 A 
ATOM     21  C   UNL     1      -4.892  -9.649  11.589  0.00  0.00    +0.033 A 
ATOM     22  C   UNL     1      -4.490  -8.709   9.060  0.00  0.00    +0.111 A 
ATOM     23  C   UNL     1      -5.887  -9.023  10.856  0.00  0.00    +0.111 A 
ENDBRANCH  16  17
ENDBRANCH  13   5
ENDBRANCH  11  13
TORSDOF 7
ENDMDL
MODEL 9
REMARK VINA RESULT:      -6.1      3.097      5.516
REMARK  Name = 75536800
REMARK  7 active torsions:
REMARK  status: ('A' for Active; 'I' for Inactive)
REMARK    1  A    between atoms: O_2  and  C_10
REMARK    2  A    between atoms: N_4  and  C_9
REMARK    3  A    between atoms: N_4  and  C_14
REMARK    4  A    between atoms: N_5  and  C_13
REMARK    5  A    between atoms: C_11  and  C_13
REMARK    6  A    between atoms: C_14  and  C_15
REMARK    7  A    between atoms: C_16  and  C_17
REMARK                            x       y       z     vdW  Elec       q    Type
REMARK                         _______ _______ _______ _____ _____    ______ ____
ROOT
ATOM      1  O   UNL     1      16.008   8.818  21.115  0.00  0.00    -0.371 OA
ATOM      9  C   UNL     1      13.985   8.477  22.311  0.00  0.00    +0.111 C 
ATOM     10  C   UNL     1      13.976   7.610  21.067  0.00  0.00    +0.164 C 
ATOM     11  C   UNL     1      15.463   7.541  20.747  0.00  0.00    +0.165 C 
ATOM     12  C   UNL     1      15.061   9.492  21.963  0.00  0.00    +0.181 C 
ENDROOT
BRANCH  10   2
ATOM      2  O   UNL     1      13.426   6.327  21.299  0.00  0.00    -0.388 OA
ATOM     25  H   UNL     1      12.459   6.392  21.230  0.00  0.00    +0.210 HD
ENDBRANCH  10   2
BRANCH   9   4
ATOM      4  N   UNL     1      12.700   9.093  22.603  0.00  0.00    -0.302 NA
ATOM     24  H   UNL     1      12.481   8.956  23.590  0.00  0.00    +0.123 HD
BRANCH   4  14
ATOM     14  C   UNL     1      12.724  10.522  22.318  0.00  0.00    +0.156 C 
BRANCH  14  15
ATOM      6  N   UNL     1      11.882  11.008  24.628  0.00  0.00    -0.347 N 
ATOM      7  N   UNL     1      11.086  12.310  23.015  0.00  0.00    -0.240 NA
ATOM     15  C   UNL     1      11.883  11.303  23.293  0.00  0.00    +0.121 A 
ATOM     18  C   UNL     1      11.029  11.882  25.241  0.00  0.00    +0.104 A 
ATOM     19  C   UNL     1      10.550  12.676  24.224  0.00  0.00    +0.130 A 
ATOM     27  H   UNL     1      12.415  10.277  25.081  0.00  0.00    +0.167 HD
ENDBRANCH  14  15
ENDBRANCH   4  14
ENDBRANCH   9   4
BRANCH  11  13
ATOM     13  C   UNL     1      15.750   7.264  19.282  0.00  0.00    +0.138 C 
BRANCH  13   5
ATOM      3  O   UNL     1      14.941   9.790  18.184  0.00  0.00    -0.270 OA
ATOM      5  N   UNL     1      14.597   7.513  18.467  0.00  0.00    -0.309 N 
ATOM     16  C   UNL     1      14.280   8.776  17.976  0.00  0.00    +0.244 C 
ATOM     26  H   UNL     1      13.972   6.730  18.312  0.00  0.00    +0.149 HD
BRANCH  16  17
ATOM      8  N   UNL     1      10.698   9.059  15.650  0.00  0.00    -0.263 NA
ATOM     17  C   UNL     1      13.037   8.873  17.168  0.00  0.00    +0.040 A 
ATOM     20  C   UNL     1      13.051   9.530  15.943  0.00  0.00    +0.033 A 
ATOM     21  C   UNL     1      11.856   8.308  17.635  0.00  0.00    +0.033 A 
ATOM     22  C   UNL     1      11.865   9.595  15.229  0.00  0.00    +0.111 A 
ATOM     23  C   UNL     1      10.723   8.429  16.845  0.00  0.00    +0.111 A 
ENDBRANCH  16  17
ENDBRANCH  13   5
ENDBRANCH  11  13
TORSDOF 7
ENDMDL
MODEL 10
REMARK VINA RESULT:      -6.1      2.717      5.137
REMARK  Name = 75536800
REMARK  7 active torsions:
REMARK  status: ('A' for Active; 'I' for Inactive)
REMARK    1  A    between atoms: O_2  and  C_10
REMARK    2  A    between atoms: N_4  and  C_9
REMARK    3  A    between atoms: N_4  and  C_14
REMARK    4  A    between atoms: N_5  and  C_13
REMARK    5  A    between atoms: C_11  and  C_13
REMARK    6  A    between atoms: C_14  and  C_15
REMARK    7  A    between atoms: C_16  and  C_17
REMARK                            x       y       z     vdW  Elec       q    Type
REMARK                         _______ _______ _______ _____ _____    ______ ____
ROOT
ATOM      1  O   UNL     1      18.777   6.039  19.797  0.00  0.00    -0.371 OA
ATOM      9  C   UNL     1      16.499   6.705  19.870  0.00  0.00    +0.111 C 
ATOM     10  C   UNL     1      17.125   6.937  21.231  0.00  0.00    +0.164 C 
ATOM     11  C   UNL     1      18.604   6.978  20.870  0.00  0.00    +0.165 C 
ATOM     12  C   UNL     1      17.484   5.730  19.246  0.00  0.00    +0.181 C 
ENDROOT
BRANCH  10   2
ATOM      2  O   UNL     1      16.695   8.143  21.832  0.00  0.00    -0.388 OA
ATOM     25  H   UNL     1      17.041   8.172  22.740  0.00  0.00    +0.210 HD
ENDBRANCH  10   2
BRANCH   9   4
ATOM      4  N   UNL     1      15.144   6.179  19.932  0.00  0.00    -0.302 NA
ATOM     24  H   UNL     1      14.921   5.946  20.899  0.00  0.00    +0.123 HD
BRANCH   4  14
ATOM     14  C   UNL     1      14.178   7.155  19.445  0.00  0.00    +0.156 C 
BRANCH  14  15
ATOM      6  N   UNL     1      12.578   6.035  21.015  0.00  0.00    -0.347 N 
ATOM      7  N   UNL     1      11.945   8.018  20.243  0.00  0.00    -0.240 NA
ATOM     15  C   UNL     1      12.889   7.103  20.221  0.00  0.00    +0.121 A 
ATOM     18  C   UNL     1      11.358   6.283  21.579  0.00  0.00    +0.104 A 
ATOM     19  C   UNL     1      10.988   7.513  21.087  0.00  0.00    +0.130 A 
ATOM     27  H   UNL     1      13.147   5.210  21.160  0.00  0.00    +0.167 HD
ENDBRANCH  14  15
ENDBRANCH   4  14
ENDBRANCH   9   4
BRANCH  11  13
ATOM     13  C   UNL     1      19.516   6.608  22.027  0.00  0.00    +0.138 C 
BRANCH  13   5
ATOM      3  O   UNL     1      22.349   6.990  21.769  0.00  0.00    -0.270 OA
ATOM      5  N   UNL     1      20.481   5.622  21.637  0.00  0.00    -0.309 N 
ATOM     16  C   UNL     1      21.841   5.897  21.538  0.00  0.00    +0.244 C 
ATOM     26  H   UNL     1      20.119   4.713  21.367  0.00  0.00    +0.149 HD
BRANCH  16  17
ATOM      8  N   UNL     1      24.333   2.658  20.260  0.00  0.00    -0.263 NA
ATOM     17  C   UNL     1      22.707   4.772  21.096  0.00  0.00    +0.040 A 
ATOM     20  C   UNL     1      23.852   5.026  20.349  0.00  0.00    +0.033 A 
ATOM     21  C   UNL     1      22.374   3.464  21.425  0.00  0.00    +0.033 A 
ATOM     22  C   UNL     1      24.624   3.943  19.959  0.00  0.00    +0.111 A 
ATOM     23  C   UNL     1      23.212   2.452  20.987  0.00  0.00    +0.111 A 
ENDBRANCH  16  17
ENDBRANCH  13   5
ENDBRANCH  11  13
TORSDOF 7
ENDMDL
