MODEL 1
REMARK VINA RESULT:      -6.7      0.000      0.000
REMARK  Name = 40777056
REMARK  10 active torsions:
REMARK  status: ('A' for Active; 'I' for Inactive)
REMARK    1  A    between atoms: S_2  and  C_24
REMARK    2  A    between atoms: S_2  and  C_29
REMARK    3  A    between atoms: O_4  and  C_30
REMARK    4  A    between atoms: N_7  and  C_17
REMARK    5  A    between atoms: C_11  and  C_18
REMARK    6  A    between atoms: C_12  and  C_17
REMARK    7  A    between atoms: C_20  and  C_23
REMARK    8  A    between atoms: C_21  and  C_24
REMARK    9  A    between atoms: C_22  and  C_25
REMARK   10  A    between atoms: C_29  and  C_30
REMARK                            x       y       z     vdW  Elec       q    Type
REMARK                         _______ _______ _______ _____ _____    ______ ____
ROOT
ATOM      6  N   UNL     1      11.750  11.582  25.124  0.00  0.00    -0.297 NA
ATOM     10  C   UNL     1      11.320  12.185  22.626  0.00  0.00    +0.002 C 
ATOM     11  C   UNL     1      10.829  10.742  22.931  0.00  0.00    +0.055 C 
ATOM     12  C   UNL     1      12.990  12.132  24.513  0.00  0.00    +0.074 C 
ATOM     13  C   UNL     1      12.816  12.300  22.988  0.00  0.00    +0.024 C 
ATOM     14  C   UNL     1      10.550  13.127  23.577  0.00  0.00    +0.019 C 
ATOM     15  C   UNL     1      11.299  10.386  24.370  0.00  0.00    +0.094 C 
ATOM     16  C   UNL     1      10.695  12.618  25.022  0.00  0.00    +0.085 C 
ENDROOT
BRANCH  11  18
ATOM      8  N   UNL     1      10.848   8.382  22.286  0.00  0.00    -0.237 NA
ATOM      9  N   UNL     1      11.725   7.638  20.168  0.00  0.00    -0.232 NA
ATOM     18  C   UNL     1      11.157   9.646  21.928  0.00  0.00    +0.050 A 
ATOM     19  C   UNL     1      11.744   9.981  20.723  0.00  0.00    +0.052 A 
ATOM     20  C   UNL     1      12.007   8.925  19.874  0.00  0.00    +0.081 A 
ATOM     22  C   UNL     1      11.155   7.441  21.372  0.00  0.00    +0.127 A 
ATOM     25  C   UNL     1      10.828   6.032  21.732  0.00  0.00    +0.088 C 
BRANCH  20  23
ATOM      1  S   UNL     1      12.808   7.791  17.539  0.00  0.00    -0.095 S 
ATOM     23  C   UNL     1      12.617   9.131  18.588  0.00  0.00    +0.038 A 
ATOM     26  C   UNL     1      13.098  10.296  18.031  0.00  0.00    +0.017 A 
ATOM     27  C   UNL     1      13.631  10.085  16.727  0.00  0.00    +0.008 A 
ATOM     28  C   UNL     1      13.537   8.768  16.336  0.00  0.00    +0.046 A 
ENDBRANCH  20  23
ENDBRANCH  11  18
BRANCH  12  17
ATOM     17  C   UNL     1      14.227  11.301  24.858  0.00  0.00    +0.123 C 
BRANCH  17   7
ATOM      3  O   UNL     1      16.588  12.067  23.370  0.00  0.00    -0.275 OA
ATOM      7  N   UNL     1      14.758  10.668  23.689  0.00  0.00    -0.313 N 
ATOM     21  C   UNL     1      15.906  11.102  23.030  0.00  0.00    +0.223 C 
ATOM     31  H   UNL     1      14.257   9.863  23.325  0.00  0.00    +0.149 HD
BRANCH  21  24
ATOM     24  C   UNL     1      16.248  10.277  21.812  0.00  0.00    +0.165 C 
BRANCH  24   2
ATOM      2  S   UNL     1      15.284   8.747  21.851  0.00  0.00    -0.140 S 
BRANCH   2  29
ATOM     29  C   UNL     1      15.598   8.186  20.161  0.00  0.00    +0.189 C 
BRANCH  29  30
ATOM      5  O   UNL     1      16.110   5.953  19.415  0.00  0.00    -0.250 OA
ATOM     30  C   UNL     1      15.407   6.699  20.084  0.00  0.00    +0.315 C 
BRANCH  30   4
ATOM      4  O   UNL     1      14.376   6.262  20.851  0.00  0.00    -0.480 OA
ATOM     32  H   UNL     1      13.978   5.440  20.495  0.00  0.00    +0.295 HD
ENDBRANCH  30   4
ENDBRANCH  29  30
ENDBRANCH   2  29
ENDBRANCH  24   2
ENDBRANCH  21  24
ENDBRANCH  17   7
ENDBRANCH  12  17
TORSDOF 9
ENDMDL
MODEL 2
REMARK VINA RESULT:      -6.5      2.357      4.347
REMARK  Name = 40777056
REMARK  10 active torsions:
REMARK  status: ('A' for Active; 'I' for Inactive)
REMARK    1  A    between atoms: S_2  and  C_24
REMARK    2  A    between atoms: S_2  and  C_29
REMARK    3  A    between atoms: O_4  and  C_30
REMARK    4  A    between atoms: N_7  and  C_17
REMARK    5  A    between atoms: C_11  and  C_18
REMARK    6  A    between atoms: C_12  and  C_17
REMARK    7  A    between atoms: C_20  and  C_23
REMARK    8  A    between atoms: C_21  and  C_24
REMARK    9  A    between atoms: C_22  and  C_25
REMARK   10  A    between atoms: C_29  and  C_30
REMARK                            x       y       z     vdW  Elec       q    Type
REMARK                         _______ _______ _______ _____ _____    ______ ____
ROOT
ATOM      6  N   UNL     1      14.991  13.275  21.738  0.00  0.00    -0.297 NA
ATOM     10  C   UNL     1      16.112  11.002  22.337  0.00  0.00    +0.002 C 
ATOM     11  C   UNL     1      15.913  11.122  20.800  0.00  0.00    +0.055 C 
ATOM     12  C   UNL     1      14.224  12.599  22.818  0.00  0.00    +0.074 C 
ATOM     13  C   UNL     1      14.748  11.165  23.042  0.00  0.00    +0.024 C 
ATOM     14  C   UNL     1      16.990  12.197  22.767  0.00  0.00    +0.019 C 
ATOM     15  C   UNL     1      15.064  12.400  20.542  0.00  0.00    +0.094 C 
ATOM     16  C   UNL     1      16.370  13.500  22.232  0.00  0.00    +0.085 C 
ENDROOT
BRANCH  11  18
ATOM      8  N   UNL     1      16.003   8.736  20.268  0.00  0.00    -0.237 NA
ATOM      9  N   UNL     1      14.463   7.706  18.727  0.00  0.00    -0.232 NA
ATOM     18  C   UNL     1      15.378   9.912  20.049  0.00  0.00    +0.050 A 
ATOM     19  C   UNL     1      14.304  10.062  19.195  0.00  0.00    +0.052 A 
ATOM     20  C   UNL     1      13.885   8.913  18.555  0.00  0.00    +0.081 A 
ATOM     22  C   UNL     1      15.502   7.690  19.584  0.00  0.00    +0.127 A 
ATOM     25  C   UNL     1      16.166   6.373  19.800  0.00  0.00    +0.088 C 
BRANCH  20  23
ATOM      1  S   UNL     1      13.002   9.600  16.079  0.00  0.00    -0.095 S 
ATOM     23  C   UNL     1      12.777   8.927  17.638  0.00  0.00    +0.038 A 
ATOM     26  C   UNL     1      11.494   8.461  17.819  0.00  0.00    +0.017 A 
ATOM     27  C   UNL     1      10.684   8.658  16.664  0.00  0.00    +0.008 A 
ATOM     28  C   UNL     1      11.379   9.268  15.643  0.00  0.00    +0.046 A 
ENDBRANCH  20  23
ENDBRANCH  11  18
BRANCH  12  17
ATOM     17  C   UNL     1      12.716  12.621  22.562  0.00  0.00    +0.123 C 
BRANCH  17   7
ATOM      3  O   UNL     1      10.485  11.603  24.099  0.00  0.00    -0.275 OA
ATOM      7  N   UNL     1      12.183  11.294  22.540  0.00  0.00    -0.313 N 
ATOM     21  C   UNL     1      11.100  10.883  23.316  0.00  0.00    +0.223 C 
ATOM     31  H   UNL     1      12.632  10.620  21.928  0.00  0.00    +0.149 HD
BRANCH  21  24
ATOM     24  C   UNL     1      10.742   9.428  23.125  0.00  0.00    +0.165 C 
BRANCH  24   2
ATOM      2  S   UNL     1      11.851   8.709  21.890  0.00  0.00    -0.140 S 
BRANCH   2  29
ATOM     29  C   UNL     1      10.763   7.400  21.280  0.00  0.00    +0.189 C 
BRANCH  29  30
ATOM      5  O   UNL     1      10.908   5.025  21.662  0.00  0.00    -0.250 OA
ATOM     30  C   UNL     1      11.467   6.077  21.380  0.00  0.00    +0.315 C 
BRANCH  30   4
ATOM      4  O   UNL     1      12.793   6.167  21.109  0.00  0.00    -0.480 OA
ATOM     32  H   UNL     1      12.962   6.310  20.153  0.00  0.00    +0.295 HD
ENDBRANCH  30   4
ENDBRANCH  29  30
ENDBRANCH   2  29
ENDBRANCH  24   2
ENDBRANCH  21  24
ENDBRANCH  17   7
ENDBRANCH  12  17
TORSDOF 9
ENDMDL
MODEL 3
REMARK VINA RESULT:      -6.1      2.821      4.055
REMARK  Name = 40777056
REMARK  10 active torsions:
REMARK  status: ('A' for Active; 'I' for Inactive)
REMARK    1  A    between atoms: S_2  and  C_24
REMARK    2  A    between atoms: S_2  and  C_29
REMARK    3  A    between atoms: O_4  and  C_30
REMARK    4  A    between atoms: N_7  and  C_17
REMARK    5  A    between atoms: C_11  and  C_18
REMARK    6  A    between atoms: C_12  and  C_17
REMARK    7  A    between atoms: C_20  and  C_23
REMARK    8  A    between atoms: C_21  and  C_24
REMARK    9  A    between atoms: C_22  and  C_25
REMARK   10  A    between atoms: C_29  and  C_30
REMARK                            x       y       z     vdW  Elec       q    Type
REMARK                         _______ _______ _______ _____ _____    ______ ____
ROOT
ATOM      6  N   UNL     1      13.392  13.257  22.772  0.00  0.00    -0.297 NA
ATOM     10  C   UNL     1      11.370  11.816  21.986  0.00  0.00    +0.002 C 
ATOM     11  C   UNL     1      12.378  10.946  22.789  0.00  0.00    +0.055 C 
ATOM     12  C   UNL     1      13.154  13.465  21.319  0.00  0.00    +0.074 C 
ATOM     13  C   UNL     1      12.098  12.469  20.793  0.00  0.00    +0.024 C 
ATOM     14  C   UNL     1      10.921  12.957  22.924  0.00  0.00    +0.019 C 
ATOM     15  C   UNL     1      13.640  11.819  23.046  0.00  0.00    +0.094 C 
ATOM     16  C   UNL     1      12.164  13.660  23.497  0.00  0.00    +0.085 C 
ENDROOT
BRANCH  11  18
ATOM      8  N   UNL     1      11.723   8.674  22.165  0.00  0.00    -0.237 NA
ATOM      9  N   UNL     1      13.300   7.080  21.282  0.00  0.00    -0.232 NA
ATOM     18  C   UNL     1      12.729   9.569  22.246  0.00  0.00    +0.050 A 
ATOM     19  C   UNL     1      14.030   9.298  21.870  0.00  0.00    +0.052 A 
ATOM     20  C   UNL     1      14.258   8.024  21.390  0.00  0.00    +0.081 A 
ATOM     22  C   UNL     1      12.073   7.467  21.681  0.00  0.00    +0.127 A 
ATOM     25  C   UNL     1      10.987   6.450  21.575  0.00  0.00    +0.088 C 
BRANCH  20  23
ATOM      1  S   UNL     1      15.702   6.515  19.651  0.00  0.00    -0.095 S 
ATOM     23  C   UNL     1      15.568   7.607  20.964  0.00  0.00    +0.038 A 
ATOM     26  C   UNL     1      16.799   7.963  21.467  0.00  0.00    +0.017 A 
ATOM     27  C   UNL     1      17.867   7.332  20.766  0.00  0.00    +0.008 A 
ATOM     28  C   UNL     1      17.411   6.517  19.754  0.00  0.00    +0.046 A 
ENDBRANCH  20  23
ENDBRANCH  11  18
BRANCH  12  17
ATOM     17  C   UNL     1      14.446  13.411  20.503  0.00  0.00    +0.123 C 
BRANCH  17   7
ATOM      3  O   UNL     1      15.613  13.736  17.875  0.00  0.00    -0.275 OA
ATOM      7  N   UNL     1      14.303  12.539  19.378  0.00  0.00    -0.313 N 
ATOM     21  C   UNL     1      14.901  12.769  18.140  0.00  0.00    +0.223 C 
ATOM     31  H   UNL     1      13.723  11.713  19.497  0.00  0.00    +0.149 HD
BRANCH  21  24
ATOM     24  C   UNL     1      14.580  11.711  17.111  0.00  0.00    +0.165 C 
BRANCH  24   2
ATOM      2  S   UNL     1      14.387  10.119  17.949  0.00  0.00    -0.140 S 
BRANCH   2  29
ATOM     29  C   UNL     1      12.814   9.616  17.213  0.00  0.00    +0.189 C 
BRANCH  29  30
ATOM      5  O   UNL     1      13.703   8.507  15.267  0.00  0.00    -0.250 OA
ATOM     30  C   UNL     1      13.001   9.391  15.740  0.00  0.00    +0.315 C 
BRANCH  30   4
ATOM      4  O   UNL     1      12.294  10.266  14.981  0.00  0.00    -0.480 OA
ATOM     32  H   UNL     1      12.874  10.935  14.559  0.00  0.00    +0.295 HD
ENDBRANCH  30   4
ENDBRANCH  29  30
ENDBRANCH   2  29
ENDBRANCH  24   2
ENDBRANCH  21  24
ENDBRANCH  17   7
ENDBRANCH  12  17
TORSDOF 9
ENDMDL
MODEL 4
REMARK VINA RESULT:      -6.0     17.215     21.875
REMARK  Name = 40777056
REMARK  10 active torsions:
REMARK  status: ('A' for Active; 'I' for Inactive)
REMARK    1  A    between atoms: S_2  and  C_24
REMARK    2  A    between atoms: S_2  and  C_29
REMARK    3  A    between atoms: O_4  and  C_30
REMARK    4  A    between atoms: N_7  and  C_17
REMARK    5  A    between atoms: C_11  and  C_18
REMARK    6  A    between atoms: C_12  and  C_17
REMARK    7  A    between atoms: C_20  and  C_23
REMARK    8  A    between atoms: C_21  and  C_24
REMARK    9  A    between atoms: C_22  and  C_25
REMARK   10  A    between atoms: C_29  and  C_30
REMARK                            x       y       z     vdW  Elec       q    Type
REMARK                         _______ _______ _______ _____ _____    ______ ____
ROOT
ATOM      6  N   UNL     1      11.714   4.104  -0.212  0.00  0.00    -0.297 NA
ATOM     10  C   UNL     1      12.904   4.859   1.979  0.00  0.00    +0.002 C 
ATOM     11  C   UNL     1      11.460   4.368   2.284  0.00  0.00    +0.055 C 
ATOM     12  C   UNL     1      12.317   5.451  -0.399  0.00  0.00    +0.074 C 
ATOM     13  C   UNL     1      12.844   6.002   0.943  0.00  0.00    +0.024 C 
ATOM     14  C   UNL     1      13.643   3.680   1.311  0.00  0.00    +0.019 C 
ATOM     15  C   UNL     1      10.754   4.129   0.919  0.00  0.00    +0.094 C 
ATOM     16  C   UNL     1      12.806   3.161   0.128  0.00  0.00    +0.085 C 
ENDROOT
BRANCH  11  18
ATOM      8  N   UNL     1       9.936   6.233   2.710  0.00  0.00    -0.237 NA
ATOM      9  N   UNL     1       9.067   6.705   4.908  0.00  0.00    -0.232 NA
ATOM     18  C   UNL     1      10.609   5.191   3.240  0.00  0.00    +0.050 A 
ATOM     19  C   UNL     1      10.563   4.848   4.576  0.00  0.00    +0.052 A 
ATOM     20  C   UNL     1       9.768   5.648   5.370  0.00  0.00    +0.081 A 
ATOM     22  C   UNL     1       9.195   6.937   3.587  0.00  0.00    +0.127 A 
ATOM     25  C   UNL     1       8.436   8.097   3.038  0.00  0.00    +0.088 C 
BRANCH  20  23
ATOM      1  S   UNL     1       9.157   6.695   7.803  0.00  0.00    -0.095 S 
ATOM     23  C   UNL     1       9.629   5.403   6.781  0.00  0.00    +0.038 A 
ATOM     26  C   UNL     1       9.825   4.235   7.484  0.00  0.00    +0.017 A 
ATOM     27  C   UNL     1       9.585   4.401   8.878  0.00  0.00    +0.008 A 
ATOM     28  C   UNL     1       9.214   5.691   9.189  0.00  0.00    +0.046 A 
ENDBRANCH  20  23
ENDBRANCH  11  18
BRANCH  12  17
ATOM     17  C   UNL     1      11.358   6.428  -1.080  0.00  0.00    +0.123 C 
BRANCH  17   7
ATOM      3  O   UNL     1       8.621   6.793  -1.949  0.00  0.00    -0.275 OA
ATOM      7  N   UNL     1      10.716   5.815  -2.202  0.00  0.00    -0.313 N 
ATOM     21  C   UNL     1       9.387   6.046  -2.554  0.00  0.00    +0.223 C 
ATOM     31  H   UNL     1      11.267   5.171  -2.761  0.00  0.00    +0.149 HD
BRANCH  21  24
ATOM     24  C   UNL     1       8.943   5.264  -3.768  0.00  0.00    +0.165 C 
BRANCH  24   2
ATOM      2  S   UNL     1      10.393   4.508  -4.541  0.00  0.00    -0.140 S 
BRANCH   2  29
ATOM     29  C   UNL     1       9.720   2.853  -4.816  0.00  0.00    +0.189 C 
BRANCH  29  30
ATOM      5  O   UNL     1       8.926   1.149  -3.308  0.00  0.00    -0.250 OA
ATOM     30  C   UNL     1       9.642   2.121  -3.506  0.00  0.00    +0.315 C 
BRANCH  30   4
ATOM      4  O   UNL     1      10.467   2.645  -2.564  0.00  0.00    -0.480 OA
ATOM     32  H   UNL     1       9.968   3.123  -1.868  0.00  0.00    +0.295 HD
ENDBRANCH  30   4
ENDBRANCH  29  30
ENDBRANCH   2  29
ENDBRANCH  24   2
ENDBRANCH  21  24
ENDBRANCH  17   7
ENDBRANCH  12  17
TORSDOF 9
ENDMDL
MODEL 5
REMARK VINA RESULT:      -6.0     27.805     29.348
REMARK  Name = 40777056
REMARK  10 active torsions:
REMARK  status: ('A' for Active; 'I' for Inactive)
REMARK    1  A    between atoms: S_2  and  C_24
REMARK    2  A    between atoms: S_2  and  C_29
REMARK    3  A    between atoms: O_4  and  C_30
REMARK    4  A    between atoms: N_7  and  C_17
REMARK    5  A    between atoms: C_11  and  C_18
REMARK    6  A    between atoms: C_12  and  C_17
REMARK    7  A    between atoms: C_20  and  C_23
REMARK    8  A    between atoms: C_21  and  C_24
REMARK    9  A    between atoms: C_22  and  C_25
REMARK   10  A    between atoms: C_29  and  C_30
REMARK                            x       y       z     vdW  Elec       q    Type
REMARK                         _______ _______ _______ _____ _____    ______ ____
ROOT
ATOM      6  N   UNL     1      -6.152 -10.334  17.624  0.00  0.00    -0.297 NA
ATOM     10  C   UNL     1      -4.716 -12.479  17.275  0.00  0.00    +0.002 C 
ATOM     11  C   UNL     1      -4.105 -11.281  16.493  0.00  0.00    +0.055 C 
ATOM     12  C   UNL     1      -7.025 -11.472  17.232  0.00  0.00    +0.074 C 
ATOM     13  C   UNL     1      -6.175 -12.692  16.820  0.00  0.00    +0.024 C 
ATOM     14  C   UNL     1      -4.760 -12.064  18.761  0.00  0.00    +0.019 C 
ATOM     15  C   UNL     1      -5.117 -10.104  16.585  0.00  0.00    +0.094 C 
ATOM     16  C   UNL     1      -5.466 -10.701  18.886  0.00  0.00    +0.085 C 
ENDROOT
BRANCH  11  18
ATOM      8  N   UNL     1      -2.846 -12.604  14.865  0.00  0.00    -0.237 NA
ATOM      9  N   UNL     1      -2.739 -12.005  12.533  0.00  0.00    -0.232 NA
ATOM     18  C   UNL     1      -3.627 -11.523  15.069  0.00  0.00    +0.050 A 
ATOM     19  C   UNL     1      -4.002 -10.647  14.069  0.00  0.00    +0.052 A 
ATOM     20  C   UNL     1      -3.524 -10.942  12.809  0.00  0.00    +0.081 A 
ATOM     22  C   UNL     1      -2.443 -12.783  13.593  0.00  0.00    +0.127 A 
ATOM     25  C   UNL     1      -1.579 -13.968  13.328  0.00  0.00    +0.088 C 
BRANCH  20  23
ATOM      1  S   UNL     1      -5.389  -9.398  11.576  0.00  0.00    -0.095 S 
ATOM     23  C   UNL     1      -3.836 -10.113  11.675  0.00  0.00    +0.038 A 
ATOM     26  C   UNL     1      -3.045  -9.782  10.597  0.00  0.00    +0.017 A 
ATOM     27  C   UNL     1      -3.723  -8.930   9.678  0.00  0.00    +0.008 A 
ATOM     28  C   UNL     1      -5.006  -8.643  10.088  0.00  0.00    +0.046 A 
ENDBRANCH  20  23
ENDBRANCH  11  18
BRANCH  12  17
ATOM     17  C   UNL     1      -8.031 -11.085  16.146  0.00  0.00    +0.123 C 
BRANCH  17   7
ATOM      3  O   UNL     1      -9.030  -8.387  16.466  0.00  0.00    -0.275 OA
ATOM      7  N   UNL     1      -9.277 -10.685  16.725  0.00  0.00    -0.313 N 
ATOM     21  C   UNL     1      -9.684  -9.357  16.842  0.00  0.00    +0.223 C 
ATOM     31  H   UNL     1      -9.887 -11.418  17.075  0.00  0.00    +0.149 HD
BRANCH  21  24
ATOM     24  C   UNL     1     -11.032  -9.198  17.506  0.00  0.00    +0.165 C 
BRANCH  24   2
ATOM      2  S   UNL     1     -11.823 -10.821  17.623  0.00  0.00    -0.140 S 
BRANCH   2  29
ATOM     29  C   UNL     1     -11.873 -10.967  19.425  0.00  0.00    +0.189 C 
BRANCH  29  30
ATOM      5  O   UNL     1      -9.619 -11.796  19.619  0.00  0.00    -0.250 OA
ATOM     30  C   UNL     1     -10.471 -10.988  19.964  0.00  0.00    +0.315 C 
BRANCH  30   4
ATOM      4  O   UNL     1     -10.241 -10.002  20.867  0.00  0.00    -0.480 OA
ATOM     32  H   UNL     1      -9.516  -9.407  20.582  0.00  0.00    +0.295 HD
ENDBRANCH  30   4
ENDBRANCH  29  30
ENDBRANCH   2  29
ENDBRANCH  24   2
ENDBRANCH  21  24
ENDBRANCH  17   7
ENDBRANCH  12  17
TORSDOF 9
ENDMDL
MODEL 6
REMARK VINA RESULT:      -5.9     26.293     28.917
REMARK  Name = 40777056
REMARK  10 active torsions:
REMARK  status: ('A' for Active; 'I' for Inactive)
REMARK    1  A    between atoms: S_2  and  C_24
REMARK    2  A    between atoms: S_2  and  C_29
REMARK    3  A    between atoms: O_4  and  C_30
REMARK    4  A    between atoms: N_7  and  C_17
REMARK    5  A    between atoms: C_11  and  C_18
REMARK    6  A    between atoms: C_12  and  C_17
REMARK    7  A    between atoms: C_20  and  C_23
REMARK    8  A    between atoms: C_21  and  C_24
REMARK    9  A    between atoms: C_22  and  C_25
REMARK   10  A    between atoms: C_29  and  C_30
REMARK                            x       y       z     vdW  Elec       q    Type
REMARK                         _______ _______ _______ _____ _____    ______ ____
ROOT
ATOM      6  N   UNL     1      -7.502 -11.698  17.642  0.00  0.00    -0.297 NA
ATOM     10  C   UNL     1      -5.008 -11.434  18.345  0.00  0.00    +0.002 C 
ATOM     11  C   UNL     1      -5.322 -10.547  17.107  0.00  0.00    +0.055 C 
ATOM     12  C   UNL     1      -6.876 -13.037  17.806  0.00  0.00    +0.074 C 
ATOM     13  C   UNL     1      -5.353 -12.903  18.018  0.00  0.00    +0.024 C 
ATOM     14  C   UNL     1      -5.964 -10.983  19.470  0.00  0.00    +0.019 C 
ATOM     15  C   UNL     1      -6.757 -10.909  16.629  0.00  0.00    +0.094 C 
ATOM     16  C   UNL     1      -7.409 -10.990  18.940  0.00  0.00    +0.085 C 
ENDROOT
BRANCH  11  18
ATOM      8  N   UNL     1      -3.014 -10.606  16.298  0.00  0.00    -0.237 NA
ATOM      9  N   UNL     1      -2.474 -10.502  13.951  0.00  0.00    -0.232 NA
ATOM     18  C   UNL     1      -4.319 -10.530  15.963  0.00  0.00    +0.050 A 
ATOM     19  C   UNL     1      -4.773 -10.438  14.663  0.00  0.00    +0.052 A 
ATOM     20  C   UNL     1      -3.796 -10.429  13.689  0.00  0.00    +0.081 A 
ATOM     22  C   UNL     1      -2.158 -10.588  15.258  0.00  0.00    +0.127 A 
ATOM     25  C   UNL     1      -0.706 -10.671  15.588  0.00  0.00    +0.088 C 
BRANCH  20  23
ATOM      1  S   UNL     1      -5.735 -10.672  11.801  0.00  0.00    -0.095 S 
ATOM     23  C   UNL     1      -4.129 -10.336  12.292  0.00  0.00    +0.038 A 
ATOM     26  C   UNL     1      -3.322 -10.002  11.227  0.00  0.00    +0.017 A 
ATOM     27  C   UNL     1      -4.031 -10.022   9.992  0.00  0.00    +0.008 A 
ATOM     28  C   UNL     1      -5.353 -10.371  10.159  0.00  0.00    +0.046 A 
ENDBRANCH  20  23
ENDBRANCH  11  18
BRANCH  12  17
ATOM     17  C   UNL     1      -7.210 -13.981  16.650  0.00  0.00    +0.123 C 
BRANCH  17   7
ATOM      3  O   UNL     1      -7.222 -13.431  13.809  0.00  0.00    -0.275 OA
ATOM      7  N   UNL     1      -6.109 -14.087  15.743  0.00  0.00    -0.313 N 
ATOM     21  C   UNL     1      -6.199 -13.802  14.381  0.00  0.00    +0.223 C 
ATOM     31  H   UNL     1      -5.219 -14.396  16.122  0.00  0.00    +0.149 HD
BRANCH  21  24
ATOM     24  C   UNL     1      -4.901 -14.008  13.637  0.00  0.00    +0.165 C 
BRANCH  24   2
ATOM      2  S   UNL     1      -3.551 -14.126  14.835  0.00  0.00    -0.140 S 
BRANCH   2  29
ATOM     29  C   UNL     1      -2.517 -15.323  13.959  0.00  0.00    +0.189 C 
BRANCH  29  30
ATOM      5  O   UNL     1      -0.193 -15.171  13.339  0.00  0.00    -0.250 OA
ATOM     30  C   UNL     1      -1.289 -14.635  13.436  0.00  0.00    +0.315 C 
BRANCH  30   4
ATOM      4  O   UNL     1      -1.526 -13.351  13.065  0.00  0.00    -0.480 OA
ATOM     32  H   UNL     1      -2.020 -13.300  12.219  0.00  0.00    +0.295 HD
ENDBRANCH  30   4
ENDBRANCH  29  30
ENDBRANCH   2  29
ENDBRANCH  24   2
ENDBRANCH  21  24
ENDBRANCH  17   7
ENDBRANCH  12  17
TORSDOF 9
ENDMDL
MODEL 7
REMARK VINA RESULT:      -5.8     27.782     29.076
REMARK  Name = 40777056
REMARK  10 active torsions:
REMARK  status: ('A' for Active; 'I' for Inactive)
REMARK    1  A    between atoms: S_2  and  C_24
REMARK    2  A    between atoms: S_2  and  C_29
REMARK    3  A    between atoms: O_4  and  C_30
REMARK    4  A    between atoms: N_7  and  C_17
REMARK    5  A    between atoms: C_11  and  C_18
REMARK    6  A    between atoms: C_12  and  C_17
REMARK    7  A    between atoms: C_20  and  C_23
REMARK    8  A    between atoms: C_21  and  C_24
REMARK    9  A    between atoms: C_22  and  C_25
REMARK   10  A    between atoms: C_29  and  C_30
REMARK                            x       y       z     vdW  Elec       q    Type
REMARK                         _______ _______ _______ _____ _____    ______ ____
ROOT
ATOM      6  N   UNL     1      -6.477 -10.434  17.442  0.00  0.00    -0.297 NA
ATOM     10  C   UNL     1      -4.441 -12.056  17.371  0.00  0.00    +0.002 C 
ATOM     11  C   UNL     1      -4.207 -10.847  16.421  0.00  0.00    +0.055 C 
ATOM     12  C   UNL     1      -6.946 -11.828  17.224  0.00  0.00    +0.074 C 
ATOM     13  C   UNL     1      -5.749 -12.770  16.972  0.00  0.00    +0.024 C 
ATOM     14  C   UNL     1      -4.653 -11.476  18.786  0.00  0.00    +0.019 C 
ATOM     15  C   UNL     1      -5.535 -10.039  16.365  0.00  0.00    +0.094 C 
ATOM     16  C   UNL     1      -5.747 -10.395  18.732  0.00  0.00    +0.085 C 
ENDROOT
BRANCH  11  18
ATOM      8  N   UNL     1      -2.713 -12.098  14.943  0.00  0.00    -0.237 NA
ATOM      9  N   UNL     1      -2.581 -11.655  12.578  0.00  0.00    -0.232 NA
ATOM     18  C   UNL     1      -3.638 -11.121  15.037  0.00  0.00    +0.050 A 
ATOM     19  C   UNL     1      -4.080 -10.376  13.962  0.00  0.00    +0.052 A 
ATOM     20  C   UNL     1      -3.511 -10.691  12.744  0.00  0.00    +0.081 A 
ATOM     22  C   UNL     1      -2.233 -12.310  13.703  0.00  0.00    +0.127 A 
ATOM     25  C   UNL     1      -1.208 -13.383  13.558  0.00  0.00    +0.088 C 
BRANCH  20  23
ATOM      1  S   UNL     1      -5.518  -9.558  11.306  0.00  0.00    -0.095 S 
ATOM     23  C   UNL     1      -3.879  -9.993  11.541  0.00  0.00    +0.038 A 
ATOM     26  C   UNL     1      -3.083  -9.595  10.490  0.00  0.00    +0.017 A 
ATOM     27  C   UNL     1      -3.828  -8.925   9.478  0.00  0.00    +0.008 A 
ATOM     28  C   UNL     1      -5.166  -8.835   9.794  0.00  0.00    +0.046 A 
ENDBRANCH  20  23
ENDBRANCH  11  18
BRANCH  12  17
ATOM     17  C   UNL     1      -7.991 -11.924  16.112  0.00  0.00    +0.123 C 
BRANCH  17   7
ATOM      3  O   UNL     1      -9.085  -9.394  15.229  0.00  0.00    -0.275 OA
ATOM      7  N   UNL     1      -9.225 -11.324  16.519  0.00  0.00    -0.313 N 
ATOM     21  C   UNL     1      -9.681 -10.095  16.043  0.00  0.00    +0.223 C 
ATOM     31  H   UNL     1      -9.787 -11.826  17.199  0.00  0.00    +0.149 HD
BRANCH  21  24
ATOM     24  C   UNL     1     -11.003  -9.673  16.641  0.00  0.00    +0.165 C 
BRANCH  24   2
ATOM      2  S   UNL     1     -10.812  -8.035  17.385  0.00  0.00    -0.140 S 
BRANCH   2  29
ATOM     29  C   UNL     1     -11.919  -7.113  16.292  0.00  0.00    +0.189 C 
BRANCH  29  30
ATOM      5  O   UNL     1     -11.591  -5.436  14.592  0.00  0.00    -0.250 OA
ATOM     30  C   UNL     1     -11.107  -6.232  15.386  0.00  0.00    +0.315 C 
BRANCH  30   4
ATOM      4  O   UNL     1      -9.770  -6.401  15.551  0.00  0.00    -0.480 OA
ATOM     32  H   UNL     1      -9.464  -7.262  15.195  0.00  0.00    +0.295 HD
ENDBRANCH  30   4
ENDBRANCH  29  30
ENDBRANCH   2  29
ENDBRANCH  24   2
ENDBRANCH  21  24
ENDBRANCH  17   7
ENDBRANCH  12  17
TORSDOF 9
ENDMDL
MODEL 8
REMARK VINA RESULT:      -5.8     17.878     22.277
REMARK  Name = 40777056
REMARK  10 active torsions:
REMARK  status: ('A' for Active; 'I' for Inactive)
REMARK    1  A    between atoms: S_2  and  C_24
REMARK    2  A    between atoms: S_2  and  C_29
REMARK    3  A    between atoms: O_4  and  C_30
REMARK    4  A    between atoms: N_7  and  C_17
REMARK    5  A    between atoms: C_11  and  C_18
REMARK    6  A    between atoms: C_12  and  C_17
REMARK    7  A    between atoms: C_20  and  C_23
REMARK    8  A    between atoms: C_21  and  C_24
REMARK    9  A    between atoms: C_22  and  C_25
REMARK   10  A    between atoms: C_29  and  C_30
REMARK                            x       y       z     vdW  Elec       q    Type
REMARK                         _______ _______ _______ _____ _____    ______ ____
ROOT
ATOM      6  N   UNL     1      13.158   5.482   1.798  0.00  0.00    -0.297 NA
ATOM     10  C   UNL     1      13.663   3.554   0.121  0.00  0.00    +0.002 C 
ATOM     11  C   UNL     1      13.214   4.833  -0.639  0.00  0.00    +0.055 C 
ATOM     12  C   UNL     1      12.451   4.243   2.220  0.00  0.00    +0.074 C 
ATOM     13  C   UNL     1      12.569   3.153   1.133  0.00  0.00    +0.024 C 
ATOM     14  C   UNL     1      14.917   3.938   0.936  0.00  0.00    +0.019 C 
ATOM     15  C   UNL     1      12.740   5.863   0.426  0.00  0.00    +0.094 C 
ATOM     16  C   UNL     1      14.611   5.192   1.776  0.00  0.00    +0.085 C 
ENDROOT
BRANCH  11  18
ATOM      8  N   UNL     1      10.982   5.186  -1.577  0.00  0.00    -0.237 NA
ATOM      9  N   UNL     1      10.383   4.428  -3.784  0.00  0.00    -0.232 NA
ATOM     18  C   UNL     1      12.216   4.678  -1.777  0.00  0.00    +0.050 A 
ATOM     19  C   UNL     1      12.603   4.040  -2.938  0.00  0.00    +0.052 A 
ATOM     20  C   UNL     1      11.636   3.943  -3.917  0.00  0.00    +0.081 A 
ATOM     22  C   UNL     1      10.128   5.028  -2.606  0.00  0.00    +0.127 A 
ATOM     25  C   UNL     1       8.754   5.577  -2.422  0.00  0.00    +0.088 C 
BRANCH  20  23
ATOM      1  S   UNL     1      10.603   3.013  -6.252  0.00  0.00    -0.095 S 
ATOM     23  C   UNL     1      11.904   3.302  -5.177  0.00  0.00    +0.038 A 
ATOM     26  C   UNL     1      13.104   2.857  -5.687  0.00  0.00    +0.017 A 
ATOM     27  C   UNL     1      12.953   2.273  -6.977  0.00  0.00    +0.008 A 
ATOM     28  C   UNL     1      11.644   2.292  -7.405  0.00  0.00    +0.046 A 
ENDBRANCH  20  23
ENDBRANCH  11  18
BRANCH  12  17
ATOM     17  C   UNL     1      10.995   4.506   2.608  0.00  0.00    +0.123 C 
BRANCH  17   7
ATOM      3  O   UNL     1      10.050   4.266   5.332  0.00  0.00    -0.275 OA
ATOM      7  N   UNL     1      10.909   5.544   3.590  0.00  0.00    -0.313 N 
ATOM     21  C   UNL     1      10.439   5.343   4.887  0.00  0.00    +0.223 C 
ATOM     31  H   UNL     1      11.200   6.476   3.312  0.00  0.00    +0.149 HD
BRANCH  21  24
ATOM     24  C   UNL     1      10.429   6.600   5.724  0.00  0.00    +0.165 C 
BRANCH  24   2
ATOM      2  S   UNL     1      11.162   6.236   7.337  0.00  0.00    -0.140 S 
BRANCH   2  29
ATOM     29  C   UNL     1       9.638   6.082   8.297  0.00  0.00    +0.189 C 
BRANCH  29  30
ATOM      5  O   UNL     1       8.931   4.463   9.936  0.00  0.00    -0.250 OA
ATOM     30  C   UNL     1       9.585   4.723   8.935  0.00  0.00    +0.315 C 
BRANCH  30   4
ATOM      4  O   UNL     1      10.330   3.803   8.272  0.00  0.00    -0.480 OA
ATOM     32  H   UNL     1      11.236   3.733   8.640  0.00  0.00    +0.295 HD
ENDBRANCH  30   4
ENDBRANCH  29  30
ENDBRANCH   2  29
ENDBRANCH  24   2
ENDBRANCH  21  24
ENDBRANCH  17   7
ENDBRANCH  12  17
TORSDOF 9
ENDMDL
MODEL 9
REMARK VINA RESULT:      -5.7     17.454     21.941
REMARK  Name = 40777056
REMARK  10 active torsions:
REMARK  status: ('A' for Active; 'I' for Inactive)
REMARK    1  A    between atoms: S_2  and  C_24
REMARK    2  A    between atoms: S_2  and  C_29
REMARK    3  A    between atoms: O_4  and  C_30
REMARK    4  A    between atoms: N_7  and  C_17
REMARK    5  A    between atoms: C_11  and  C_18
REMARK    6  A    between atoms: C_12  and  C_17
REMARK    7  A    between atoms: C_20  and  C_23
REMARK    8  A    between atoms: C_21  and  C_24
REMARK    9  A    between atoms: C_22  and  C_25
REMARK   10  A    between atoms: C_29  and  C_30
REMARK                            x       y       z     vdW  Elec       q    Type
REMARK                         _______ _______ _______ _____ _____    ______ ____
ROOT
ATOM      6  N   UNL     1      13.152   5.556   1.781  0.00  0.00    -0.297 NA
ATOM     10  C   UNL     1      13.832   3.589   0.215  0.00  0.00    +0.002 C 
ATOM     11  C   UNL     1      13.441   4.841  -0.621  0.00  0.00    +0.055 C 
ATOM     12  C   UNL     1      12.423   4.320   2.172  0.00  0.00    +0.074 C 
ATOM     13  C   UNL     1      12.653   3.202   1.133  0.00  0.00    +0.024 C 
ATOM     14  C   UNL     1      15.000   4.012   1.131  0.00  0.00    +0.019 C 
ATOM     15  C   UNL     1      12.860   5.893   0.366  0.00  0.00    +0.094 C 
ATOM     16  C   UNL     1      14.604   5.284   1.902  0.00  0.00    +0.085 C 
ENDROOT
BRANCH  11  18
ATOM      8  N   UNL     1      13.060   3.892  -2.843  0.00  0.00    -0.237 NA
ATOM      9  N   UNL     1      11.009   4.251  -4.057  0.00  0.00    -0.232 NA
ATOM     18  C   UNL     1      12.555   4.641  -1.841  0.00  0.00    +0.050 A 
ATOM     19  C   UNL     1      11.302   5.221  -1.873  0.00  0.00    +0.052 A 
ATOM     20  C   UNL     1      10.566   4.989  -3.017  0.00  0.00    +0.081 A 
ATOM     22  C   UNL     1      12.246   3.740  -3.905  0.00  0.00    +0.127 A 
ATOM     25  C   UNL     1      12.769   2.917  -5.033  0.00  0.00    +0.088 C 
BRANCH  20  23
ATOM      1  S   UNL     1       8.289   5.000  -4.500  0.00  0.00    -0.095 S 
ATOM     23  C   UNL     1       9.245   5.534  -3.183  0.00  0.00    +0.038 A 
ATOM     26  C   UNL     1       8.587   6.466  -2.411  0.00  0.00    +0.017 A 
ATOM     27  C   UNL     1       7.282   6.746  -2.907  0.00  0.00    +0.008 A 
ATOM     28  C   UNL     1       6.991   6.018  -4.040  0.00  0.00    +0.046 A 
ENDBRANCH  20  23
ENDBRANCH  11  18
BRANCH  12  17
ATOM     17  C   UNL     1      10.935   4.575   2.415  0.00  0.00    +0.123 C 
BRANCH  17   7
ATOM      3  O   UNL     1      10.104   4.306   5.175  0.00  0.00    -0.275 OA
ATOM      7  N   UNL     1      10.747   5.624   3.370  0.00  0.00    -0.313 N 
ATOM     21  C   UNL     1      10.342   5.408   4.686  0.00  0.00    +0.223 C 
ATOM     31  H   UNL     1      10.911   6.576   3.057  0.00  0.00    +0.149 HD
BRANCH  21  24
ATOM     24  C   UNL     1      10.199   6.681   5.487  0.00  0.00    +0.165 C 
BRANCH  24   2
ATOM      2  S   UNL     1       9.098   6.371   6.889  0.00  0.00    -0.140 S 
BRANCH   2  29
ATOM     29  C   UNL     1      10.352   6.176   8.178  0.00  0.00    +0.189 C 
BRANCH  29  30
ATOM      5  O   UNL     1       9.839   4.759  10.058  0.00  0.00    -0.250 OA
ATOM     30  C   UNL     1      10.148   4.863   8.878  0.00  0.00    +0.315 C 
BRANCH  30   4
ATOM      4  O   UNL     1      10.328   3.797   8.058  0.00  0.00    -0.480 OA
ATOM     32  H   UNL     1       9.489   3.512   7.639  0.00  0.00    +0.295 HD
ENDBRANCH  30   4
ENDBRANCH  29  30
ENDBRANCH   2  29
ENDBRANCH  24   2
ENDBRANCH  21  24
ENDBRANCH  17   7
ENDBRANCH  12  17
TORSDOF 9
ENDMDL
MODEL 10
REMARK VINA RESULT:      -5.7     26.399     29.482
REMARK  Name = 40777056
REMARK  10 active torsions:
REMARK  status: ('A' for Active; 'I' for Inactive)
REMARK    1  A    between atoms: S_2  and  C_24
REMARK    2  A    between atoms: S_2  and  C_29
REMARK    3  A    between atoms: O_4  and  C_30
REMARK    4  A    between atoms: N_7  and  C_17
REMARK    5  A    between atoms: C_11  and  C_18
REMARK    6  A    between atoms: C_12  and  C_17
REMARK    7  A    between atoms: C_20  and  C_23
REMARK    8  A    between atoms: C_21  and  C_24
REMARK    9  A    between atoms: C_22  and  C_25
REMARK   10  A    between atoms: C_29  and  C_30
REMARK                            x       y       z     vdW  Elec       q    Type
REMARK                         _______ _______ _______ _____ _____    ______ ____
ROOT
ATOM      6  N   UNL     1      -5.686 -10.906  10.304  0.00  0.00    -0.297 NA
ATOM     10  C   UNL     1      -3.274 -11.490  11.096  0.00  0.00    +0.002 C 
ATOM     11  C   UNL     1      -4.296 -11.726  12.243  0.00  0.00    +0.055 C 
ATOM     12  C   UNL     1      -4.759  -9.791   9.974  0.00  0.00    +0.074 C 
ATOM     13  C   UNL     1      -3.375 -10.026  10.617  0.00  0.00    +0.024 C 
ATOM     14  C   UNL     1      -3.715 -12.385   9.917  0.00  0.00    +0.019 C 
ATOM     15  C   UNL     1      -5.667 -11.169  11.764  0.00  0.00    +0.094 C 
ATOM     16  C   UNL     1      -5.200 -12.122   9.609  0.00  0.00    +0.085 C 
ENDROOT
BRANCH  11  18
ATOM      8  N   UNL     1      -2.629 -10.978  13.870  0.00  0.00    -0.237 NA
ATOM      9  N   UNL     1      -3.219 -10.374  16.127  0.00  0.00    -0.232 NA
ATOM     18  C   UNL     1      -3.932 -11.242  13.639  0.00  0.00    +0.050 A 
ATOM     19  C   UNL     1      -4.924 -11.100  14.589  0.00  0.00    +0.052 A 
ATOM     20  C   UNL     1      -4.504 -10.657  15.827  0.00  0.00    +0.081 A 
ATOM     22  C   UNL     1      -2.347 -10.553  15.116  0.00  0.00    +0.127 A 
ATOM     25  C   UNL     1      -0.917 -10.249  15.410  0.00  0.00    +0.088 C 
BRANCH  20  23
ATOM      1  S   UNL     1      -7.009  -9.894  16.556  0.00  0.00    -0.095 S 
ATOM     23  C   UNL     1      -5.433 -10.465  16.909  0.00  0.00    +0.038 A 
ATOM     26  C   UNL     1      -5.251 -10.678  18.258  0.00  0.00    +0.017 A 
ATOM     27  C   UNL     1      -6.420 -10.369  19.011  0.00  0.00    +0.008 A 
ATOM     28  C   UNL     1      -7.451  -9.931  18.210  0.00  0.00    +0.046 A 
ENDBRANCH  20  23
ENDBRANCH  11  18
BRANCH  12  17
ATOM     17  C   UNL     1      -5.336  -8.425  10.348  0.00  0.00    +0.123 C 
BRANCH  17   7
ATOM      3  O   UNL     1      -8.139  -8.517   9.629  0.00  0.00    -0.275 OA
ATOM      7  N   UNL     1      -5.962  -7.809   9.217  0.00  0.00    -0.313 N 
ATOM     21  C   UNL     1      -7.325  -7.903   8.942  0.00  0.00    +0.223 C 
ATOM     31  H   UNL     1      -5.368  -7.285   8.582  0.00  0.00    +0.149 HD
BRANCH  21  24
ATOM     24  C   UNL     1      -7.734  -7.181   7.680  0.00  0.00    +0.165 C 
BRANCH  24   2
ATOM      2  S   UNL     1      -9.482  -6.731   7.802  0.00  0.00    -0.140 S 
BRANCH   2  29
ATOM     29  C   UNL     1      -9.289  -5.106   8.571  0.00  0.00    +0.189 C 
BRANCH  29  30
ATOM      5  O   UNL     1     -10.836  -3.550   9.568  0.00  0.00    -0.250 OA
ATOM     30  C   UNL     1     -10.644  -4.519   8.845  0.00  0.00    +0.315 C 
BRANCH  30   4
ATOM      4  O   UNL     1     -11.640  -5.169   8.191  0.00  0.00    -0.480 OA
ATOM     32  H   UNL     1     -12.097  -4.586   7.549  0.00  0.00    +0.295 HD
ENDBRANCH  30   4
ENDBRANCH  29  30
ENDBRANCH   2  29
ENDBRANCH  24   2
ENDBRANCH  21  24
ENDBRANCH  17   7
ENDBRANCH  12  17
TORSDOF 9
ENDMDL
