MODEL 1
REMARK VINA RESULT:      -7.1      0.000      0.000
REMARK  Name = 56774615
REMARK  7 active torsions:
REMARK  status: ('A' for Active; 'I' for Inactive)
REMARK    1  A    between atoms: O_2  and  C_10
REMARK    2  A    between atoms: N_7  and  C_12
REMARK    3  A    between atoms: N_8  and  C_21
REMARK    4  A    between atoms: C_9  and  C_10
REMARK    5  A    between atoms: C_10  and  C_14
REMARK    6  A    between atoms: C_12  and  C_16
REMARK    7  A    between atoms: C_27  and  C_28
REMARK                            x       y       z     vdW  Elec       q    Type
REMARK                         _______ _______ _______ _____ _____    ______ ____
ROOT
ATOM     14  C   UNL     1     -13.481   6.813  21.008  0.00  0.00    -0.017 A 
ATOM     17  C   UNL     1     -14.799   6.986  21.433  0.00  0.00    +0.008 A 
ATOM     18  C   UNL     1     -12.659   5.883  21.644  0.00  0.00    +0.008 A 
ATOM     19  C   UNL     1     -15.294   6.227  22.494  0.00  0.00    +0.023 A 
ATOM     20  C   UNL     1     -13.154   5.125  22.705  0.00  0.00    +0.023 A 
ATOM     21  C   UNL     1     -14.472   5.297  23.130  0.00  0.00    +0.034 A 
ENDROOT
BRANCH  21   8
ATOM      6  O   UNL     1     -16.234   2.872  23.121  0.00  0.00    -0.270 OA
ATOM      8  N   UNL     1     -14.966   4.539  24.191  0.00  0.00    -0.282 N 
ATOM     27  C   UNL     1     -15.791   3.407  24.133  0.00  0.00    +0.248 C 
ATOM     36  H   UNL     1     -14.637   4.847  25.102  0.00  0.00    +0.155 HD
BRANCH  27  28
ATOM      4  O   UNL     1     -16.108   3.455  29.053  0.00  0.00    -0.453 OA
ATOM      5  O   UNL     1     -17.019   1.225  29.131  0.00  0.00    -0.453 OA
ATOM     28  C   UNL     1     -16.129   2.796  25.444  0.00  0.00    +0.041 A 
ATOM     29  C   UNL     1     -15.916   3.518  26.621  0.00  0.00    +0.062 A 
ATOM     30  C   UNL     1     -16.245   2.910  27.814  0.00  0.00    +0.167 A 
ATOM     31  C   UNL     1     -16.765   1.636  27.858  0.00  0.00    +0.166 A 
ATOM     32  C   UNL     1     -16.661   1.495  25.489  0.00  0.00    +0.017 A 
ATOM     33  C   UNL     1     -16.985   0.901  26.711  0.00  0.00    +0.050 A 
ATOM     34  C   UNL     1     -16.600   2.382  29.883  0.00  0.00    +0.466 C 
ENDBRANCH  27  28
ENDBRANCH  21   8
BRANCH  14  10
ATOM     10  C   UNL     1     -12.945   7.632  19.861  0.00  0.00    +0.167 C 
BRANCH  10   9
ATOM      1  O   UNL     1     -11.036   9.194  18.272  0.00  0.00    -0.369 OA
ATOM      3  O   UNL     1     -13.563  11.748  18.623  0.00  0.00    -0.273 OA
ATOM      7  N   UNL     1     -12.941  10.084  20.125  0.00  0.00    -0.287 N 
ATOM      9  C   UNL     1     -12.168   8.857  20.350  0.00  0.00    +0.135 C 
ATOM     11  C   UNL     1     -10.813   8.959  19.658  0.00  0.00    +0.185 C 
ATOM     13  C   UNL     1     -12.825  10.816  18.945  0.00  0.00    +0.242 C 
ATOM     15  C   UNL     1     -11.638  10.451  18.062  0.00  0.00    +0.255 C 
BRANCH   7  12
ATOM     12  C   UNL     1     -13.971  10.418  21.100  0.00  0.00    +0.143 C 
BRANCH  12  16
ATOM     16  C   UNL     1     -13.407  10.577  22.483  0.00  0.00    -0.030 A 
ATOM     22  C   UNL     1     -14.015   9.934  23.561  0.00  0.00    +0.005 A 
ATOM     23  C   UNL     1     -12.276  11.367  22.687  0.00  0.00    +0.005 A 
ATOM     24  C   UNL     1     -13.491  10.082  24.846  0.00  0.00    +0.000 A 
ATOM     25  C   UNL     1     -11.752  11.515  23.971  0.00  0.00    +0.000 A 
ATOM     26  C   UNL     1     -12.359  10.872  25.051  0.00  0.00    +0.000 A 
ENDBRANCH  12  16
ENDBRANCH   7  12
ENDBRANCH  10   9
BRANCH  10   2
ATOM      2  O   UNL     1     -14.025   8.057  19.036  0.00  0.00    -0.385 OA
ATOM     35  H   UNL     1     -14.128   9.021  19.115  0.00  0.00    +0.210 HD
ENDBRANCH  10   2
ENDBRANCH  14  10
TORSDOF 7
ENDMDL
MODEL 2
REMARK VINA RESULT:      -6.9     30.294     34.909
REMARK  Name = 56774615
REMARK  7 active torsions:
REMARK  status: ('A' for Active; 'I' for Inactive)
REMARK    1  A    between atoms: O_2  and  C_10
REMARK    2  A    between atoms: N_7  and  C_12
REMARK    3  A    between atoms: N_8  and  C_21
REMARK    4  A    between atoms: C_9  and  C_10
REMARK    5  A    between atoms: C_10  and  C_14
REMARK    6  A    between atoms: C_12  and  C_16
REMARK    7  A    between atoms: C_27  and  C_28
REMARK                            x       y       z     vdW  Elec       q    Type
REMARK                         _______ _______ _______ _____ _____    ______ ____
ROOT
ATOM     14  C   UNL     1      15.148   7.220   1.439  0.00  0.00    -0.017 A 
ATOM     17  C   UNL     1      13.779   7.069   1.215  0.00  0.00    +0.008 A 
ATOM     18  C   UNL     1      15.647   7.206   2.741  0.00  0.00    +0.008 A 
ATOM     19  C   UNL     1      12.911   6.904   2.294  0.00  0.00    +0.023 A 
ATOM     20  C   UNL     1      14.779   7.041   3.820  0.00  0.00    +0.023 A 
ATOM     21  C   UNL     1      13.410   6.890   3.596  0.00  0.00    +0.034 A 
ENDROOT
BRANCH  21   8
ATOM      6  O   UNL     1      11.072   8.550   4.470  0.00  0.00    -0.270 OA
ATOM      8  N   UNL     1      12.541   6.726   4.675  0.00  0.00    -0.282 N 
ATOM     27  C   UNL     1      11.458   7.535   5.041  0.00  0.00    +0.248 C 
ATOM     36  H   UNL     1      12.719   5.885   5.218  0.00  0.00    +0.155 HD
BRANCH  27  28
ATOM      4  O   UNL     1      10.361   4.277   8.576  0.00  0.00    -0.453 OA
ATOM      5  O   UNL     1       8.670   5.706   9.528  0.00  0.00    -0.453 OA
ATOM     28  C   UNL     1      10.697   7.081   6.234  0.00  0.00    +0.041 A 
ATOM     29  C   UNL     1      10.968   5.830   6.794  0.00  0.00    +0.062 A 
ATOM     30  C   UNL     1      10.237   5.452   7.901  0.00  0.00    +0.167 A 
ATOM     31  C   UNL     1       9.271   6.268   8.444  0.00  0.00    +0.166 A 
ATOM     32  C   UNL     1       9.710   7.915   6.790  0.00  0.00    +0.017 A 
ATOM     33  C   UNL     1       8.983   7.508   7.911  0.00  0.00    +0.050 A 
ATOM     34  C   UNL     1       9.364   4.445   9.606  0.00  0.00    +0.466 C 
ENDBRANCH  27  28
ENDBRANCH  21   8
BRANCH  14  10
ATOM     10  C   UNL     1      16.087   7.398   0.273  0.00  0.00    +0.167 C 
BRANCH  10   9
ATOM      1  O   UNL     1      16.601   8.139  -2.519  0.00  0.00    -0.369 OA
ATOM      3  O   UNL     1      18.596   5.130  -2.452  0.00  0.00    -0.273 OA
ATOM      7  N   UNL     1      16.612   5.600  -1.332  0.00  0.00    -0.287 N 
ATOM      9  C   UNL     1      15.621   6.617  -0.959  0.00  0.00    +0.135 C 
ATOM     11  C   UNL     1      15.363   7.551  -2.135  0.00  0.00    +0.185 C 
ATOM     13  C   UNL     1      17.641   5.876  -2.229  0.00  0.00    +0.242 C 
ATOM     15  C   UNL     1      17.487   7.167  -3.026  0.00  0.00    +0.255 C 
BRANCH   7  12
ATOM     12  C   UNL     1      16.594   4.342  -0.596  0.00  0.00    +0.143 C 
BRANCH  12  16
ATOM     16  C   UNL     1      15.213   3.983  -0.129  0.00  0.00    -0.030 A 
ATOM     22  C   UNL     1      14.990   3.672   1.211  0.00  0.00    +0.005 A 
ATOM     23  C   UNL     1      14.154   3.961  -1.037  0.00  0.00    +0.005 A 
ATOM     24  C   UNL     1      13.706   3.337   1.646  0.00  0.00    +0.000 A 
ATOM     25  C   UNL     1      12.871   3.627  -0.604  0.00  0.00    +0.000 A 
ATOM     26  C   UNL     1      12.647   3.316   0.737  0.00  0.00    +0.000 A 
ENDBRANCH  12  16
ENDBRANCH   7  12
ENDBRANCH  10   9
BRANCH  10   2
ATOM      2  O   UNL     1      17.392   6.961   0.642  0.00  0.00    -0.385 OA
ATOM     35  H   UNL     1      17.873   6.682  -0.155  0.00  0.00    +0.210 HD
ENDBRANCH  10   2
ENDBRANCH  14  10
TORSDOF 7
ENDMDL
MODEL 3
REMARK VINA RESULT:      -6.9      2.258      4.110
REMARK  Name = 56774615
REMARK  7 active torsions:
REMARK  status: ('A' for Active; 'I' for Inactive)
REMARK    1  A    between atoms: O_2  and  C_10
REMARK    2  A    between atoms: N_7  and  C_12
REMARK    3  A    between atoms: N_8  and  C_21
REMARK    4  A    between atoms: C_9  and  C_10
REMARK    5  A    between atoms: C_10  and  C_14
REMARK    6  A    between atoms: C_12  and  C_16
REMARK    7  A    between atoms: C_27  and  C_28
REMARK                            x       y       z     vdW  Elec       q    Type
REMARK                         _______ _______ _______ _____ _____    ______ ____
ROOT
ATOM     14  C   UNL     1     -11.949   8.708  20.465  0.00  0.00    -0.017 A 
ATOM     17  C   UNL     1     -13.080   9.152  21.152  0.00  0.00    +0.008 A 
ATOM     18  C   UNL     1     -11.611   7.355  20.480  0.00  0.00    +0.008 A 
ATOM     19  C   UNL     1     -13.872   8.241  21.852  0.00  0.00    +0.023 A 
ATOM     20  C   UNL     1     -12.402   6.445  21.180  0.00  0.00    +0.023 A 
ATOM     21  C   UNL     1     -13.534   6.889  21.866  0.00  0.00    +0.034 A 
ENDROOT
BRANCH  21   8
ATOM      6  O   UNL     1     -15.749   5.111  20.908  0.00  0.00    -0.270 OA
ATOM      8  N   UNL     1     -14.325   5.979  22.566  0.00  0.00    -0.282 N 
ATOM     27  C   UNL     1     -15.354   5.167  22.068  0.00  0.00    +0.248 C 
ATOM     36  H   UNL     1     -14.074   5.887  23.546  0.00  0.00    +0.155 HD
BRANCH  27  28
ATOM      4  O   UNL     1     -15.786   3.174  26.557  0.00  0.00    -0.453 OA
ATOM      5  O   UNL     1     -17.687   1.843  25.909  0.00  0.00    -0.453 OA
ATOM     28  C   UNL     1     -15.999   4.273  23.063  0.00  0.00    +0.041 A 
ATOM     29  C   UNL     1     -15.498   4.210  24.366  0.00  0.00    +0.062 A 
ATOM     30  C   UNL     1     -16.131   3.366  25.255  0.00  0.00    +0.167 A 
ATOM     31  C   UNL     1     -17.216   2.605  24.884  0.00  0.00    +0.166 A 
ATOM     32  C   UNL     1     -17.109   3.496  22.685  0.00  0.00    +0.017 A 
ATOM     33  C   UNL     1     -17.730   2.648  23.604  0.00  0.00    +0.050 A 
ATOM     34  C   UNL     1     -16.776   2.208  26.965  0.00  0.00    +0.466 C 
ENDBRANCH  27  28
ENDBRANCH  21   8
BRANCH  14  10
ATOM     10  C   UNL     1     -11.093   9.691  19.708  0.00  0.00    +0.167 C 
BRANCH  10   9
ATOM      1  O   UNL     1     -10.074  11.826  17.972  0.00  0.00    -0.369 OA
ATOM      3  O   UNL     1     -10.352   9.257  15.451  0.00  0.00    -0.273 OA
ATOM      7  N   UNL     1     -11.691   9.633  17.316  0.00  0.00    -0.287 N 
ATOM      9  C   UNL     1     -11.869  10.367  18.574  0.00  0.00    +0.135 C 
ATOM     11  C   UNL     1     -11.431  11.817  18.399  0.00  0.00    +0.185 C 
ATOM     13  C   UNL     1     -10.659   9.938  16.431  0.00  0.00    +0.242 C 
ATOM     15  C   UNL     1      -9.943  11.258  16.689  0.00  0.00    +0.255 C 
BRANCH   7  12
ATOM     12  C   UNL     1     -12.518   8.453  17.104  0.00  0.00    +0.143 C 
BRANCH  12  16
ATOM     16  C   UNL     1     -13.979   8.751  17.281  0.00  0.00    -0.030 A 
ATOM     22  C   UNL     1     -14.734   8.016  18.194  0.00  0.00    +0.005 A 
ATOM     23  C   UNL     1     -14.580   9.762  16.531  0.00  0.00    +0.005 A 
ATOM     24  C   UNL     1     -16.092   8.292  18.359  0.00  0.00    +0.000 A 
ATOM     25  C   UNL     1     -15.937  10.039  16.696  0.00  0.00    +0.000 A 
ATOM     26  C   UNL     1     -16.694   9.304  17.610  0.00  0.00    +0.000 A 
ENDBRANCH  12  16
ENDBRANCH   7  12
ENDBRANCH  10   9
BRANCH  10   2
ATOM      2  O   UNL     1      -9.960   9.018  19.168  0.00  0.00    -0.385 OA
ATOM     35  H   UNL     1     -10.032   8.067  19.359  0.00  0.00    +0.210 HD
ENDBRANCH  10   2
ENDBRANCH  14  10
TORSDOF 7
ENDMDL
MODEL 4
REMARK VINA RESULT:      -6.8     29.055     33.765
REMARK  Name = 56774615
REMARK  7 active torsions:
REMARK  status: ('A' for Active; 'I' for Inactive)
REMARK    1  A    between atoms: O_2  and  C_10
REMARK    2  A    between atoms: N_7  and  C_12
REMARK    3  A    between atoms: N_8  and  C_21
REMARK    4  A    between atoms: C_9  and  C_10
REMARK    5  A    between atoms: C_10  and  C_14
REMARK    6  A    between atoms: C_12  and  C_16
REMARK    7  A    between atoms: C_27  and  C_28
REMARK                            x       y       z     vdW  Elec       q    Type
REMARK                         _______ _______ _______ _____ _____    ______ ____
ROOT
ATOM     14  C   UNL     1      11.897   3.833  -0.308  0.00  0.00    -0.017 A 
ATOM     17  C   UNL     1      12.740   3.540   0.765  0.00  0.00    +0.008 A 
ATOM     18  C   UNL     1      10.656   4.425  -0.079  0.00  0.00    +0.008 A 
ATOM     19  C   UNL     1      12.340   3.842   2.067  0.00  0.00    +0.023 A 
ATOM     20  C   UNL     1      10.256   4.726   1.223  0.00  0.00    +0.023 A 
ATOM     21  C   UNL     1      11.099   4.435   2.296  0.00  0.00    +0.034 A 
ENDROOT
BRANCH  21   8
ATOM      6  O   UNL     1      10.227   7.038   3.500  0.00  0.00    -0.270 OA
ATOM      8  N   UNL     1      10.699   4.736   3.598  0.00  0.00    -0.282 N 
ATOM     27  C   UNL     1      10.298   5.977   4.113  0.00  0.00    +0.248 C 
ATOM     36  H   UNL     1      10.666   3.928   4.213  0.00  0.00    +0.155 HD
BRANCH  27  28
ATOM      4  O   UNL     1       9.952   3.910   8.576  0.00  0.00    -0.453 OA
ATOM      5  O   UNL     1       8.849   5.838   9.510  0.00  0.00    -0.453 OA
ATOM     28  C   UNL     1       9.899   5.975   5.543  0.00  0.00    +0.041 A 
ATOM     29  C   UNL     1      10.166   4.855   6.336  0.00  0.00    +0.062 A 
ATOM     30  C   UNL     1       9.777   4.900   7.659  0.00  0.00    +0.167 A 
ATOM     31  C   UNL     1       9.147   6.001   8.192  0.00  0.00    +0.166 A 
ATOM     32  C   UNL     1       9.255   7.100   6.089  0.00  0.00    +0.017 A 
ATOM     33  C   UNL     1       8.871   7.119   7.431  0.00  0.00    +0.050 A 
ATOM     34  C   UNL     1       9.361   4.512   9.747  0.00  0.00    +0.466 C 
ENDBRANCH  27  28
ENDBRANCH  21   8
BRANCH  14  10
ATOM     10  C   UNL     1      12.329   3.508  -1.716  0.00  0.00    +0.167 C 
BRANCH  10   9
ATOM      1  O   UNL     1      13.795   4.411  -4.091  0.00  0.00    -0.369 OA
ATOM      3  O   UNL     1      11.062   2.791  -5.808  0.00  0.00    -0.273 OA
ATOM      7  N   UNL     1      11.050   3.935  -3.782  0.00  0.00    -0.287 N 
ATOM      9  C   UNL     1      11.845   4.560  -2.717  0.00  0.00    +0.135 C 
ATOM     11  C   UNL     1      13.019   5.322  -3.322  0.00  0.00    +0.185 C 
ATOM     13  C   UNL     1      11.637   3.474  -4.958  0.00  0.00    +0.242 C 
ATOM     15  C   UNL     1      13.068   3.940  -5.203  0.00  0.00    +0.255 C 
BRANCH   7  12
ATOM     12  C   UNL     1       9.652   3.645  -3.494  0.00  0.00    +0.143 C 
BRANCH  12  16
ATOM     16  C   UNL     1       8.769   4.835  -3.740  0.00  0.00    -0.030 A 
ATOM     22  C   UNL     1       8.243   5.062  -5.011  0.00  0.00    +0.005 A 
ATOM     23  C   UNL     1       8.476   5.713  -2.696  0.00  0.00    +0.005 A 
ATOM     24  C   UNL     1       7.423   6.167  -5.240  0.00  0.00    +0.000 A 
ATOM     25  C   UNL     1       7.656   6.818  -2.924  0.00  0.00    +0.000 A 
ATOM     26  C   UNL     1       7.129   7.046  -4.196  0.00  0.00    +0.000 A 
ENDBRANCH  12  16
ENDBRANCH   7  12
ENDBRANCH  10   9
BRANCH  10   2
ATOM      2  O   UNL     1      11.816   2.232  -2.088  0.00  0.00    -0.385 OA
ATOM     35  H   UNL     1      12.556   1.644  -2.314  0.00  0.00    +0.210 HD
ENDBRANCH  10   2
ENDBRANCH  14  10
TORSDOF 7
ENDMDL
MODEL 5
REMARK VINA RESULT:      -6.7     16.512     18.967
REMARK  Name = 56774615
REMARK  7 active torsions:
REMARK  status: ('A' for Active; 'I' for Inactive)
REMARK    1  A    between atoms: O_2  and  C_10
REMARK    2  A    between atoms: N_7  and  C_12
REMARK    3  A    between atoms: N_8  and  C_21
REMARK    4  A    between atoms: C_9  and  C_10
REMARK    5  A    between atoms: C_10  and  C_14
REMARK    6  A    between atoms: C_12  and  C_16
REMARK    7  A    between atoms: C_27  and  C_28
REMARK                            x       y       z     vdW  Elec       q    Type
REMARK                         _______ _______ _______ _____ _____    ______ ____
ROOT
ATOM     14  C   UNL     1     -11.737  -7.907  15.311  0.00  0.00    -0.017 A 
ATOM     17  C   UNL     1     -11.035  -7.507  16.448  0.00  0.00    +0.008 A 
ATOM     18  C   UNL     1     -11.128  -8.738  14.371  0.00  0.00    +0.008 A 
ATOM     19  C   UNL     1      -9.723  -7.939  16.645  0.00  0.00    +0.023 A 
ATOM     20  C   UNL     1      -9.816  -9.169  14.567  0.00  0.00    +0.023 A 
ATOM     21  C   UNL     1      -9.113  -8.770  15.705  0.00  0.00    +0.034 A 
ENDROOT
BRANCH  21   8
ATOM      6  O   UNL     1      -8.047 -11.044  17.341  0.00  0.00    -0.270 OA
ATOM      8  N   UNL     1      -7.801  -9.201  15.901  0.00  0.00    -0.282 N 
ATOM     27  C   UNL     1      -7.354 -10.276  16.680  0.00  0.00    +0.248 C 
ATOM     36  H   UNL     1      -7.114  -8.675  15.368  0.00  0.00    +0.155 HD
BRANCH  27  28
ATOM      4  O   UNL     1      -2.951 -10.449  14.466  0.00  0.00    -0.453 OA
ATOM      5  O   UNL     1      -1.829 -11.107  16.494  0.00  0.00    -0.453 OA
ATOM     28  C   UNL     1      -5.886 -10.506  16.667  0.00  0.00    +0.041 A 
ATOM     29  C   UNL     1      -5.169 -10.338  15.480  0.00  0.00    +0.062 A 
ATOM     30  C   UNL     1      -3.808 -10.561  15.517  0.00  0.00    +0.167 A 
ATOM     31  C   UNL     1      -3.167 -10.938  16.676  0.00  0.00    +0.166 A 
ATOM     32  C   UNL     1      -5.231 -10.890  17.851  0.00  0.00    +0.017 A 
ATOM     33  C   UNL     1      -3.852 -11.111  17.861  0.00  0.00    +0.050 A 
ATOM     34  C   UNL     1      -1.699 -10.796  15.093  0.00  0.00    +0.466 C 
ENDBRANCH  27  28
ENDBRANCH  21   8
BRANCH  14  10
ATOM     10  C   UNL     1     -13.155  -7.442  15.098  0.00  0.00    +0.167 C 
BRANCH  10   9
ATOM      1  O   UNL     1     -15.848  -7.400  13.934  0.00  0.00    -0.369 OA
ATOM      3  O   UNL     1     -14.971  -3.970  13.225  0.00  0.00    -0.273 OA
ATOM      7  N   UNL     1     -13.607  -5.855  13.265  0.00  0.00    -0.287 N 
ATOM      9  C   UNL     1     -13.484  -7.276  13.612  0.00  0.00    +0.135 C 
ATOM     11  C   UNL     1     -14.765  -8.016  13.248  0.00  0.00    +0.185 C 
ATOM     13  C   UNL     1     -14.829  -5.189  13.334  0.00  0.00    +0.242 C 
ATOM     15  C   UNL     1     -16.056  -6.083  13.475  0.00  0.00    +0.255 C 
BRANCH   7  12
ATOM     12  C   UNL     1     -12.378  -5.113  13.020  0.00  0.00    +0.143 C 
BRANCH  12  16
ATOM     16  C   UNL     1     -12.129  -4.905  11.553  0.00  0.00    -0.030 A 
ATOM     22  C   UNL     1     -12.028  -6.004  10.701  0.00  0.00    +0.005 A 
ATOM     23  C   UNL     1     -12.000  -3.613  11.045  0.00  0.00    +0.005 A 
ATOM     24  C   UNL     1     -11.797  -5.811   9.338  0.00  0.00    +0.000 A 
ATOM     25  C   UNL     1     -11.769  -3.419   9.683  0.00  0.00    +0.000 A 
ATOM     26  C   UNL     1     -11.668  -4.518   8.830  0.00  0.00    +0.000 A 
ENDBRANCH  12  16
ENDBRANCH   7  12
ENDBRANCH  10   9
BRANCH  10   2
ATOM      2  O   UNL     1     -13.353  -6.200  15.766  0.00  0.00    -0.385 OA
ATOM     35  H   UNL     1     -13.719  -5.554  15.138  0.00  0.00    +0.210 HD
ENDBRANCH  10   2
ENDBRANCH  14  10
TORSDOF 7
ENDMDL
MODEL 6
REMARK VINA RESULT:      -6.6     16.378     18.567
REMARK  Name = 56774615
REMARK  7 active torsions:
REMARK  status: ('A' for Active; 'I' for Inactive)
REMARK    1  A    between atoms: O_2  and  C_10
REMARK    2  A    between atoms: N_7  and  C_12
REMARK    3  A    between atoms: N_8  and  C_21
REMARK    4  A    between atoms: C_9  and  C_10
REMARK    5  A    between atoms: C_10  and  C_14
REMARK    6  A    between atoms: C_12  and  C_16
REMARK    7  A    between atoms: C_27  and  C_28
REMARK                            x       y       z     vdW  Elec       q    Type
REMARK                         _______ _______ _______ _____ _____    ______ ____
ROOT
ATOM     14  C   UNL     1     -12.434  -6.506  14.204  0.00  0.00    -0.017 A 
ATOM     17  C   UNL     1     -11.582  -5.800  15.055  0.00  0.00    +0.008 A 
ATOM     18  C   UNL     1     -12.164  -7.838  13.895  0.00  0.00    +0.008 A 
ATOM     19  C   UNL     1     -10.461  -6.429  15.597  0.00  0.00    +0.023 A 
ATOM     20  C   UNL     1     -11.042  -8.467  14.436  0.00  0.00    +0.023 A 
ATOM     21  C   UNL     1     -10.191  -7.762  15.288  0.00  0.00    +0.034 A 
ENDROOT
BRANCH  21   8
ATOM      6  O   UNL     1      -9.838  -9.170  17.910  0.00  0.00    -0.270 OA
ATOM      8  N   UNL     1      -9.069  -8.391  15.828  0.00  0.00    -0.282 N 
ATOM     27  C   UNL     1      -8.956  -9.038  17.066  0.00  0.00    +0.248 C 
ATOM     36  H   UNL     1      -8.265  -8.397  15.208  0.00  0.00    +0.155 HD
BRANCH  27  28
ATOM      4  O   UNL     1      -4.347 -10.297  15.847  0.00  0.00    -0.453 OA
ATOM      5  O   UNL     1      -3.920 -11.275  18.007  0.00  0.00    -0.453 OA
ATOM     28  C   UNL     1      -7.629  -9.642  17.351  0.00  0.00    +0.041 A 
ATOM     29  C   UNL     1      -6.640  -9.637  16.365  0.00  0.00    +0.062 A 
ATOM     30  C   UNL     1      -5.423 -10.208  16.675  0.00  0.00    +0.167 A 
ATOM     31  C   UNL     1      -5.180 -10.767  17.909  0.00  0.00    +0.166 A 
ATOM     32  C   UNL     1      -7.380 -10.213  18.612  0.00  0.00    +0.017 A 
ATOM     33  C   UNL     1      -6.139 -10.785  18.901  0.00  0.00    +0.050 A 
ATOM     34  C   UNL     1      -3.399 -10.973  16.697  0.00  0.00    +0.466 C 
ENDBRANCH  27  28
ENDBRANCH  21   8
BRANCH  14  10
ATOM     10  C   UNL     1     -13.646  -5.827  13.619  0.00  0.00    +0.167 C 
BRANCH  10   9
ATOM      1  O   UNL     1     -16.070  -5.298  12.051  0.00  0.00    -0.369 OA
ATOM      3  O   UNL     1     -13.839  -3.121  10.228  0.00  0.00    -0.273 OA
ATOM      7  N   UNL     1     -13.384  -5.156  11.260  0.00  0.00    -0.287 N 
ATOM      9  C   UNL     1     -13.866  -6.216  12.154  0.00  0.00    +0.135 C 
ATOM     11  C   UNL     1     -15.337  -6.504  11.877  0.00  0.00    +0.185 C 
ATOM     13  C   UNL     1     -14.218  -4.126  10.832  0.00  0.00    +0.242 C 
ATOM     15  C   UNL     1     -15.707  -4.341  11.081  0.00  0.00    +0.255 C 
BRANCH   7  12
ATOM     12  C   UNL     1     -11.956  -5.112  10.977  0.00  0.00    +0.143 C 
BRANCH  12  16
ATOM     16  C   UNL     1     -11.625  -5.738   9.653  0.00  0.00    -0.030 A 
ATOM     22  C   UNL     1     -10.501  -5.315   8.944  0.00  0.00    +0.005 A 
ATOM     23  C   UNL     1     -12.442  -6.741   9.133  0.00  0.00    +0.005 A 
ATOM     24  C   UNL     1     -10.193  -5.896   7.713  0.00  0.00    +0.000 A 
ATOM     25  C   UNL     1     -12.135  -7.322   7.903  0.00  0.00    +0.000 A 
ATOM     26  C   UNL     1     -11.011  -6.900   7.192  0.00  0.00    +0.000 A 
ENDBRANCH  12  16
ENDBRANCH   7  12
ENDBRANCH  10   9
BRANCH  10   2
ATOM      2  O   UNL     1     -13.493  -4.415  13.714  0.00  0.00    -0.385 OA
ATOM     35  H   UNL     1     -13.343  -4.049  12.825  0.00  0.00    +0.210 HD
ENDBRANCH  10   2
ENDBRANCH  14  10
TORSDOF 7
ENDMDL
MODEL 7
REMARK VINA RESULT:      -6.6     22.277     24.872
REMARK  Name = 56774615
REMARK  7 active torsions:
REMARK  status: ('A' for Active; 'I' for Inactive)
REMARK    1  A    between atoms: O_2  and  C_10
REMARK    2  A    between atoms: N_7  and  C_12
REMARK    3  A    between atoms: N_8  and  C_21
REMARK    4  A    between atoms: C_9  and  C_10
REMARK    5  A    between atoms: C_10  and  C_14
REMARK    6  A    between atoms: C_12  and  C_16
REMARK    7  A    between atoms: C_27  and  C_28
REMARK                            x       y       z     vdW  Elec       q    Type
REMARK                         _______ _______ _______ _____ _____    ______ ____
ROOT
ATOM     14  C   UNL     1      -3.391 -10.557  10.402  0.00  0.00    -0.017 A 
ATOM     17  C   UNL     1      -3.538  -9.186  10.188  0.00  0.00    +0.008 A 
ATOM     18  C   UNL     1      -4.069 -11.466   9.590  0.00  0.00    +0.008 A 
ATOM     19  C   UNL     1      -4.362  -8.725   9.161  0.00  0.00    +0.023 A 
ATOM     20  C   UNL     1      -4.893 -11.005   8.563  0.00  0.00    +0.023 A 
ATOM     21  C   UNL     1      -5.039  -9.634   8.349  0.00  0.00    +0.034 A 
ENDROOT
BRANCH  21   8
ATOM      6  O   UNL     1      -8.005  -9.200   8.295  0.00  0.00    -0.270 OA
ATOM      8  N   UNL     1      -5.864  -9.173   7.322  0.00  0.00    -0.282 N 
ATOM     27  C   UNL     1      -7.253  -8.987   7.349  0.00  0.00    +0.248 C 
ATOM     36  H   UNL     1      -5.360  -8.912   6.480  0.00  0.00    +0.155 HD
BRANCH  27  28
ATOM      4  O   UNL     1      -7.518  -8.547   2.445  0.00  0.00    -0.453 OA
ATOM      5  O   UNL     1      -9.398  -7.045   2.567  0.00  0.00    -0.453 OA
ATOM     28  C   UNL     1      -7.848  -8.452   6.098  0.00  0.00    +0.041 A 
ATOM     29  C   UNL     1      -7.314  -8.823   4.862  0.00  0.00    +0.062 A 
ATOM     30  C   UNL     1      -7.900  -8.301   3.728  0.00  0.00    +0.167 A 
ATOM     31  C   UNL     1      -8.974  -7.443   3.797  0.00  0.00    +0.166 A 
ATOM     32  C   UNL     1      -8.946  -7.575   6.169  0.00  0.00    +0.017 A 
ATOM     33  C   UNL     1      -9.521  -7.060   5.005  0.00  0.00    +0.050 A 
ATOM     34  C   UNL     1      -8.471  -7.748   1.715  0.00  0.00    +0.466 C 
ENDBRANCH  27  28
ENDBRANCH  21   8
BRANCH  14  10
ATOM     10  C   UNL     1      -2.501 -11.056  11.511  0.00  0.00    +0.167 C 
BRANCH  10   9
ATOM      1  O   UNL     1      -1.300 -12.708  13.618  0.00  0.00    -0.369 OA
ATOM      3  O   UNL     1      -2.946 -10.319  15.768  0.00  0.00    -0.273 OA
ATOM      7  N   UNL     1      -3.627 -11.148  13.704  0.00  0.00    -0.287 N 
ATOM      9  C   UNL     1      -3.268 -11.925  12.511  0.00  0.00    +0.135 C 
ATOM     11  C   UNL     1      -2.454 -13.150  12.912  0.00  0.00    +0.185 C 
ATOM     13  C   UNL     1      -2.788 -11.083  14.814  0.00  0.00    +0.242 C 
ATOM     15  C   UNL     1      -1.656 -12.103  14.841  0.00  0.00    +0.255 C 
BRANCH   7  12
ATOM     12  C   UNL     1      -4.807 -10.297  13.622  0.00  0.00    +0.143 C 
BRANCH  12  16
ATOM     16  C   UNL     1      -5.977 -11.016  13.013  0.00  0.00    -0.030 A 
ATOM     22  C   UNL     1      -6.615 -10.483  11.893  0.00  0.00    +0.005 A 
ATOM     23  C   UNL     1      -6.424 -12.214  13.569  0.00  0.00    +0.005 A 
ATOM     24  C   UNL     1      -7.703 -11.150  11.328  0.00  0.00    +0.000 A 
ATOM     25  C   UNL     1      -7.511 -12.881  13.004  0.00  0.00    +0.000 A 
ATOM     26  C   UNL     1      -8.151 -12.350  11.883  0.00  0.00    +0.000 A 
ENDBRANCH  12  16
ENDBRANCH   7  12
ENDBRANCH  10   9
BRANCH  10   2
ATOM      2  O   UNL     1      -1.926  -9.947  12.195  0.00  0.00    -0.385 OA
ATOM     35  H   UNL     1      -1.445 -10.267  12.977  0.00  0.00    +0.210 HD
ENDBRANCH  10   2
ENDBRANCH  14  10
TORSDOF 7
ENDMDL
MODEL 8
REMARK VINA RESULT:      -6.5     18.575     23.328
REMARK  Name = 56774615
REMARK  7 active torsions:
REMARK  status: ('A' for Active; 'I' for Inactive)
REMARK    1  A    between atoms: O_2  and  C_10
REMARK    2  A    between atoms: N_7  and  C_12
REMARK    3  A    between atoms: N_8  and  C_21
REMARK    4  A    between atoms: C_9  and  C_10
REMARK    5  A    between atoms: C_10  and  C_14
REMARK    6  A    between atoms: C_12  and  C_16
REMARK    7  A    between atoms: C_27  and  C_28
REMARK                            x       y       z     vdW  Elec       q    Type
REMARK                         _______ _______ _______ _____ _____    ______ ____
ROOT
ATOM     14  C   UNL     1      -2.642   9.771   3.483  0.00  0.00    -0.017 A 
ATOM     17  C   UNL     1      -3.760  10.090   2.712  0.00  0.00    +0.008 A 
ATOM     18  C   UNL     1      -2.735   8.799   4.478  0.00  0.00    +0.008 A 
ATOM     19  C   UNL     1      -4.971   9.435   2.936  0.00  0.00    +0.023 A 
ATOM     20  C   UNL     1      -3.946   8.144   4.703  0.00  0.00    +0.023 A 
ATOM     21  C   UNL     1      -5.064   8.462   3.931  0.00  0.00    +0.034 A 
ENDROOT
BRANCH  21   8
ATOM      6  O   UNL     1      -7.227   9.026   5.928  0.00  0.00    -0.270 OA
ATOM      8  N   UNL     1      -6.275   7.808   4.156  0.00  0.00    -0.282 N 
ATOM     27  C   UNL     1      -7.257   8.113   5.108  0.00  0.00    +0.248 C 
ATOM     36  H   UNL     1      -6.455   7.046   3.508  0.00  0.00    +0.155 HD
BRANCH  27  28
ATOM      4  O   UNL     1     -12.066   7.243   5.768  0.00  0.00    -0.453 OA
ATOM      5  O   UNL     1     -11.864   4.947   5.065  0.00  0.00    -0.453 OA
ATOM     28  C   UNL     1      -8.461   7.243   5.084  0.00  0.00    +0.041 A 
ATOM     29  C   UNL     1      -9.700   7.762   5.470  0.00  0.00    +0.062 A 
ATOM     30  C   UNL     1     -10.789   6.917   5.431  0.00  0.00    +0.167 A 
ATOM     31  C   UNL     1     -10.673   5.605   5.030  0.00  0.00    +0.166 A 
ATOM     32  C   UNL     1      -8.344   5.903   4.674  0.00  0.00    +0.017 A 
ATOM     33  C   UNL     1      -9.462   5.067   4.644  0.00  0.00    +0.050 A 
ATOM     34  C   UNL     1     -12.742   5.991   5.534  0.00  0.00    +0.466 C 
ENDBRANCH  27  28
ENDBRANCH  21   8
BRANCH  14  10
ATOM     10  C   UNL     1      -1.332  10.478   3.241  0.00  0.00    +0.167 C 
BRANCH  10   9
ATOM      1  O   UNL     1       0.502  12.639   2.483  0.00  0.00    -0.369 OA
ATOM      3  O   UNL     1       1.705  10.157   0.153  0.00  0.00    -0.273 OA
ATOM      7  N   UNL     1      -0.458  10.510   0.934  0.00  0.00    -0.287 N 
ATOM      9  C   UNL     1      -1.320  11.209   1.895  0.00  0.00    +0.135 C 
ATOM     11  C   UNL     1      -0.856  12.652   2.059  0.00  0.00    +0.185 C 
ATOM     13  C   UNL     1       0.895  10.815   0.809  0.00  0.00    +0.242 C 
ATOM     15  C   UNL     1       1.341  12.109   1.482  0.00  0.00    +0.255 C 
BRANCH   7  12
ATOM     12  C   UNL     1      -1.020   9.358   0.242  0.00  0.00    +0.143 C 
BRANCH  12  16
ATOM     16  C   UNL     1      -1.898   9.766  -0.906  0.00  0.00    -0.030 A 
ATOM     22  C   UNL     1      -3.273   9.542  -0.846  0.00  0.00    +0.005 A 
ATOM     23  C   UNL     1      -1.338  10.368  -2.032  0.00  0.00    +0.005 A 
ATOM     24  C   UNL     1      -4.089   9.920  -1.913  0.00  0.00    +0.000 A 
ATOM     25  C   UNL     1      -2.153  10.747  -3.099  0.00  0.00    +0.000 A 
ATOM     26  C   UNL     1      -3.529  10.523  -3.039  0.00  0.00    +0.000 A 
ENDBRANCH  12  16
ENDBRANCH   7  12
ENDBRANCH  10   9
BRANCH  10   2
ATOM      2  O   UNL     1      -0.268   9.533   3.273  0.00  0.00    -0.385 OA
ATOM     35  H   UNL     1      -0.593   8.675   2.953  0.00  0.00    +0.210 HD
ENDBRANCH  10   2
ENDBRANCH  14  10
TORSDOF 7
ENDMDL
MODEL 9
REMARK VINA RESULT:      -6.4      1.855      2.661
REMARK  Name = 56774615
REMARK  7 active torsions:
REMARK  status: ('A' for Active; 'I' for Inactive)
REMARK    1  A    between atoms: O_2  and  C_10
REMARK    2  A    between atoms: N_7  and  C_12
REMARK    3  A    between atoms: N_8  and  C_21
REMARK    4  A    between atoms: C_9  and  C_10
REMARK    5  A    between atoms: C_10  and  C_14
REMARK    6  A    between atoms: C_12  and  C_16
REMARK    7  A    between atoms: C_27  and  C_28
REMARK                            x       y       z     vdW  Elec       q    Type
REMARK                         _______ _______ _______ _____ _____    ______ ____
ROOT
ATOM     14  C   UNL     1     -13.033   7.442  20.152  0.00  0.00    -0.017 A 
ATOM     17  C   UNL     1     -12.304   6.622  21.013  0.00  0.00    +0.008 A 
ATOM     18  C   UNL     1     -14.414   7.281  20.038  0.00  0.00    +0.008 A 
ATOM     19  C   UNL     1     -12.956   5.640  21.760  0.00  0.00    +0.023 A 
ATOM     20  C   UNL     1     -15.066   6.299  20.783  0.00  0.00    +0.023 A 
ATOM     21  C   UNL     1     -14.337   5.479  21.645  0.00  0.00    +0.034 A 
ENDROOT
BRANCH  21   8
ATOM      6  O   UNL     1     -16.171   5.737  24.002  0.00  0.00    -0.270 OA
ATOM      8  N   UNL     1     -14.989   4.497  22.391  0.00  0.00    -0.282 N 
ATOM     27  C   UNL     1     -15.841   4.672  23.490  0.00  0.00    +0.248 C 
ATOM     36  H   UNL     1     -14.839   3.554  22.044  0.00  0.00    +0.155 HD
BRANCH  27  28
ATOM      4  O   UNL     1     -18.698   0.658  23.299  0.00  0.00    -0.453 OA
ATOM      5  O   UNL     1     -18.060  -0.042  25.515  0.00  0.00    -0.453 OA
ATOM     28  C   UNL     1     -16.411   3.424  24.060  0.00  0.00    +0.041 A 
ATOM     29  C   UNL     1     -17.312   2.667  23.307  0.00  0.00    +0.062 A 
ATOM     30  C   UNL     1     -17.815   1.516  23.878  0.00  0.00    +0.167 A 
ATOM     31  C   UNL     1     -17.450   1.117  25.144  0.00  0.00    +0.166 A 
ATOM     32  C   UNL     1     -16.038   3.015  25.353  0.00  0.00    +0.017 A 
ATOM     33  C   UNL     1     -16.562   1.846  25.908  0.00  0.00    +0.050 A 
ATOM     34  C   UNL     1     -18.849  -0.327  24.343  0.00  0.00    +0.466 C 
ENDBRANCH  27  28
ENDBRANCH  21   8
BRANCH  14  10
ATOM     10  C   UNL     1     -12.329   8.504  19.346  0.00  0.00    +0.167 C 
BRANCH  10   9
ATOM      1  O   UNL     1     -10.441  10.560  18.441  0.00  0.00    -0.369 OA
ATOM      3  O   UNL     1     -13.094  12.777  19.484  0.00  0.00    -0.273 OA
ATOM      7  N   UNL     1     -12.446  10.735  20.392  0.00  0.00    -0.287 N 
ATOM      9  C   UNL     1     -11.625   9.527  20.242  0.00  0.00    +0.135 C 
ATOM     11  C   UNL     1     -10.255   9.893  19.684  0.00  0.00    +0.185 C 
ATOM     13  C   UNL     1     -12.325  11.814  19.520  0.00  0.00    +0.242 C 
ATOM     15  C   UNL     1     -11.093  11.797  18.622  0.00  0.00    +0.255 C 
BRANCH   7  12
ATOM     12  C   UNL     1     -13.523  10.698  21.373  0.00  0.00    +0.143 C 
BRANCH  12  16
ATOM     16  C   UNL     1     -13.131  11.359  22.663  0.00  0.00    -0.030 A 
ATOM     22  C   UNL     1     -13.612  12.632  22.967  0.00  0.00    +0.005 A 
ATOM     23  C   UNL     1     -12.285  10.700  23.555  0.00  0.00    +0.005 A 
ATOM     24  C   UNL     1     -13.248  13.247  24.166  0.00  0.00    +0.000 A 
ATOM     25  C   UNL     1     -11.921  11.315  24.753  0.00  0.00    +0.000 A 
ATOM     26  C   UNL     1     -12.402  12.588  25.059  0.00  0.00    +0.000 A 
ENDBRANCH  12  16
ENDBRANCH   7  12
ENDBRANCH  10   9
BRANCH  10   2
ATOM      2  O   UNL     1     -13.272   9.174  18.515  0.00  0.00    -0.385 OA
ATOM     35  H   UNL     1     -13.434   8.640  17.719  0.00  0.00    +0.210 HD
ENDBRANCH  10   2
ENDBRANCH  14  10
TORSDOF 7
ENDMDL
MODEL 10
REMARK VINA RESULT:      -6.3     18.216     20.690
REMARK  Name = 56774615
REMARK  7 active torsions:
REMARK  status: ('A' for Active; 'I' for Inactive)
REMARK    1  A    between atoms: O_2  and  C_10
REMARK    2  A    between atoms: N_7  and  C_12
REMARK    3  A    between atoms: N_8  and  C_21
REMARK    4  A    between atoms: C_9  and  C_10
REMARK    5  A    between atoms: C_10  and  C_14
REMARK    6  A    between atoms: C_12  and  C_16
REMARK    7  A    between atoms: C_27  and  C_28
REMARK                            x       y       z     vdW  Elec       q    Type
REMARK                         _______ _______ _______ _____ _____    ______ ____
ROOT
ATOM     14  C   UNL     1      -6.387 -11.519  13.944  0.00  0.00    -0.017 A 
ATOM     17  C   UNL     1      -7.327 -12.137  14.769  0.00  0.00    +0.008 A 
ATOM     18  C   UNL     1      -6.638 -10.247  13.430  0.00  0.00    +0.008 A 
ATOM     19  C   UNL     1      -8.518 -11.481  15.080  0.00  0.00    +0.023 A 
ATOM     20  C   UNL     1      -7.829  -9.592  13.741  0.00  0.00    +0.023 A 
ATOM     21  C   UNL     1      -8.769 -10.209  14.567  0.00  0.00    +0.034 A 
ENDROOT
BRANCH  21   8
ATOM      6  O   UNL     1      -9.355  -8.147  16.662  0.00  0.00    -0.270 OA
ATOM      8  N   UNL     1      -9.961  -9.553  14.877  0.00  0.00    -0.282 N 
ATOM     27  C   UNL     1     -10.182  -8.592  15.872  0.00  0.00    +0.248 C 
ATOM     36  H   UNL     1     -10.733  -9.795  14.262  0.00  0.00    +0.155 HD
BRANCH  27  28
ATOM      4  O   UNL     1     -14.939  -8.838  17.146  0.00  0.00    -0.453 OA
ATOM      5  O   UNL     1     -15.424  -6.677  16.197  0.00  0.00    -0.453 OA
ATOM     28  C   UNL     1     -11.564  -8.052  15.940  0.00  0.00    +0.041 A 
ATOM     29  C   UNL     1     -12.572  -8.801  16.554  0.00  0.00    +0.062 A 
ATOM     30  C   UNL     1     -13.839  -8.258  16.594  0.00  0.00    +0.167 A 
ATOM     31  C   UNL     1     -14.116  -7.024  16.051  0.00  0.00    +0.166 A 
ATOM     32  C   UNL     1     -11.848  -6.790  15.386  0.00  0.00    +0.017 A 
ATOM     33  C   UNL     1     -13.140  -6.264  15.439  0.00  0.00    +0.050 A 
ATOM     34  C   UNL     1     -15.940  -7.831  16.891  0.00  0.00    +0.466 C 
ENDBRANCH  27  28
ENDBRANCH  21   8
BRANCH  14  10
ATOM     10  C   UNL     1      -5.099 -12.227  13.607  0.00  0.00    +0.167 C 
BRANCH  10   9
ATOM      1  O   UNL     1      -2.559 -13.695  13.662  0.00  0.00    -0.369 OA
ATOM      3  O   UNL     1      -1.295 -10.517  14.818  0.00  0.00    -0.273 OA
ATOM      7  N   UNL     1      -3.367 -11.500  15.207  0.00  0.00    -0.287 N 
ATOM      9  C   UNL     1      -4.298 -12.582  14.864  0.00  0.00    +0.135 C 
ATOM     11  C   UNL     1      -3.536 -13.888  14.678  0.00  0.00    +0.185 C 
ATOM     13  C   UNL     1      -2.065 -11.472  14.711  0.00  0.00    +0.242 C 
ATOM     15  C   UNL     1      -1.579 -12.768  14.072  0.00  0.00    +0.255 C 
BRANCH   7  12
ATOM     12  C   UNL     1      -3.902 -10.358  15.936  0.00  0.00    +0.143 C 
BRANCH  12  16
ATOM     16  C   UNL     1      -4.550 -10.769  17.227  0.00  0.00    -0.030 A 
ATOM     22  C   UNL     1      -5.849 -10.354  17.517  0.00  0.00    +0.005 A 
ATOM     23  C   UNL     1      -3.851 -11.565  18.135  0.00  0.00    +0.005 A 
ATOM     24  C   UNL     1      -6.451 -10.735  18.717  0.00  0.00    +0.000 A 
ATOM     25  C   UNL     1      -4.453 -11.946  19.334  0.00  0.00    +0.000 A 
ATOM     26  C   UNL     1      -5.753 -11.532  19.626  0.00  0.00    +0.000 A 
ENDBRANCH  12  16
ENDBRANCH   7  12
ENDBRANCH  10   9
BRANCH  10   2
ATOM      2  O   UNL     1      -4.307 -11.398  12.763  0.00  0.00    -0.385 OA
ATOM     35  H   UNL     1      -4.741 -11.316  11.897  0.00  0.00    +0.210 HD
ENDBRANCH  10   2
ENDBRANCH  14  10
TORSDOF 7
ENDMDL
