MODEL 1
REMARK VINA RESULT:      -7.6      0.000      0.000
REMARK  Name = 75536361
REMARK  7 active torsions:
REMARK  status: ('A' for Active; 'I' for Inactive)
REMARK    1  A    between atoms: O_2  and  C_9
REMARK    2  A    between atoms: N_4  and  C_11
REMARK    3  A    between atoms: N_4  and  C_14
REMARK    4  A    between atoms: C_8  and  C_14
REMARK    5  A    between atoms: C_10  and  C_17
REMARK    6  A    between atoms: C_17  and  C_20
REMARK    7  A    between atoms: C_22  and  C_23
REMARK                            x       y       z     vdW  Elec       q    Type
REMARK                         _______ _______ _______ _____ _____    ______ ____
ROOT
ATOM      1  O   UNL     1      10.761   8.359  19.659  0.00  0.00    -0.369 OA
ATOM      8  C   UNL     1      10.935   8.191  21.072  0.00  0.00    +0.161 C 
ATOM      9  C   UNL     1      11.729   6.918  21.391  0.00  0.00    +0.145 C 
ATOM     10  C   UNL     1      11.970   8.365  18.895  0.00  0.00    +0.125 C 
ATOM     12  C   UNL     1      13.014   6.814  20.572  0.00  0.00    +0.036 C 
ATOM     13  C   UNL     1      12.738   7.059  19.091  0.00  0.00    +0.034 C 
ENDROOT
BRANCH   9   2
ATOM      2  O   UNL     1      10.920   5.780  21.079  0.00  0.00    -0.389 OA
ATOM     30  H   UNL     1       9.996   6.077  21.043  0.00  0.00    +0.210 HD
ENDBRANCH   9   2
BRANCH   8  14
ATOM     14  C   UNL     1      11.538   9.444  21.705  0.00  0.00    +0.115 C 
BRANCH  14   4
ATOM      4  N   UNL     1      11.232   9.505  23.126  0.00  0.00    -0.311 NA
ATOM     28  H   UNL     1      10.511   8.814  23.336  0.00  0.00    +0.122 HD
BRANCH   4  11
ATOM      5  N   UNL     1      11.295  13.610  24.243  0.00  0.00    -0.316 NA
ATOM     11  C   UNL     1      10.742  10.829  23.500  0.00  0.00    +0.056 C 
ATOM     15  C   UNL     1      11.262  11.215  24.889  0.00  0.00    +0.034 C 
ATOM     16  C   UNL     1      11.161  11.882  22.468  0.00  0.00    +0.034 C 
ATOM     18  C   UNL     1      10.848  12.643  25.248  0.00  0.00    +0.082 C 
ATOM     19  C   UNL     1      10.751  13.283  22.922  0.00  0.00    +0.082 C 
ATOM     29  H   UNL     1      10.986  14.543  24.513  0.00  0.00    +0.122 HD
ENDBRANCH   4  11
ENDBRANCH  14   4
ENDBRANCH   8  14
BRANCH  10  17
ATOM     17  C   UNL     1      11.587   8.553  17.432  0.00  0.00    +0.090 C 
BRANCH  17  20
ATOM      3  O   UNL     1      14.131   9.371  15.013  0.00  0.00    -0.353 OA
ATOM      6  N   UNL     1      13.082   8.585  15.477  0.00  0.00    -0.083 NA
ATOM     20  C   UNL     1      12.716   9.147  16.633  0.00  0.00    +0.087 A 
ATOM     21  C   UNL     1      13.489  10.279  16.945  0.00  0.00    +0.077 A 
ATOM     22  C   UNL     1      14.364  10.376  15.895  0.00  0.00    +0.186 A 
BRANCH  22  23
ATOM      7  N   UNL     1      15.813  11.216  14.254  0.00  0.00    -0.252 NA
ATOM     23  C   UNL     1      15.424  11.276  15.547  0.00  0.00    +0.109 A 
ATOM     24  C   UNL     1      15.982  12.128  16.486  0.00  0.00    +0.031 A 
ATOM     25  C   UNL     1      17.006  12.973  16.071  0.00  0.00    +0.004 A 
ATOM     26  C   UNL     1      16.810  12.051  13.887  0.00  0.00    +0.111 A 
ATOM     27  C   UNL     1      17.433  12.939  14.748  0.00  0.00    +0.020 A 
ENDBRANCH  22  23
ENDBRANCH  17  20
ENDBRANCH  10  17
TORSDOF 7
ENDMDL
MODEL 2
REMARK VINA RESULT:      -7.3      3.883      6.167
REMARK  Name = 75536361
REMARK  7 active torsions:
REMARK  status: ('A' for Active; 'I' for Inactive)
REMARK    1  A    between atoms: O_2  and  C_9
REMARK    2  A    between atoms: N_4  and  C_11
REMARK    3  A    between atoms: N_4  and  C_14
REMARK    4  A    between atoms: C_8  and  C_14
REMARK    5  A    between atoms: C_10  and  C_17
REMARK    6  A    between atoms: C_17  and  C_20
REMARK    7  A    between atoms: C_22  and  C_23
REMARK                            x       y       z     vdW  Elec       q    Type
REMARK                         _______ _______ _______ _____ _____    ______ ____
ROOT
ATOM      1  O   UNL     1      12.706  10.707  23.245  0.00  0.00    -0.369 OA
ATOM      8  C   UNL     1      11.409  10.334  23.729  0.00  0.00    +0.161 C 
ATOM      9  C   UNL     1      10.697  11.520  24.392  0.00  0.00    +0.145 C 
ATOM     10  C   UNL     1      12.723  11.817  22.344  0.00  0.00    +0.125 C 
ATOM     12  C   UNL     1      10.718  12.773  23.518  0.00  0.00    +0.036 C 
ATOM     13  C   UNL     1      12.128  13.058  23.008  0.00  0.00    +0.034 C 
ENDROOT
BRANCH   9   2
ATOM      2  O   UNL     1      11.365  11.833  25.617  0.00  0.00    -0.389 OA
ATOM     30  H   UNL     1      11.579  12.781  25.602  0.00  0.00    +0.210 HD
ENDBRANCH   9   2
BRANCH   8  14
ATOM     14  C   UNL     1      10.577   9.680  22.627  0.00  0.00    +0.115 C 
BRANCH  14   4
ATOM      4  N   UNL     1      10.802   8.243  22.592  0.00  0.00    -0.311 NA
ATOM     28  H   UNL     1      11.598   8.021  23.191  0.00  0.00    +0.122 HD
BRANCH   4  11
ATOM      5  N   UNL     1      12.796   7.887  18.851  0.00  0.00    -0.316 NA
ATOM     11  C   UNL     1      11.092   7.792  21.234  0.00  0.00    +0.056 C 
ATOM     15  C   UNL     1      11.075   8.979  20.265  0.00  0.00    +0.034 C 
ATOM     16  C   UNL     1      12.447   7.078  21.170  0.00  0.00    +0.034 C 
ATOM     18  C   UNL     1      11.484   8.540  18.858  0.00  0.00    +0.082 C 
ATOM     19  C   UNL     1      12.803   6.713  19.728  0.00  0.00    +0.082 C 
ATOM     29  H   UNL     1      13.022   7.598  17.900  0.00  0.00    +0.122 HD
ENDBRANCH   4  11
ENDBRANCH  14   4
ENDBRANCH   8  14
BRANCH  10  17
ATOM     17  C   UNL     1      14.172  12.059  21.942  0.00  0.00    +0.090 C 
BRANCH  17  20
ATOM      3  O   UNL     1      15.045   9.383  19.691  0.00  0.00    -0.353 OA
ATOM      6  N   UNL     1      14.292  10.496  20.044  0.00  0.00    -0.083 NA
ATOM     20  C   UNL     1      14.762  10.866  21.240  0.00  0.00    +0.087 A 
ATOM     21  C   UNL     1      15.802  10.031  21.686  0.00  0.00    +0.077 A 
ATOM     22  C   UNL     1      15.941   9.115  20.676  0.00  0.00    +0.186 A 
BRANCH  22  23
ATOM      7  N   UNL     1      17.941   7.995  21.169  0.00  0.00    -0.252 NA
ATOM     23  C   UNL     1      16.795   7.987  20.452  0.00  0.00    +0.109 A 
ATOM     24  C   UNL     1      16.444   6.983  19.563  0.00  0.00    +0.031 A 
ATOM     25  C   UNL     1      17.326   5.920  19.401  0.00  0.00    +0.004 A 
ATOM     26  C   UNL     1      18.773   6.947  20.986  0.00  0.00    +0.111 A 
ATOM     27  C   UNL     1      18.515   5.894  20.123  0.00  0.00    +0.020 A 
ENDBRANCH  22  23
ENDBRANCH  17  20
ENDBRANCH  10  17
TORSDOF 7
ENDMDL
MODEL 3
REMARK VINA RESULT:      -6.9      4.373      5.450
REMARK  Name = 75536361
REMARK  7 active torsions:
REMARK  status: ('A' for Active; 'I' for Inactive)
REMARK    1  A    between atoms: O_2  and  C_9
REMARK    2  A    between atoms: N_4  and  C_11
REMARK    3  A    between atoms: N_4  and  C_14
REMARK    4  A    between atoms: C_8  and  C_14
REMARK    5  A    between atoms: C_10  and  C_17
REMARK    6  A    between atoms: C_17  and  C_20
REMARK    7  A    between atoms: C_22  and  C_23
REMARK                            x       y       z     vdW  Elec       q    Type
REMARK                         _______ _______ _______ _____ _____    ______ ____
ROOT
ATOM      1  O   UNL     1      12.869   8.718  19.260  0.00  0.00    -0.369 OA
ATOM      8  C   UNL     1      12.079   9.538  20.132  0.00  0.00    +0.161 C 
ATOM      9  C   UNL     1      11.236   8.686  21.088  0.00  0.00    +0.145 C 
ATOM     10  C   UNL     1      13.724   7.780  19.918  0.00  0.00    +0.125 C 
ATOM     12  C   UNL     1      12.064   7.614  21.795  0.00  0.00    +0.036 C 
ATOM     13  C   UNL     1      12.909   6.831  20.795  0.00  0.00    +0.034 C 
ENDROOT
BRANCH   9   2
ATOM      2  O   UNL     1      10.214   8.023  20.338  0.00  0.00    -0.389 OA
ATOM     30  H   UNL     1       9.492   8.658  20.200  0.00  0.00    +0.210 HD
ENDBRANCH   9   2
BRANCH   8  14
ATOM     14  C   UNL     1      12.946  10.567  20.856  0.00  0.00    +0.115 C 
BRANCH  14   4
ATOM      4  N   UNL     1      12.122  11.509  21.597  0.00  0.00    -0.311 NA
ATOM     28  H   UNL     1      12.418  12.457  21.364  0.00  0.00    +0.122 HD
BRANCH   4  11
ATOM      5  N   UNL     1      12.077  12.368  25.763  0.00  0.00    -0.316 NA
ATOM     11  C   UNL     1      12.264  11.309  23.036  0.00  0.00    +0.056 C 
ATOM     15  C   UNL     1      13.301  12.284  23.608  0.00  0.00    +0.034 C 
ATOM     16  C   UNL     1      10.921  11.490  23.752  0.00  0.00    +0.034 C 
ATOM     18  C   UNL     1      13.381  12.162  25.130  0.00  0.00    +0.082 C 
ATOM     19  C   UNL     1      11.094  11.400  25.269  0.00  0.00    +0.082 C 
ATOM     29  H   UNL     1      12.172  12.264  26.773  0.00  0.00    +0.122 HD
ENDBRANCH   4  11
ENDBRANCH  14   4
ENDBRANCH   8  14
BRANCH  10  17
ATOM     17  C   UNL     1      14.477   7.010  18.840  0.00  0.00    +0.090 C 
BRANCH  17  20
ATOM      3  O   UNL     1      17.815   5.714  19.244  0.00  0.00    -0.353 OA
ATOM      6  N   UNL     1      16.587   5.768  18.596  0.00  0.00    -0.083 NA
ATOM     20  C   UNL     1      15.882   6.682  19.268  0.00  0.00    +0.087 A 
ATOM     21  C   UNL     1      16.607   7.234  20.338  0.00  0.00    +0.077 A 
ATOM     22  C   UNL     1      17.815   6.592  20.280  0.00  0.00    +0.186 A 
BRANCH  22  23
ATOM      7  N   UNL     1      19.037   7.599  22.009  0.00  0.00    -0.252 NA
ATOM     23  C   UNL     1      19.025   6.650  21.046  0.00  0.00    +0.109 A 
ATOM     24  C   UNL     1      20.079   5.787  20.795  0.00  0.00    +0.031 A 
ATOM     25  C   UNL     1      21.219   5.905  21.584  0.00  0.00    +0.004 A 
ATOM     26  C   UNL     1      20.160   7.684  22.755  0.00  0.00    +0.111 A 
ATOM     27  C   UNL     1      21.268   6.870  22.584  0.00  0.00    +0.020 A 
ENDBRANCH  22  23
ENDBRANCH  17  20
ENDBRANCH  10  17
TORSDOF 7
ENDMDL
MODEL 4
REMARK VINA RESULT:      -6.6     27.493     29.170
REMARK  Name = 75536361
REMARK  7 active torsions:
REMARK  status: ('A' for Active; 'I' for Inactive)
REMARK    1  A    between atoms: O_2  and  C_9
REMARK    2  A    between atoms: N_4  and  C_11
REMARK    3  A    between atoms: N_4  and  C_14
REMARK    4  A    between atoms: C_8  and  C_14
REMARK    5  A    between atoms: C_10  and  C_17
REMARK    6  A    between atoms: C_17  and  C_20
REMARK    7  A    between atoms: C_22  and  C_23
REMARK                            x       y       z     vdW  Elec       q    Type
REMARK                         _______ _______ _______ _____ _____    ______ ____
ROOT
ATOM      1  O   UNL     1      -5.561 -10.920  10.857  0.00  0.00    -0.369 OA
ATOM      8  C   UNL     1      -4.698 -11.346   9.795  0.00  0.00    +0.161 C 
ATOM      9  C   UNL     1      -4.490 -10.231   8.763  0.00  0.00    +0.145 C 
ATOM     10  C   UNL     1      -5.147  -9.733  11.538  0.00  0.00    +0.125 C 
ATOM     12  C   UNL     1      -4.099  -8.904   9.410  0.00  0.00    +0.036 C 
ATOM     13  C   UNL     1      -5.041  -8.562  10.562  0.00  0.00    +0.034 C 
ENDROOT
BRANCH   9   2
ATOM      2  O   UNL     1      -5.715 -10.025   8.053  0.00  0.00    -0.389 OA
ATOM     30  H   UNL     1      -6.363 -10.665   8.392  0.00  0.00    +0.210 HD
ENDBRANCH   9   2
BRANCH   8  14
ATOM     14  C   UNL     1      -3.386 -11.905  10.342  0.00  0.00    +0.115 C 
BRANCH  14   4
ATOM      4  N   UNL     1      -3.520 -13.316  10.670  0.00  0.00    -0.311 NA
ATOM     28  H   UNL     1      -4.510 -13.563  10.656  0.00  0.00    +0.122 HD
BRANCH   4  11
ATOM      5  N   UNL     1      -2.760 -12.897  14.834  0.00  0.00    -0.316 NA
ATOM     11  C   UNL     1      -2.980 -13.598  11.997  0.00  0.00    +0.056 C 
ATOM     15  C   UNL     1      -2.125 -12.423  12.484  0.00  0.00    +0.034 C 
ATOM     16  C   UNL     1      -4.106 -13.881  12.998  0.00  0.00    +0.034 C 
ATOM     18  C   UNL     1      -1.644 -12.656  13.917  0.00  0.00    +0.082 C 
ATOM     19  C   UNL     1      -3.547 -14.057  14.411  0.00  0.00    +0.082 C 
ATOM     29  H   UNL     1      -2.395 -13.062  15.772  0.00  0.00    +0.122 HD
ENDBRANCH   4  11
ENDBRANCH  14   4
ENDBRANCH   8  14
BRANCH  10  17
ATOM     17  C   UNL     1      -6.177  -9.442  12.622  0.00  0.00    +0.090 C 
BRANCH  17  20
ATOM      3  O   UNL     1      -4.357 -10.678  15.478  0.00  0.00    -0.353 OA
ATOM      6  N   UNL     1      -4.449 -10.327  14.136  0.00  0.00    -0.083 NA
ATOM     20  C   UNL     1      -5.708  -9.909  13.974  0.00  0.00    +0.087 A 
ATOM     21  C   UNL     1      -6.449  -9.973  15.168  0.00  0.00    +0.077 A 
ATOM     22  C   UNL     1      -5.553 -10.462  16.082  0.00  0.00    +0.186 A 
BRANCH  22  23
ATOM      7  N   UNL     1      -6.706 -10.308  18.118  0.00  0.00    -0.252 NA
ATOM     23  C   UNL     1      -5.612 -10.779  17.478  0.00  0.00    +0.109 A 
ATOM     24  C   UNL     1      -4.610 -11.513  18.093  0.00  0.00    +0.031 A 
ATOM     25  C   UNL     1      -4.739 -11.780  19.452  0.00  0.00    +0.004 A 
ATOM     26  C   UNL     1      -6.798 -10.588  19.437  0.00  0.00    +0.111 A 
ATOM     27  C   UNL     1      -5.852 -11.312  20.144  0.00  0.00    +0.020 A 
ENDBRANCH  22  23
ENDBRANCH  17  20
ENDBRANCH  10  17
TORSDOF 7
ENDMDL
MODEL 5
REMARK VINA RESULT:      -6.6     26.737     28.352
REMARK  Name = 75536361
REMARK  7 active torsions:
REMARK  status: ('A' for Active; 'I' for Inactive)
REMARK    1  A    between atoms: O_2  and  C_9
REMARK    2  A    between atoms: N_4  and  C_11
REMARK    3  A    between atoms: N_4  and  C_14
REMARK    4  A    between atoms: C_8  and  C_14
REMARK    5  A    between atoms: C_10  and  C_17
REMARK    6  A    between atoms: C_17  and  C_20
REMARK    7  A    between atoms: C_22  and  C_23
REMARK                            x       y       z     vdW  Elec       q    Type
REMARK                         _______ _______ _______ _____ _____    ______ ____
ROOT
ATOM      1  O   UNL     1      -6.722  -9.808  17.260  0.00  0.00    -0.369 OA
ATOM      8  C   UNL     1      -5.787 -10.304  18.227  0.00  0.00    +0.161 C 
ATOM      9  C   UNL     1      -6.483 -11.165  19.287  0.00  0.00    +0.145 C 
ATOM     10  C   UNL     1      -7.503 -10.808  16.601  0.00  0.00    +0.125 C 
ATOM     12  C   UNL     1      -7.389 -12.229  18.669  0.00  0.00    +0.036 C 
ATOM     13  C   UNL     1      -8.309 -11.617  17.617  0.00  0.00    +0.034 C 
ENDROOT
BRANCH   9   2
ATOM      2  O   UNL     1      -7.299 -10.321  20.105  0.00  0.00    -0.389 OA
ATOM     30  H   UNL     1      -6.733  -9.608  20.446  0.00  0.00    +0.210 HD
ENDBRANCH   9   2
BRANCH   8  14
ATOM     14  C   UNL     1      -4.620 -11.020  17.548  0.00  0.00    +0.115 C 
BRANCH  14   4
ATOM      4  N   UNL     1      -3.953 -10.142  16.600  0.00  0.00    -0.311 NA
ATOM     28  H   UNL     1      -4.623  -9.446  16.271  0.00  0.00    +0.122 HD
BRANCH   4  11
ATOM      5  N   UNL     1      -2.007 -13.212  14.390  0.00  0.00    -0.316 NA
ATOM     11  C   UNL     1      -3.452 -10.894  15.453  0.00  0.00    +0.056 C 
ATOM     15  C   UNL     1      -1.924 -11.005  15.518  0.00  0.00    +0.034 C 
ATOM     16  C   UNL     1      -4.080 -12.291  15.395  0.00  0.00    +0.034 C 
ATOM     18  C   UNL     1      -1.393 -11.882  14.383  0.00  0.00    +0.082 C 
ATOM     19  C   UNL     1      -3.464 -13.119  14.266  0.00  0.00    +0.082 C 
ATOM     29  H   UNL     1      -1.638 -13.757  13.612  0.00  0.00    +0.122 HD
ENDBRANCH   4  11
ENDBRANCH  14   4
ENDBRANCH   8  14
BRANCH  10  17
ATOM     17  C   UNL     1      -8.427 -10.096  15.620  0.00  0.00    +0.090 C 
BRANCH  17  20
ATOM      3  O   UNL     1      -7.590  -9.490  12.167  0.00  0.00    -0.353 OA
ATOM      6  N   UNL     1      -8.504  -9.642  13.202  0.00  0.00    -0.083 NA
ATOM     20  C   UNL     1      -7.761  -9.878  14.288  0.00  0.00    +0.087 A 
ATOM     21  C   UNL     1      -6.385  -9.885  14.001  0.00  0.00    +0.077 A 
ATOM     22  C   UNL     1      -6.331  -9.637  12.655  0.00  0.00    +0.186 A 
BRANCH  22  23
ATOM      7  N   UNL     1      -4.121 -10.122  12.041  0.00  0.00    -0.252 NA
ATOM     23  C   UNL     1      -5.273  -9.503  11.698  0.00  0.00    +0.109 A 
ATOM     24  C   UNL     1      -5.450  -8.791  10.522  0.00  0.00    +0.031 A 
ATOM     25  C   UNL     1      -4.376  -8.709   9.642  0.00  0.00    +0.004 A 
ATOM     26  C   UNL     1      -3.099 -10.020  11.162  0.00  0.00    +0.111 A 
ATOM     27  C   UNL     1      -3.174  -9.333   9.962  0.00  0.00    +0.020 A 
ENDBRANCH  22  23
ENDBRANCH  17  20
ENDBRANCH  10  17
TORSDOF 7
ENDMDL
MODEL 6
REMARK VINA RESULT:      -6.6     26.829     29.040
REMARK  Name = 75536361
REMARK  7 active torsions:
REMARK  status: ('A' for Active; 'I' for Inactive)
REMARK    1  A    between atoms: O_2  and  C_9
REMARK    2  A    between atoms: N_4  and  C_11
REMARK    3  A    between atoms: N_4  and  C_14
REMARK    4  A    between atoms: C_8  and  C_14
REMARK    5  A    between atoms: C_10  and  C_17
REMARK    6  A    between atoms: C_17  and  C_20
REMARK    7  A    between atoms: C_22  and  C_23
REMARK                            x       y       z     vdW  Elec       q    Type
REMARK                         _______ _______ _______ _____ _____    ______ ____
ROOT
ATOM      1  O   UNL     1      -2.508 -11.422  15.739  0.00  0.00    -0.369 OA
ATOM      8  C   UNL     1      -2.119 -11.750  14.399  0.00  0.00    +0.161 C 
ATOM      9  C   UNL     1      -2.773 -13.055  13.930  0.00  0.00    +0.145 C 
ATOM     10  C   UNL     1      -3.918 -11.336  15.958  0.00  0.00    +0.125 C 
ATOM     12  C   UNL     1      -4.280 -13.073  14.180  0.00  0.00    +0.036 C 
ATOM     13  C   UNL     1      -4.599 -12.660  15.614  0.00  0.00    +0.034 C 
ENDROOT
BRANCH   9   2
ATOM      2  O   UNL     1      -2.198 -14.146  14.655  0.00  0.00    -0.389 OA
ATOM     30  H   UNL     1      -2.872 -14.844  14.718  0.00  0.00    +0.210 HD
ENDBRANCH   9   2
BRANCH   8  14
ATOM     14  C   UNL     1      -2.374 -10.580  13.450  0.00  0.00    +0.115 C 
BRANCH  14   4
ATOM      4  N   UNL     1      -2.219 -10.994  12.064  0.00  0.00    -0.311 NA
ATOM     28  H   UNL     1      -1.351 -10.602  11.699  0.00  0.00    +0.122 HD
BRANCH   4  11
ATOM      5  N   UNL     1      -5.119  -8.337  10.442  0.00  0.00    -0.316 NA
ATOM     11  C   UNL     1      -3.332 -10.516  11.248  0.00  0.00    +0.056 C 
ATOM     15  C   UNL     1      -4.474 -10.023  12.144  0.00  0.00    +0.034 C 
ATOM     16  C   UNL     1      -2.880  -9.396  10.305  0.00  0.00    +0.034 C 
ATOM     18  C   UNL     1      -5.601  -9.418  11.305  0.00  0.00    +0.082 C 
ATOM     19  C   UNL     1      -4.070  -8.815   9.538  0.00  0.00    +0.082 C 
ATOM     29  H   UNL     1      -5.897  -7.974   9.892  0.00  0.00    +0.122 HD
ENDBRANCH   4  11
ENDBRANCH  14   4
ENDBRANCH   8  14
BRANCH  10  17
ATOM     17  C   UNL     1      -4.134 -10.981  17.424  0.00  0.00    +0.090 C 
BRANCH  17  20
ATOM      3  O   UNL     1      -7.467 -10.667  18.761  0.00  0.00    -0.353 OA
ATOM      6  N   UNL     1      -6.167 -11.155  18.802  0.00  0.00    -0.083 NA
ATOM     20  C   UNL     1      -5.576 -10.657  17.712  0.00  0.00    +0.087 A 
ATOM     21  C   UNL     1      -6.446  -9.854  16.954  0.00  0.00    +0.077 A 
ATOM     22  C   UNL     1      -7.621  -9.893  17.656  0.00  0.00    +0.186 A 
BRANCH  22  23
ATOM      7  N   UNL     1      -8.971  -8.310  16.573  0.00  0.00    -0.252 NA
ATOM     23  C   UNL     1      -8.920  -9.314  17.478  0.00  0.00    +0.109 A 
ATOM     24  C   UNL     1     -10.017  -9.771  18.191  0.00  0.00    +0.031 A 
ATOM     25  C   UNL     1     -11.244  -9.158  17.961  0.00  0.00    +0.004 A 
ATOM     26  C   UNL     1     -10.180  -7.739  16.376  0.00  0.00    +0.111 A 
ATOM     27  C   UNL     1     -11.335  -8.122  17.038  0.00  0.00    +0.020 A 
ENDBRANCH  22  23
ENDBRANCH  17  20
ENDBRANCH  10  17
TORSDOF 7
ENDMDL
MODEL 7
REMARK VINA RESULT:      -6.5     26.477     28.229
REMARK  Name = 75536361
REMARK  7 active torsions:
REMARK  status: ('A' for Active; 'I' for Inactive)
REMARK    1  A    between atoms: O_2  and  C_9
REMARK    2  A    between atoms: N_4  and  C_11
REMARK    3  A    between atoms: N_4  and  C_14
REMARK    4  A    between atoms: C_8  and  C_14
REMARK    5  A    between atoms: C_10  and  C_17
REMARK    6  A    between atoms: C_17  and  C_20
REMARK    7  A    between atoms: C_22  and  C_23
REMARK                            x       y       z     vdW  Elec       q    Type
REMARK                         _______ _______ _______ _____ _____    ______ ____
ROOT
ATOM      1  O   UNL     1      -4.154 -11.507  13.109  0.00  0.00    -0.369 OA
ATOM      8  C   UNL     1      -4.135 -11.460  14.542  0.00  0.00    +0.161 C 
ATOM      9  C   UNL     1      -2.700 -11.425  15.082  0.00  0.00    +0.145 C 
ATOM     10  C   UNL     1      -3.441 -10.454  12.457  0.00  0.00    +0.125 C 
ATOM     12  C   UNL     1      -1.846 -10.360  14.395  0.00  0.00    +0.036 C 
ATOM     13  C   UNL     1      -1.972 -10.457  12.878  0.00  0.00    +0.034 C 
ENDROOT
BRANCH   9   2
ATOM      2  O   UNL     1      -2.087 -12.695  14.844  0.00  0.00    -0.389 OA
ATOM     30  H   UNL     1      -2.265 -12.940  13.920  0.00  0.00    +0.210 HD
ENDBRANCH   9   2
BRANCH   8  14
ATOM     14  C   UNL     1      -4.997 -10.312  15.067  0.00  0.00    +0.115 C 
BRANCH  14   4
ATOM      4  N   UNL     1      -4.702 -10.039  16.464  0.00  0.00    -0.311 NA
ATOM     28  H   UNL     1      -3.787 -10.431  16.689  0.00  0.00    +0.122 HD
BRANCH   4  11
ATOM      5  N   UNL     1      -7.404 -10.484  19.720  0.00  0.00    -0.316 NA
ATOM     11  C   UNL     1      -5.702 -10.645  17.339  0.00  0.00    +0.056 C 
ATOM     15  C   UNL     1      -5.141 -10.805  18.757  0.00  0.00    +0.034 C 
ATOM     16  C   UNL     1      -6.984  -9.805  17.371  0.00  0.00    +0.034 C 
ATOM     18  C   UNL     1      -6.213 -11.337  19.709  0.00  0.00    +0.082 C 
ATOM     19  C   UNL     1      -7.984 -10.376  18.379  0.00  0.00    +0.082 C 
ATOM     29  H   UNL     1      -8.097 -10.882  20.354  0.00  0.00    +0.122 HD
ENDBRANCH   4  11
ENDBRANCH  14   4
ENDBRANCH   8  14
BRANCH  10  17
ATOM     17  C   UNL     1      -3.575 -10.671  10.955  0.00  0.00    +0.090 C 
BRANCH  17  20
ATOM      3  O   UNL     1      -6.474  -8.617  10.345  0.00  0.00    -0.353 OA
ATOM      6  N   UNL     1      -5.556  -9.229  11.191  0.00  0.00    -0.083 NA
ATOM     20  C   UNL     1      -4.719  -9.881  10.378  0.00  0.00    +0.087 A 
ATOM     21  C   UNL     1      -5.056  -9.717   9.023  0.00  0.00    +0.077 A 
ATOM     22  C   UNL     1      -6.165  -8.915   9.057  0.00  0.00    +0.186 A 
BRANCH  22  23
ATOM      7  N   UNL     1      -7.031  -9.001   6.879  0.00  0.00    -0.252 NA
ATOM     23  C   UNL     1      -7.029  -8.348   8.063  0.00  0.00    +0.109 A 
ATOM     24  C   UNL     1      -7.790  -7.221   8.328  0.00  0.00    +0.031 A 
ATOM     25  C   UNL     1      -8.605  -6.732   7.313  0.00  0.00    +0.004 A 
ATOM     26  C   UNL     1      -7.835  -8.498   5.917  0.00  0.00    +0.111 A 
ATOM     27  C   UNL     1      -8.633  -7.378   6.081  0.00  0.00    +0.020 A 
ENDBRANCH  22  23
ENDBRANCH  17  20
ENDBRANCH  10  17
TORSDOF 7
ENDMDL
MODEL 8
REMARK VINA RESULT:      -6.4     17.051     20.484
REMARK  Name = 75536361
REMARK  7 active torsions:
REMARK  status: ('A' for Active; 'I' for Inactive)
REMARK    1  A    between atoms: O_2  and  C_9
REMARK    2  A    between atoms: N_4  and  C_11
REMARK    3  A    between atoms: N_4  and  C_14
REMARK    4  A    between atoms: C_8  and  C_14
REMARK    5  A    between atoms: C_10  and  C_17
REMARK    6  A    between atoms: C_17  and  C_20
REMARK    7  A    between atoms: C_22  and  C_23
REMARK                            x       y       z     vdW  Elec       q    Type
REMARK                         _______ _______ _______ _____ _____    ______ ____
ROOT
ATOM      1  O   UNL     1      12.847   2.999   0.652  0.00  0.00    -0.369 OA
ATOM      8  C   UNL     1      13.230   3.772   1.797  0.00  0.00    +0.161 C 
ATOM      9  C   UNL     1      14.687   4.239   1.695  0.00  0.00    +0.145 C 
ATOM     10  C   UNL     1      13.037   3.646  -0.609  0.00  0.00    +0.125 C 
ATOM     12  C   UNL     1      14.994   4.895   0.350  0.00  0.00    +0.036 C 
ATOM     13  C   UNL     1      14.504   4.026  -0.804  0.00  0.00    +0.034 C 
ENDROOT
BRANCH   9   2
ATOM      2  O   UNL     1      15.547   3.104   1.833  0.00  0.00    -0.389 OA
ATOM     30  H   UNL     1      16.280   3.213   1.205  0.00  0.00    +0.210 HD
ENDBRANCH   9   2
BRANCH   8  14
ATOM     14  C   UNL     1      12.251   4.919   2.040  0.00  0.00    +0.115 C 
BRANCH  14   4
ATOM      4  N   UNL     1      12.576   5.627   3.268  0.00  0.00    -0.311 NA
ATOM     28  H   UNL     1      13.128   5.011   3.865  0.00  0.00    +0.122 HD
BRANCH   4  11
ATOM      5  N   UNL     1       9.722   5.917   6.411  0.00  0.00    -0.316 NA
ATOM     11  C   UNL     1      11.364   6.016   3.984  0.00  0.00    +0.056 C 
ATOM     15  C   UNL     1      10.554   4.774   4.372  0.00  0.00    +0.034 C 
ATOM     16  C   UNL     1      11.704   6.836   5.234  0.00  0.00    +0.034 C 
ATOM     18  C   UNL     1       9.339   5.158   5.218  0.00  0.00    +0.082 C 
ATOM     19  C   UNL     1      10.444   7.139   6.046  0.00  0.00    +0.082 C 
ATOM     29  H   UNL     1       8.884   6.165   6.936  0.00  0.00    +0.122 HD
ENDBRANCH   4  11
ENDBRANCH  14   4
ENDBRANCH   8  14
BRANCH  10  17
ATOM     17  C   UNL     1      12.577   2.681  -1.694  0.00  0.00    +0.090 C 
BRANCH  17  20
ATOM      3  O   UNL     1       9.348   2.940  -3.274  0.00  0.00    -0.353 OA
ATOM      6  N   UNL     1      10.419   2.206  -2.778  0.00  0.00    -0.083 NA
ATOM     20  C   UNL     1      11.278   3.119  -2.315  0.00  0.00    +0.087 A 
ATOM     21  C   UNL     1      10.807   4.432  -2.490  0.00  0.00    +0.077 A 
ATOM     22  C   UNL     1       9.590   4.264  -3.096  0.00  0.00    +0.186 A 
BRANCH  22  23
ATOM      7  N   UNL     1       8.133   4.906  -4.817  0.00  0.00    -0.252 NA
ATOM     23  C   UNL     1       8.566   5.152  -3.560  0.00  0.00    +0.109 A 
ATOM     24  C   UNL     1       8.078   6.172  -2.758  0.00  0.00    +0.031 A 
ATOM     25  C   UNL     1       7.082   6.991  -3.280  0.00  0.00    +0.004 A 
ATOM     26  C   UNL     1       7.165   5.721  -5.291  0.00  0.00    +0.111 A 
ATOM     27  C   UNL     1       6.612   6.768  -4.570  0.00  0.00    +0.020 A 
ENDBRANCH  22  23
ENDBRANCH  17  20
ENDBRANCH  10  17
TORSDOF 7
ENDMDL
MODEL 9
REMARK VINA RESULT:      -6.4     27.454     30.825
REMARK  Name = 75536361
REMARK  7 active torsions:
REMARK  status: ('A' for Active; 'I' for Inactive)
REMARK    1  A    between atoms: O_2  and  C_9
REMARK    2  A    between atoms: N_4  and  C_11
REMARK    3  A    between atoms: N_4  and  C_14
REMARK    4  A    between atoms: C_8  and  C_14
REMARK    5  A    between atoms: C_10  and  C_17
REMARK    6  A    between atoms: C_17  and  C_20
REMARK    7  A    between atoms: C_22  and  C_23
REMARK                            x       y       z     vdW  Elec       q    Type
REMARK                         _______ _______ _______ _____ _____    ______ ____
ROOT
ATOM      1  O   UNL     1     -16.084   2.157  24.572  0.00  0.00    -0.369 OA
ATOM      8  C   UNL     1     -16.130   3.225  23.617  0.00  0.00    +0.161 C 
ATOM      9  C   UNL     1     -17.496   3.297  22.924  0.00  0.00    +0.145 C 
ATOM     10  C   UNL     1     -17.107   2.191  25.571  0.00  0.00    +0.125 C 
ATOM     12  C   UNL     1     -18.655   3.280  23.919  0.00  0.00    +0.036 C 
ATOM     13  C   UNL     1     -18.491   2.145  24.926  0.00  0.00    +0.034 C 
ENDROOT
BRANCH   9   2
ATOM      2  O   UNL     1     -17.641   2.160  22.068  0.00  0.00    -0.389 OA
ATOM     30  H   UNL     1     -16.896   1.562  22.247  0.00  0.00    +0.210 HD
ENDBRANCH   9   2
BRANCH   8  14
ATOM     14  C   UNL     1     -15.713   4.551  24.252  0.00  0.00    +0.115 C 
BRANCH  14   4
ATOM      4  N   UNL     1     -14.355   4.904  23.869  0.00  0.00    -0.311 NA
ATOM     28  H   UNL     1     -13.924   5.426  24.633  0.00  0.00    +0.122 HD
BRANCH   4  11
ATOM      5  N   UNL     1     -13.360   8.089  21.230  0.00  0.00    -0.316 NA
ATOM     11  C   UNL     1     -14.349   5.734  22.667  0.00  0.00    +0.056 C 
ATOM     15  C   UNL     1     -14.825   7.153  22.999  0.00  0.00    +0.034 C 
ATOM     16  C   UNL     1     -12.952   5.780  22.038  0.00  0.00    +0.034 C 
ATOM     18  C   UNL     1     -14.720   8.062  21.774  0.00  0.00    +0.082 C 
ATOM     19  C   UNL     1     -12.920   6.744  20.851  0.00  0.00    +0.082 C 
ATOM     29  H   UNL     1     -13.338   8.693  20.409  0.00  0.00    +0.122 HD
ENDBRANCH   4  11
ENDBRANCH  14   4
ENDBRANCH   8  14
BRANCH  10  17
ATOM     17  C   UNL     1     -16.895   0.991  26.486  0.00  0.00    +0.090 C 
BRANCH  17  20
ATOM      3  O   UNL     1     -15.339   1.153  29.733  0.00  0.00    -0.353 OA
ATOM      6  N   UNL     1     -15.882   0.452  28.663  0.00  0.00    -0.083 NA
ATOM     20  C   UNL     1     -16.255   1.390  27.788  0.00  0.00    +0.087 A 
ATOM     21  C   UNL     1     -15.975   2.689  28.248  0.00  0.00    +0.077 A 
ATOM     22  C   UNL     1     -15.400   2.485  29.474  0.00  0.00    +0.186 A 
BRANCH  22  23
ATOM      7  N   UNL     1     -13.738   2.892  31.077  0.00  0.00    -0.252 NA
ATOM     23  C   UNL     1     -14.871   3.342  30.494  0.00  0.00    +0.109 A 
ATOM     24  C   UNL     1     -15.497   4.532  30.830  0.00  0.00    +0.031 A 
ATOM     25  C   UNL     1     -14.921   5.310  31.829  0.00  0.00    +0.004 A 
ATOM     26  C   UNL     1     -13.208   3.674  32.043  0.00  0.00    +0.111 A 
ATOM     27  C   UNL     1     -13.755   4.879  32.452  0.00  0.00    +0.020 A 
ENDBRANCH  22  23
ENDBRANCH  17  20
ENDBRANCH  10  17
TORSDOF 7
ENDMDL
MODEL 10
REMARK VINA RESULT:      -6.4      5.843      6.944
REMARK  Name = 75536361
REMARK  7 active torsions:
REMARK  status: ('A' for Active; 'I' for Inactive)
REMARK    1  A    between atoms: O_2  and  C_9
REMARK    2  A    between atoms: N_4  and  C_11
REMARK    3  A    between atoms: N_4  and  C_14
REMARK    4  A    between atoms: C_8  and  C_14
REMARK    5  A    between atoms: C_10  and  C_17
REMARK    6  A    between atoms: C_17  and  C_20
REMARK    7  A    between atoms: C_22  and  C_23
REMARK                            x       y       z     vdW  Elec       q    Type
REMARK                         _______ _______ _______ _____ _____    ______ ____
ROOT
ATOM      1  O   UNL     1      14.736   7.430  18.335  0.00  0.00    -0.369 OA
ATOM      8  C   UNL     1      13.589   8.245  18.608  0.00  0.00    +0.161 C 
ATOM      9  C   UNL     1      12.664   7.581  19.637  0.00  0.00    +0.145 C 
ATOM     10  C   UNL     1      15.508   7.064  19.482  0.00  0.00    +0.125 C 
ATOM     12  C   UNL     1      13.419   7.106  20.876  0.00  0.00    +0.036 C 
ATOM     13  C   UNL     1      14.651   6.294  20.485  0.00  0.00    +0.034 C 
ENDROOT
BRANCH   9   2
ATOM      2  O   UNL     1      12.050   6.438  19.035  0.00  0.00    -0.389 OA
ATOM     30  H   UNL     1      11.446   6.758  18.344  0.00  0.00    +0.210 HD
ENDBRANCH   9   2
BRANCH   8  14
ATOM     14  C   UNL     1      14.000   9.662  19.003  0.00  0.00    +0.115 C 
BRANCH  14   4
ATOM      4  N   UNL     1      12.839  10.453  19.381  0.00  0.00    -0.311 NA
ATOM     28  H   UNL     1      12.685  11.169  18.670  0.00  0.00    +0.122 HD
BRANCH   4  11
ATOM      5  N   UNL     1      13.264  10.920  23.588  0.00  0.00    -0.316 NA
ATOM     11  C   UNL     1      13.048  11.105  20.670  0.00  0.00    +0.056 C 
ATOM     15  C   UNL     1      11.822  10.908  21.570  0.00  0.00    +0.034 C 
ATOM     16  C   UNL     1      14.303  10.563  21.364  0.00  0.00    +0.034 C 
ATOM     18  C   UNL     1      12.069  11.490  22.962  0.00  0.00    +0.082 C 
ATOM     19  C   UNL     1      14.452  11.158  22.764  0.00  0.00    +0.082 C 
ATOM     29  H   UNL     1      13.399  11.345  24.505  0.00  0.00    +0.122 HD
ENDBRANCH   4  11
ENDBRANCH  14   4
ENDBRANCH   8  14
BRANCH  10  17
ATOM     17  C   UNL     1      16.674   6.211  18.997  0.00  0.00    +0.090 C 
BRANCH  17  20
ATOM      3  O   UNL     1      19.120   7.098  21.491  0.00  0.00    -0.353 OA
ATOM      6  N   UNL     1      17.916   7.294  20.825  0.00  0.00    -0.083 NA
ATOM     20  C   UNL     1      17.861   6.315  19.917  0.00  0.00    +0.087 A 
ATOM     21  C   UNL     1      18.990   5.480  19.964  0.00  0.00    +0.077 A 
ATOM     22  C   UNL     1      19.751   6.015  20.969  0.00  0.00    +0.186 A 
BRANCH  22  23
ATOM      7  N   UNL     1      21.045   5.770  22.909  0.00  0.00    -0.252 NA
ATOM     23  C   UNL     1      21.014   5.685  21.560  0.00  0.00    +0.109 A 
ATOM     24  C   UNL     1      22.098   5.312  20.782  0.00  0.00    +0.031 A 
ATOM     25  C   UNL     1      23.290   5.006  21.430  0.00  0.00    +0.004 A 
ATOM     26  C   UNL     1      22.219   5.466  23.504  0.00  0.00    +0.111 A 
ATOM     27  C   UNL     1      23.360   5.082  22.817  0.00  0.00    +0.020 A 
ENDBRANCH  22  23
ENDBRANCH  17  20
ENDBRANCH  10  17
TORSDOF 7
ENDMDL
