MODEL 1
REMARK VINA RESULT:      -8.5      0.000      0.000
REMARK  Name = 7663757
REMARK  4 active torsions:
REMARK  status: ('A' for Active; 'I' for Inactive)
REMARK    1  A    between atoms: C_15  and  C_18
REMARK    2  A    between atoms: C_16  and  C_19
REMARK    3  A    between atoms: C_22  and  C_26
REMARK    4  A    between atoms: C_25  and  C_27
REMARK                            x       y       z     vdW  Elec       q    Type
REMARK                         _______ _______ _______ _____ _____    ______ ____
ROOT
ATOM      2  O   UNL     1      15.303   5.969  21.131  0.00  0.00    -0.267 OA
ATOM      3  O   UNL     1      11.679   7.351  17.715  0.00  0.00    -0.270 OA
ATOM      4  N   UNL     1      11.727   8.975  19.398  0.00  0.00    -0.297 N 
ATOM      5  N   UNL     1      14.127   7.978  21.217  0.00  0.00    -0.311 N 
ATOM      6  C   UNL     1      11.616   8.080  21.718  0.00  0.00    +0.027 C 
ATOM      7  C   UNL     1      12.860  10.156  21.266  0.00  0.00    +0.054 C 
ATOM      8  C   UNL     1      11.925   9.471  22.261  0.00  0.00    +0.018 C 
ATOM      9  C   UNL     1      10.939   8.180  20.339  0.00  0.00    +0.113 C 
ATOM     10  C   UNL     1      12.918   7.271  21.664  0.00  0.00    +0.130 C 
ATOM     11  C   UNL     1      12.154  10.290  19.902  0.00  0.00    +0.117 C 
ATOM     12  C   UNL     1      14.148   9.370  21.098  0.00  0.00    +0.027 A 
ATOM     13  C   UNL     1      15.293  10.004  20.802  0.00  0.00    +0.022 A 
ATOM     14  C   UNL     1      15.282   7.195  21.016  0.00  0.00    +0.259 A 
ATOM     15  C   UNL     1      12.033   8.448  18.141  0.00  0.00    +0.247 C 
ATOM     16  C   UNL     1      16.545   7.931  20.654  0.00  0.00    +0.040 A 
ATOM     17  C   UNL     1      16.505   9.269  20.577  0.00  0.00    +0.015 A 
ENDROOT
BRANCH  15  18
ATOM     18  C   UNL     1      12.865   9.255  17.242  0.00  0.00    +0.037 A 
ATOM     20  C   UNL     1      14.128   9.671  17.655  0.00  0.00    +0.013 A 
ATOM     21  C   UNL     1      12.388   9.599  15.980  0.00  0.00    +0.013 A 
ATOM     23  C   UNL     1      14.920  10.437  16.799  0.00  0.00    +0.004 A 
ATOM     24  C   UNL     1      13.181  10.365  15.125  0.00  0.00    +0.004 A 
ATOM     25  C   UNL     1      14.446  10.785  15.535  0.00  0.00    -0.050 A 
ATOM     27  C   UNL     1      15.293  11.604  14.621  0.00  0.00    +0.044 C 
ENDBRANCH  15  18
BRANCH  16  19
ATOM     19  C   UNL     1      17.761   7.197  20.412  0.00  0.00    +0.014 C 
ATOM     22  C   UNL     1      18.910   7.467  21.044  0.00  0.00    +0.008 C 
BRANCH  22  26
ATOM      1 CL   UNL     1      24.050   4.572  20.155  0.00  0.00    -0.084 Cl
ATOM     26  C   UNL     1      20.179   6.752  20.824  0.00  0.00    -0.025 A 
ATOM     28  C   UNL     1      20.172   5.370  20.725  0.00  0.00    +0.009 A 
ATOM     29  C   UNL     1      21.357   7.475  20.721  0.00  0.00    +0.009 A 
ATOM     30  C   UNL     1      21.374   4.692  20.518  0.00  0.00    +0.020 A 
ATOM     31  C   UNL     1      22.559   6.799  20.513  0.00  0.00    +0.020 A 
ATOM     32  C   UNL     1      22.567   5.408  20.412  0.00  0.00    +0.041 A 
ENDBRANCH  22  26
ENDBRANCH  16  19
TORSDOF 3
ENDMDL
MODEL 2
REMARK VINA RESULT:      -8.2      1.849      2.483
REMARK  Name = 7663757
REMARK  4 active torsions:
REMARK  status: ('A' for Active; 'I' for Inactive)
REMARK    1  A    between atoms: C_15  and  C_18
REMARK    2  A    between atoms: C_16  and  C_19
REMARK    3  A    between atoms: C_22  and  C_26
REMARK    4  A    between atoms: C_25  and  C_27
REMARK                            x       y       z     vdW  Elec       q    Type
REMARK                         _______ _______ _______ _____ _____    ______ ____
ROOT
ATOM      2  O   UNL     1      15.720   5.951  19.313  0.00  0.00    -0.267 OA
ATOM      3  O   UNL     1      13.047   9.814  17.157  0.00  0.00    -0.270 OA
ATOM      4  N   UNL     1      12.423   9.687  19.408  0.00  0.00    -0.297 N 
ATOM      5  N   UNL     1      14.327   7.395  20.498  0.00  0.00    -0.311 N 
ATOM      6  C   UNL     1      11.783   7.411  20.188  0.00  0.00    +0.027 C 
ATOM      7  C   UNL     1      12.836   8.990  21.755  0.00  0.00    +0.054 C 
ATOM      8  C   UNL     1      11.753   7.920  21.625  0.00  0.00    +0.018 C 
ATOM      9  C   UNL     1      11.509   8.563  19.204  0.00  0.00    +0.113 C 
ATOM     10  C   UNL     1      13.138   6.742  19.929  0.00  0.00    +0.130 C 
ATOM     11  C   UNL     1      12.526  10.159  20.798  0.00  0.00    +0.117 C 
ATOM     12  C   UNL     1      14.206   8.421  21.439  0.00  0.00    +0.027 A 
ATOM     13  C   UNL     1      15.302   8.922  22.030  0.00  0.00    +0.022 A 
ATOM     14  C   UNL     1      15.580   6.867  20.124  0.00  0.00    +0.259 A 
ATOM     15  C   UNL     1      13.129  10.204  18.320  0.00  0.00    +0.247 C 
ATOM     16  C   UNL     1      16.791   7.472  20.782  0.00  0.00    +0.040 A 
ATOM     17  C   UNL     1      16.609   8.438  21.693  0.00  0.00    +0.015 A 
ENDROOT
BRANCH  15  18
ATOM     18  C   UNL     1      14.072  11.300  18.571  0.00  0.00    +0.037 A 
ATOM     20  C   UNL     1      13.664  12.619  18.391  0.00  0.00    +0.013 A 
ATOM     21  C   UNL     1      15.369  11.016  18.989  0.00  0.00    +0.013 A 
ATOM     23  C   UNL     1      14.559  13.661  18.632  0.00  0.00    +0.004 A 
ATOM     24  C   UNL     1      16.264  12.059  19.230  0.00  0.00    +0.004 A 
ATOM     25  C   UNL     1      15.859  13.381  19.050  0.00  0.00    -0.050 A 
ATOM     27  C   UNL     1      16.816  14.496  19.307  0.00  0.00    +0.044 C 
ENDBRANCH  15  18
BRANCH  16  19
ATOM     19  C   UNL     1      18.108   7.000  20.436  0.00  0.00    +0.014 C 
ATOM     22  C   UNL     1      19.055   6.752  21.350  0.00  0.00    +0.008 C 
BRANCH  22  26
ATOM      1 CL   UNL     1      24.565   4.831  20.111  0.00  0.00    -0.084 Cl
ATOM     26  C   UNL     1      20.416   6.278  21.044  0.00  0.00    -0.025 A 
ATOM     28  C   UNL     1      21.412   7.202  20.774  0.00  0.00    +0.009 A 
ATOM     29  C   UNL     1      20.674   4.916  21.032  0.00  0.00    +0.009 A 
ATOM     30  C   UNL     1      22.701   6.753  20.484  0.00  0.00    +0.020 A 
ATOM     31  C   UNL     1      21.961   4.466  20.743  0.00  0.00    +0.020 A 
ATOM     32  C   UNL     1      22.975   5.385  20.468  0.00  0.00    +0.041 A 
ENDBRANCH  22  26
ENDBRANCH  16  19
TORSDOF 3
ENDMDL
MODEL 3
REMARK VINA RESULT:      -8.0     22.012     25.083
REMARK  Name = 7663757
REMARK  4 active torsions:
REMARK  status: ('A' for Active; 'I' for Inactive)
REMARK    1  A    between atoms: C_15  and  C_18
REMARK    2  A    between atoms: C_16  and  C_19
REMARK    3  A    between atoms: C_22  and  C_26
REMARK    4  A    between atoms: C_25  and  C_27
REMARK                            x       y       z     vdW  Elec       q    Type
REMARK                         _______ _______ _______ _____ _____    ______ ____
ROOT
ATOM      2  O   UNL     1       9.414  -9.839  31.885  0.00  0.00    -0.267 OA
ATOM      3  O   UNL     1       8.272  -9.693  36.923  0.00  0.00    -0.270 OA
ATOM      4  N   UNL     1       8.020  -7.527  36.074  0.00  0.00    -0.297 N 
ATOM      5  N   UNL     1       8.594  -7.954  32.983  0.00  0.00    -0.311 N 
ATOM      6  C   UNL     1       9.956  -6.693  34.750  0.00  0.00    +0.027 C 
ATOM      7  C   UNL     1       7.678  -5.943  34.193  0.00  0.00    +0.054 C 
ATOM      8  C   UNL     1       9.131  -5.485  34.319  0.00  0.00    +0.018 C 
ATOM      9  C   UNL     1       9.453  -7.233  36.101  0.00  0.00    +0.113 C 
ATOM     10  C   UNL     1       9.892  -7.754  33.645  0.00  0.00    +0.130 C 
ATOM     11  C   UNL     1       7.172  -6.439  35.562  0.00  0.00    +0.117 C 
ATOM     12  C   UNL     1       7.543  -7.052  33.167  0.00  0.00    +0.027 A 
ATOM     13  C   UNL     1       6.408  -7.189  32.464  0.00  0.00    +0.022 A 
ATOM     14  C   UNL     1       8.501  -9.036  32.084  0.00  0.00    +0.259 A 
ATOM     15  C   UNL     1       7.569  -8.780  36.495  0.00  0.00    +0.247 C 
ATOM     16  C   UNL     1       7.204  -9.182  31.333  0.00  0.00    +0.040 A 
ATOM     17  C   UNL     1       6.241  -8.271  31.537  0.00  0.00    +0.015 A 
ENDROOT
BRANCH  15  18
ATOM     18  C   UNL     1       6.130  -9.056  36.410  0.00  0.00    +0.037 A 
ATOM     20  C   UNL     1       5.581  -9.503  35.210  0.00  0.00    +0.013 A 
ATOM     21  C   UNL     1       5.322  -8.871  37.528  0.00  0.00    +0.013 A 
ATOM     23  C   UNL     1       4.213  -9.767  35.129  0.00  0.00    +0.004 A 
ATOM     24  C   UNL     1       3.954  -9.135  37.446  0.00  0.00    +0.004 A 
ATOM     25  C   UNL     1       3.400  -9.582  36.247  0.00  0.00    -0.050 A 
ATOM     27  C   UNL     1       1.938  -9.863  36.159  0.00  0.00    +0.044 C 
ENDBRANCH  15  18
BRANCH  16  19
ATOM     19  C   UNL     1       7.025 -10.276  30.413  0.00  0.00    +0.014 C 
ATOM     22  C   UNL     1       6.624 -11.493  30.800  0.00  0.00    +0.008 C 
BRANCH  22  26
ATOM      1 CL   UNL     1       5.860 -16.151  27.152  0.00  0.00    -0.084 Cl
ATOM     26  C   UNL     1       6.436 -12.644  29.899  0.00  0.00    -0.025 A 
ATOM     28  C   UNL     1       7.432 -12.967  28.993  0.00  0.00    +0.009 A 
ATOM     29  C   UNL     1       5.265 -13.381  29.975  0.00  0.00    +0.009 A 
ATOM     30  C   UNL     1       7.254 -14.056  28.139  0.00  0.00    +0.020 A 
ATOM     31  C   UNL     1       5.085 -14.470  29.123  0.00  0.00    +0.020 A 
ATOM     32  C   UNL     1       6.080 -14.807  28.205  0.00  0.00    +0.041 A 
ENDBRANCH  22  26
ENDBRANCH  16  19
TORSDOF 3
ENDMDL
MODEL 4
REMARK VINA RESULT:      -7.8     13.069     15.134
REMARK  Name = 7663757
REMARK  4 active torsions:
REMARK  status: ('A' for Active; 'I' for Inactive)
REMARK    1  A    between atoms: C_15  and  C_18
REMARK    2  A    between atoms: C_16  and  C_19
REMARK    3  A    between atoms: C_22  and  C_26
REMARK    4  A    between atoms: C_25  and  C_27
REMARK                            x       y       z     vdW  Elec       q    Type
REMARK                         _______ _______ _______ _____ _____    ______ ____
ROOT
ATOM      2  O   UNL     1      13.800   6.219   7.642  0.00  0.00    -0.267 OA
ATOM      3  O   UNL     1      10.479   4.141   4.270  0.00  0.00    -0.270 OA
ATOM      4  N   UNL     1       9.597   6.193   4.965  0.00  0.00    -0.297 N 
ATOM      5  N   UNL     1      11.896   7.303   6.849  0.00  0.00    -0.311 N 
ATOM      6  C   UNL     1       9.526   6.519   7.432  0.00  0.00    +0.027 C 
ATOM      7  C   UNL     1       9.845   8.459   5.950  0.00  0.00    +0.054 C 
ATOM      8  C   UNL     1       9.144   7.980   7.220  0.00  0.00    +0.018 C 
ATOM      9  C   UNL     1       9.081   5.667   6.229  0.00  0.00    +0.113 C 
ATOM     10  C   UNL     1      11.039   6.435   7.670  0.00  0.00    +0.130 C 
ATOM     11  C   UNL     1       9.358   7.628   4.746  0.00  0.00    +0.117 C 
ATOM     12  C   UNL     1      11.352   8.334   6.079  0.00  0.00    +0.027 A 
ATOM     13  C   UNL     1      12.160   9.187   5.430  0.00  0.00    +0.022 A 
ATOM     14  C   UNL     1      13.288   7.107   6.958  0.00  0.00    +0.259 A 
ATOM     15  C   UNL     1      10.277   5.340   4.093  0.00  0.00    +0.247 C 
ATOM     16  C   UNL     1      14.167   8.060   6.193  0.00  0.00    +0.040 A 
ATOM     17  C   UNL     1      13.585   9.042   5.490  0.00  0.00    +0.015 A 
ENDROOT
BRANCH  15  18
ATOM     18  C   UNL     1      10.820   5.913   2.856  0.00  0.00    +0.037 A 
ATOM     20  C   UNL     1      10.065   5.879   1.687  0.00  0.00    +0.013 A 
ATOM     21  C   UNL     1      12.087   6.490   2.859  0.00  0.00    +0.013 A 
ATOM     23  C   UNL     1      10.580   6.426   0.512  0.00  0.00    +0.004 A 
ATOM     24  C   UNL     1      12.602   7.037   1.683  0.00  0.00    +0.004 A 
ATOM     25  C   UNL     1      11.849   7.004   0.509  0.00  0.00    -0.050 A 
ATOM     27  C   UNL     1      12.400   7.587  -0.747  0.00  0.00    +0.044 C 
ENDBRANCH  15  18
BRANCH  16  19
ATOM     19  C   UNL     1      15.599   7.909   6.237  0.00  0.00    +0.014 C 
ATOM     22  C   UNL     1      16.427   8.588   5.432  0.00  0.00    +0.008 C 
BRANCH  22  26
ATOM      1 CL   UNL     1      22.370   8.077   5.442  0.00  0.00    -0.084 Cl
ATOM     26  C   UNL     1      17.894   8.462   5.434  0.00  0.00    -0.025 A 
ATOM     28  C   UNL     1      18.546   8.102   4.266  0.00  0.00    +0.009 A 
ATOM     29  C   UNL     1      18.595   8.706   6.604  0.00  0.00    +0.009 A 
ATOM     30  C   UNL     1      19.936   7.982   4.268  0.00  0.00    +0.020 A 
ATOM     31  C   UNL     1      19.984   8.586   6.608  0.00  0.00    +0.020 A 
ATOM     32  C   UNL     1      20.655   8.224   5.440  0.00  0.00    +0.041 A 
ENDBRANCH  22  26
ENDBRANCH  16  19
TORSDOF 3
ENDMDL
MODEL 5
REMARK VINA RESULT:      -7.8     27.548     30.669
REMARK  Name = 7663757
REMARK  4 active torsions:
REMARK  status: ('A' for Active; 'I' for Inactive)
REMARK    1  A    between atoms: C_15  and  C_18
REMARK    2  A    between atoms: C_16  and  C_19
REMARK    3  A    between atoms: C_22  and  C_26
REMARK    4  A    between atoms: C_25  and  C_27
REMARK                            x       y       z     vdW  Elec       q    Type
REMARK                         _______ _______ _______ _____ _____    ______ ____
ROOT
ATOM      2  O   UNL     1      -6.640  -9.647  13.679  0.00  0.00    -0.267 OA
ATOM      3  O   UNL     1      -5.089 -14.204  11.797  0.00  0.00    -0.270 OA
ATOM      4  N   UNL     1      -3.176 -12.967  12.331  0.00  0.00    -0.297 N 
ATOM      5  N   UNL     1      -4.417 -10.344  13.614  0.00  0.00    -0.311 N 
ATOM      6  C   UNL     1      -3.139 -10.653  11.415  0.00  0.00    +0.027 C 
ATOM      7  C   UNL     1      -2.027 -11.139  13.557  0.00  0.00    +0.054 C 
ATOM      8  C   UNL     1      -1.903 -10.349  12.255  0.00  0.00    +0.018 C 
ATOM      9  C   UNL     1      -3.225 -12.160  11.112  0.00  0.00    +0.113 C 
ATOM     10  C   UNL     1      -4.379 -10.142  12.158  0.00  0.00    +0.130 C 
ATOM     11  C   UNL     1      -2.067 -12.648  13.244  0.00  0.00    +0.117 C 
ATOM     12  C   UNL     1      -3.278 -10.743  14.318  0.00  0.00    +0.027 A 
ATOM     13  C   UNL     1      -3.305 -10.808  15.658  0.00  0.00    +0.022 A 
ATOM     14  C   UNL     1      -5.624 -10.019  14.268  0.00  0.00    +0.259 A 
ATOM     15  C   UNL     1      -4.161 -13.933  12.555  0.00  0.00    +0.247 C 
ATOM     16  C   UNL     1      -5.631 -10.132  15.769  0.00  0.00    +0.040 A 
ATOM     17  C   UNL     1      -4.500 -10.499  16.388  0.00  0.00    +0.015 A 
ENDROOT
BRANCH  15  18
ATOM     18  C   UNL     1      -4.106 -14.690  13.810  0.00  0.00    +0.037 A 
ATOM     20  C   UNL     1      -4.738 -14.193  14.947  0.00  0.00    +0.013 A 
ATOM     21  C   UNL     1      -3.425 -15.903  13.858  0.00  0.00    +0.013 A 
ATOM     23  C   UNL     1      -4.688 -14.914  16.140  0.00  0.00    +0.004 A 
ATOM     24  C   UNL     1      -3.376 -16.624  15.052  0.00  0.00    +0.004 A 
ATOM     25  C   UNL     1      -4.007 -16.129  16.193  0.00  0.00    -0.050 A 
ATOM     27  C   UNL     1      -3.953 -16.899  17.469  0.00  0.00    +0.044 C 
ENDBRANCH  15  18
BRANCH  16  19
ATOM     19  C   UNL     1      -6.834  -9.838  16.506  0.00  0.00    +0.014 C 
ATOM     22  C   UNL     1      -7.417 -10.721  17.327  0.00  0.00    +0.008 C 
BRANCH  22  26
ATOM      1 CL   UNL     1     -12.408  -9.705  20.433  0.00  0.00    -0.084 Cl
ATOM     26  C   UNL     1      -8.650 -10.470  18.094  0.00  0.00    -0.025 A 
ATOM     28  C   UNL     1      -9.607  -9.611  17.579  0.00  0.00    +0.009 A 
ATOM     29  C   UNL     1      -8.829 -11.099  19.316  0.00  0.00    +0.009 A 
ATOM     30  C   UNL     1     -10.774  -9.373  18.306  0.00  0.00    +0.020 A 
ATOM     31  C   UNL     1      -9.995 -10.862  20.042  0.00  0.00    +0.020 A 
ATOM     32  C   UNL     1     -10.967  -9.999  19.537  0.00  0.00    +0.041 A 
ENDBRANCH  22  26
ENDBRANCH  16  19
TORSDOF 3
ENDMDL
MODEL 6
REMARK VINA RESULT:      -7.7     12.795     16.327
REMARK  Name = 7663757
REMARK  4 active torsions:
REMARK  status: ('A' for Active; 'I' for Inactive)
REMARK    1  A    between atoms: C_15  and  C_18
REMARK    2  A    between atoms: C_16  and  C_19
REMARK    3  A    between atoms: C_22  and  C_26
REMARK    4  A    between atoms: C_25  and  C_27
REMARK                            x       y       z     vdW  Elec       q    Type
REMARK                         _______ _______ _______ _____ _____    ______ ____
ROOT
ATOM      2  O   UNL     1      18.861  -3.713  29.738  0.00  0.00    -0.267 OA
ATOM      3  O   UNL     1      19.659  -0.670  25.637  0.00  0.00    -0.270 OA
ATOM      4  N   UNL     1      20.494  -2.794  25.120  0.00  0.00    -0.297 N 
ATOM      5  N   UNL     1      19.710  -4.463  27.702  0.00  0.00    -0.311 N 
ATOM      6  C   UNL     1      22.018  -3.763  26.834  0.00  0.00    +0.027 C 
ATOM      7  C   UNL     1      20.598  -5.249  25.478  0.00  0.00    +0.054 C 
ATOM      8  C   UNL     1      21.988  -5.097  26.095  0.00  0.00    +0.018 C 
ATOM      9  C   UNL     1      21.742  -2.603  25.860  0.00  0.00    +0.113 C 
ATOM     10  C   UNL     1      20.998  -3.810  27.979  0.00  0.00    +0.130 C 
ATOM     11  C   UNL     1      20.351  -4.107  24.472  0.00  0.00    +0.117 C 
ATOM     12  C   UNL     1      19.522  -5.228  26.547  0.00  0.00    +0.027 A 
ATOM     13  C   UNL     1      18.379  -5.909  26.371  0.00  0.00    +0.022 A 
ATOM     14  C   UNL     1      18.720  -4.363  28.701  0.00  0.00    +0.259 A 
ATOM     15  C   UNL     1      19.546  -1.769  25.098  0.00  0.00    +0.247 C 
ATOM     16  C   UNL     1      17.438  -5.114  28.460  0.00  0.00    +0.040 A 
ATOM     17  C   UNL     1      17.326  -5.847  27.344  0.00  0.00    +0.015 A 
ENDROOT
BRANCH  15  18
ATOM     18  C   UNL     1      18.287  -2.014  24.385  0.00  0.00    +0.037 A 
ATOM     20  C   UNL     1      17.256  -2.704  25.018  0.00  0.00    +0.013 A 
ATOM     21  C   UNL     1      18.128  -1.553  23.081  0.00  0.00    +0.013 A 
ATOM     23  C   UNL     1      16.058  -2.935  24.341  0.00  0.00    +0.004 A 
ATOM     24  C   UNL     1      16.930  -1.785  22.405  0.00  0.00    +0.004 A 
ATOM     25  C   UNL     1      15.895  -2.477  23.035  0.00  0.00    -0.050 A 
ATOM     27  C   UNL     1      14.616  -2.725  22.311  0.00  0.00    +0.044 C 
ENDBRANCH  15  18
BRANCH  16  19
ATOM     19  C   UNL     1      16.371  -5.042  29.426  0.00  0.00    +0.014 C 
ATOM     22  C   UNL     1      15.344  -5.902  29.440  0.00  0.00    +0.008 C 
BRANCH  22  26
ATOM      1 CL   UNL     1      10.822  -5.745  33.327  0.00  0.00    -0.084 Cl
ATOM     26  C   UNL     1      14.228  -5.864  30.400  0.00  0.00    -0.025 A 
ATOM     28  C   UNL     1      13.139  -6.699  30.209  0.00  0.00    +0.009 A 
ATOM     29  C   UNL     1      14.287  -4.993  31.476  0.00  0.00    +0.009 A 
ATOM     30  C   UNL     1      12.081  -6.662  31.117  0.00  0.00    +0.020 A 
ATOM     31  C   UNL     1      13.230  -4.955  32.385  0.00  0.00    +0.020 A 
ATOM     32  C   UNL     1      12.127  -5.790  32.205  0.00  0.00    +0.041 A 
ENDBRANCH  22  26
ENDBRANCH  16  19
TORSDOF 3
ENDMDL
MODEL 7
REMARK VINA RESULT:      -7.6     18.046     22.683
REMARK  Name = 7663757
REMARK  4 active torsions:
REMARK  status: ('A' for Active; 'I' for Inactive)
REMARK    1  A    between atoms: C_15  and  C_18
REMARK    2  A    between atoms: C_16  and  C_19
REMARK    3  A    between atoms: C_22  and  C_26
REMARK    4  A    between atoms: C_25  and  C_27
REMARK                            x       y       z     vdW  Elec       q    Type
REMARK                         _______ _______ _______ _____ _____    ______ ____
ROOT
ATOM      2  O   UNL     1      10.464   3.270  -2.240  0.00  0.00    -0.267 OA
ATOM      3  O   UNL     1      11.251   3.196   2.868  0.00  0.00    -0.270 OA
ATOM      4  N   UNL     1      12.860   4.605   1.920  0.00  0.00    -0.297 N 
ATOM      5  N   UNL     1      12.027   4.603  -1.141  0.00  0.00    -0.311 N 
ATOM      6  C   UNL     1      14.105   3.627  -0.001  0.00  0.00    +0.027 C 
ATOM      7  C   UNL     1      13.688   6.052   0.080  0.00  0.00    +0.054 C 
ATOM      8  C   UNL     1      14.726   4.992  -0.282  0.00  0.00    +0.018 C 
ATOM      9  C   UNL     1      13.724   3.508   1.486  0.00  0.00    +0.113 C 
ATOM     10  C   UNL     1      12.895   3.436  -0.924  0.00  0.00    +0.130 C 
ATOM     11  C   UNL     1      13.348   5.951   1.581  0.00  0.00    +0.117 C 
ATOM     12  C   UNL     1      12.424   5.882  -0.742  0.00  0.00    +0.027 A 
ATOM     13  C   UNL     1      11.670   6.948  -1.054  0.00  0.00    +0.022 A 
ATOM     14  C   UNL     1      10.833   4.381  -1.857  0.00  0.00    +0.259 A 
ATOM     15  C   UNL     1      11.663   4.317   2.581  0.00  0.00    +0.247 C 
ATOM     16  C   UNL     1       9.994   5.592  -2.165  0.00  0.00    +0.040 A 
ATOM     17  C   UNL     1      10.439   6.795  -1.774  0.00  0.00    +0.015 A 
ENDROOT
BRANCH  15  18
ATOM     18  C   UNL     1      10.800   5.442   2.960  0.00  0.00    +0.037 A 
ATOM     20  C   UNL     1      10.051   6.098   1.986  0.00  0.00    +0.013 A 
ATOM     21  C   UNL     1      10.734   5.846   4.290  0.00  0.00    +0.013 A 
ATOM     23  C   UNL     1       9.228   7.166   2.347  0.00  0.00    +0.004 A 
ATOM     24  C   UNL     1       9.911   6.914   4.649  0.00  0.00    +0.004 A 
ATOM     25  C   UNL     1       9.159   7.575   3.678  0.00  0.00    -0.050 A 
ATOM     27  C   UNL     1       8.281   8.717   4.062  0.00  0.00    +0.044 C 
ENDBRANCH  15  18
BRANCH  16  19
ATOM     19  C   UNL     1       8.749   5.442  -2.875  0.00  0.00    +0.014 C 
ATOM     22  C   UNL     1       7.803   6.390  -2.890  0.00  0.00    +0.008 C 
BRANCH  22  26
ATOM      1 CL   UNL     1       2.577   5.945  -5.734  0.00  0.00    -0.084 Cl
ATOM     26  C   UNL     1       6.512   6.279  -3.592  0.00  0.00    -0.025 A 
ATOM     28  C   UNL     1       6.476   5.727  -4.862  0.00  0.00    +0.009 A 
ATOM     29  C   UNL     1       5.360   6.731  -2.970  0.00  0.00    +0.009 A 
ATOM     30  C   UNL     1       5.254   5.623  -5.528  0.00  0.00    +0.020 A 
ATOM     31  C   UNL     1       4.138   6.627  -3.634  0.00  0.00    +0.020 A 
ATOM     32  C   UNL     1       4.085   6.074  -4.913  0.00  0.00    +0.041 A 
ENDBRANCH  22  26
ENDBRANCH  16  19
TORSDOF 3
ENDMDL
MODEL 8
REMARK VINA RESULT:      -7.5     11.969     14.298
REMARK  Name = 7663757
REMARK  4 active torsions:
REMARK  status: ('A' for Active; 'I' for Inactive)
REMARK    1  A    between atoms: C_15  and  C_18
REMARK    2  A    between atoms: C_16  and  C_19
REMARK    3  A    between atoms: C_22  and  C_26
REMARK    4  A    between atoms: C_25  and  C_27
REMARK                            x       y       z     vdW  Elec       q    Type
REMARK                         _______ _______ _______ _____ _____    ______ ____
ROOT
ATOM      2  O   UNL     1      12.839   7.263   3.561  0.00  0.00    -0.267 OA
ATOM      3  O   UNL     1       8.920   9.965   5.576  0.00  0.00    -0.270 OA
ATOM      4  N   UNL     1       9.053   7.935   6.731  0.00  0.00    -0.297 N 
ATOM      5  N   UNL     1      11.616   6.594   5.429  0.00  0.00    -0.311 N 
ATOM      6  C   UNL     1       9.150   5.912   5.284  0.00  0.00    +0.027 C 
ATOM      7  C   UNL     1      10.295   5.913   7.463  0.00  0.00    +0.054 C 
ATOM      8  C   UNL     1       9.460   5.059   6.509  0.00  0.00    +0.018 C 
ATOM      9  C   UNL     1       8.364   7.172   5.691  0.00  0.00    +0.113 C 
ATOM     10  C   UNL     1      10.466   6.257   4.576  0.00  0.00    +0.130 C 
ATOM     11  C   UNL     1       9.480   7.148   7.899  0.00  0.00    +0.117 C 
ATOM     12  C   UNL     1      11.587   6.360   6.806  0.00  0.00    +0.027 A 
ATOM     13  C   UNL     1      12.688   6.566   7.546  0.00  0.00    +0.022 A 
ATOM     14  C   UNL     1      12.774   7.064   4.775  0.00  0.00    +0.259 A 
ATOM     15  C   UNL     1       9.275   9.302   6.548  0.00  0.00    +0.247 C 
ATOM     16  C   UNL     1      13.982   7.315   5.637  0.00  0.00    +0.040 A 
ATOM     17  C   UNL     1      13.898   7.051   6.949  0.00  0.00    +0.015 A 
ENDROOT
BRANCH  15  18
ATOM     18  C   UNL     1      10.010  10.024   7.591  0.00  0.00    +0.037 A 
ATOM     20  C   UNL     1       9.328  10.529   8.696  0.00  0.00    +0.013 A 
ATOM     21  C   UNL     1      11.386  10.200   7.474  0.00  0.00    +0.013 A 
ATOM     23  C   UNL     1      10.027  11.214   9.690  0.00  0.00    +0.004 A 
ATOM     24  C   UNL     1      12.085  10.886   8.468  0.00  0.00    +0.004 A 
ATOM     25  C   UNL     1      11.405  11.394   9.575  0.00  0.00    -0.050 A 
ATOM     27  C   UNL     1      12.152  12.127  10.637  0.00  0.00    +0.044 C 
ENDBRANCH  15  18
BRANCH  16  19
ATOM     19  C   UNL     1      15.196   7.817   5.045  0.00  0.00    +0.014 C 
ATOM     22  C   UNL     1      16.221   8.283   5.771  0.00  0.00    +0.008 C 
BRANCH  22  26
ATOM      1 CL   UNL     1      21.303  10.431   3.504  0.00  0.00    -0.084 Cl
ATOM     26  C   UNL     1      17.476   8.813   5.212  0.00  0.00    -0.025 A 
ATOM     28  C   UNL     1      17.971  10.020   5.679  0.00  0.00    +0.009 A 
ATOM     29  C   UNL     1      18.137   8.096   4.228  0.00  0.00    +0.009 A 
ATOM     30  C   UNL     1      19.159  10.523   5.149  0.00  0.00    +0.020 A 
ATOM     31  C   UNL     1      19.325   8.598   3.697  0.00  0.00    +0.020 A 
ATOM     32  C   UNL     1      19.836   9.811   4.158  0.00  0.00    +0.041 A 
ENDBRANCH  22  26
ENDBRANCH  16  19
TORSDOF 3
ENDMDL
MODEL 9
REMARK VINA RESULT:      -7.5     13.898     17.422
REMARK  Name = 7663757
REMARK  4 active torsions:
REMARK  status: ('A' for Active; 'I' for Inactive)
REMARK    1  A    between atoms: C_15  and  C_18
REMARK    2  A    between atoms: C_16  and  C_19
REMARK    3  A    between atoms: C_22  and  C_26
REMARK    4  A    between atoms: C_25  and  C_27
REMARK                            x       y       z     vdW  Elec       q    Type
REMARK                         _______ _______ _______ _____ _____    ______ ____
ROOT
ATOM      2  O   UNL     1      18.315  -6.151  29.332  0.00  0.00    -0.267 OA
ATOM      3  O   UNL     1      20.484  -3.327  25.585  0.00  0.00    -0.270 OA
ATOM      4  N   UNL     1      20.192  -5.498  24.763  0.00  0.00    -0.297 N 
ATOM      5  N   UNL     1      18.699  -6.927  27.169  0.00  0.00    -0.311 N 
ATOM      6  C   UNL     1      21.059  -7.302  26.243  0.00  0.00    +0.027 C 
ATOM      7  C   UNL     1      19.100  -7.727  24.814  0.00  0.00    +0.054 C 
ATOM      8  C   UNL     1      20.390  -8.343  25.352  0.00  0.00    +0.018 C 
ATOM      9  C   UNL     1      21.377  -6.029  25.436  0.00  0.00    +0.113 C 
ATOM     10  C   UNL     1      20.142  -7.013  27.438  0.00  0.00    +0.130 C 
ATOM     11  C   UNL     1      19.435  -6.480  23.971  0.00  0.00    +0.117 C 
ATOM     12  C   UNL     1      18.166  -7.342  25.946  0.00  0.00    +0.027 A 
ATOM     13  C   UNL     1      16.837  -7.363  25.764  0.00  0.00    +0.022 A 
ATOM     14  C   UNL     1      17.879  -6.505  28.236  0.00  0.00    +0.259 A 
ATOM     15  C   UNL     1      19.855  -4.152  24.926  0.00  0.00    +0.247 C 
ATOM     16  C   UNL     1      16.394  -6.511  27.991  0.00  0.00    +0.040 A 
ATOM     17  C   UNL     1      15.943  -6.941  26.803  0.00  0.00    +0.015 A 
ENDROOT
BRANCH  15  18
ATOM     18  C   UNL     1      18.635  -3.666  24.273  0.00  0.00    +0.037 A 
ATOM     20  C   UNL     1      17.407  -3.791  24.919  0.00  0.00    +0.013 A 
ATOM     21  C   UNL     1      18.710  -3.080  23.013  0.00  0.00    +0.013 A 
ATOM     23  C   UNL     1      16.247  -3.327  24.299  0.00  0.00    +0.004 A 
ATOM     24  C   UNL     1      17.549  -2.616  22.393  0.00  0.00    +0.004 A 
ATOM     25  C   UNL     1      16.317  -2.740  23.036  0.00  0.00    -0.050 A 
ATOM     27  C   UNL     1      15.077  -2.245  22.374  0.00  0.00    +0.044 C 
ENDBRANCH  15  18
BRANCH  16  19
ATOM     19  C   UNL     1      15.493  -6.072  29.026  0.00  0.00    +0.014 C 
ATOM     22  C   UNL     1      14.480  -6.825  29.475  0.00  0.00    +0.008 C 
BRANCH  22  26
ATOM      1 CL   UNL     1      10.627  -5.175  33.720  0.00  0.00    -0.084 Cl
ATOM     26  C   UNL     1      13.529  -6.417  30.523  0.00  0.00    -0.025 A 
ATOM     28  C   UNL     1      13.788  -5.279  31.270  0.00  0.00    +0.009 A 
ATOM     29  C   UNL     1      12.392  -7.179  30.742  0.00  0.00    +0.009 A 
ATOM     30  C   UNL     1      12.887  -4.894  32.264  0.00  0.00    +0.020 A 
ATOM     31  C   UNL     1      11.491  -6.794  31.735  0.00  0.00    +0.020 A 
ATOM     32  C   UNL     1      11.739  -5.652  32.495  0.00  0.00    +0.041 A 
ENDBRANCH  22  26
ENDBRANCH  16  19
TORSDOF 3
ENDMDL
MODEL 10
REMARK VINA RESULT:      -7.4     28.648     30.373
REMARK  Name = 7663757
REMARK  4 active torsions:
REMARK  status: ('A' for Active; 'I' for Inactive)
REMARK    1  A    between atoms: C_15  and  C_18
REMARK    2  A    between atoms: C_16  and  C_19
REMARK    3  A    between atoms: C_22  and  C_26
REMARK    4  A    between atoms: C_25  and  C_27
REMARK                            x       y       z     vdW  Elec       q    Type
REMARK                         _______ _______ _______ _____ _____    ______ ____
ROOT
ATOM      2  O   UNL     1      -5.846 -13.435  14.330  0.00  0.00    -0.267 OA
ATOM      3  O   UNL     1      -9.726 -12.393  17.582  0.00  0.00    -0.270 OA
ATOM      4  N   UNL     1      -7.783 -11.430  18.461  0.00  0.00    -0.297 N 
ATOM      5  N   UNL     1      -5.648 -12.060  16.201  0.00  0.00    -0.311 N 
ATOM      6  C   UNL     1      -5.825 -12.962  18.593  0.00  0.00    +0.027 C 
ATOM      7  C   UNL     1      -5.472 -10.556  18.214  0.00  0.00    +0.054 C 
ATOM      8  C   UNL     1      -4.934 -11.779  18.954  0.00  0.00    +0.018 C 
ATOM      9  C   UNL     1      -7.280 -12.687  19.015  0.00  0.00    +0.113 C 
ATOM     10  C   UNL     1      -5.703 -13.232  17.088  0.00  0.00    +0.130 C 
ATOM     11  C   UNL     1      -6.913 -10.263  18.679  0.00  0.00    +0.117 C 
ATOM     12  C   UNL     1      -5.455 -10.775  16.713  0.00  0.00    +0.027 A 
ATOM     13  C   UNL     1      -5.291  -9.736  15.879  0.00  0.00    +0.022 A 
ATOM     14  C   UNL     1      -5.696 -12.312  14.814  0.00  0.00    +0.259 A 
ATOM     15  C   UNL     1      -8.995 -11.422  17.767  0.00  0.00    +0.247 C 
ATOM     16  C   UNL     1      -5.541 -11.122  13.905  0.00  0.00    +0.040 A 
ATOM     17  C   UNL     1      -5.337  -9.918  14.457  0.00  0.00    +0.015 A 
ENDROOT
BRANCH  15  18
ATOM     18  C   UNL     1      -9.445 -10.152  17.185  0.00  0.00    +0.037 A 
ATOM     20  C   UNL     1     -10.266  -9.304  17.924  0.00  0.00    +0.013 A 
ATOM     21  C   UNL     1      -9.047  -9.801  15.898  0.00  0.00    +0.013 A 
ATOM     23  C   UNL     1     -10.691  -8.096  17.371  0.00  0.00    +0.004 A 
ATOM     24  C   UNL     1      -9.473  -8.592  15.346  0.00  0.00    +0.004 A 
ATOM     25  C   UNL     1     -10.296  -7.740  16.082  0.00  0.00    -0.050 A 
ATOM     27  C   UNL     1     -10.752  -6.450  15.492  0.00  0.00    +0.044 C 
ENDBRANCH  15  18
BRANCH  16  19
ATOM     19  C   UNL     1      -5.602 -11.297  12.476  0.00  0.00    +0.014 C 
ATOM     22  C   UNL     1      -4.692 -10.778  11.641  0.00  0.00    +0.008 C 
BRANCH  22  26
ATOM      1 CL   UNL     1      -4.792 -11.362   5.705  0.00  0.00    -0.084 Cl
ATOM     26  C   UNL     1      -4.716 -10.922  10.175  0.00  0.00    -0.025 A 
ATOM     28  C   UNL     1      -5.064  -9.833   9.392  0.00  0.00    +0.009 A 
ATOM     29  C   UNL     1      -4.392 -12.144   9.607  0.00  0.00    +0.009 A 
ATOM     30  C   UNL     1      -5.088  -9.970   8.003  0.00  0.00    +0.020 A 
ATOM     31  C   UNL     1      -4.415 -12.281   8.220  0.00  0.00    +0.020 A 
ATOM     32  C   UNL     1      -4.763 -11.194   7.418  0.00  0.00    +0.041 A 
ENDBRANCH  22  26
ENDBRANCH  16  19
TORSDOF 3
ENDMDL
