MODEL 1
REMARK VINA RESULT:      -7.0      0.000      0.000
REMARK  Name = 45361366
REMARK  9 active torsions:
REMARK  status: ('A' for Active; 'I' for Inactive)
REMARK    1  A    between atoms: O_1  and  C_9
REMARK    2  A    between atoms: N_4  and  C_13
REMARK    3  A    between atoms: C_6  and  C_16
REMARK    4  A    between atoms: C_8  and  C_18
REMARK    5  A    between atoms: C_11  and  C_17
REMARK    6  A    between atoms: C_17  and  C_19
REMARK    7  A    between atoms: C_17  and  C_20
REMARK    8  A    between atoms: C_21  and  C_27
REMARK    9  A    between atoms: C_26  and  C_28
REMARK                            x       y       z     vdW  Elec       q    Type
REMARK                         _______ _______ _______ _____ _____    ______ ____
ROOT
ATOM      6  C   UNL     1      -5.143 -11.252  17.684  0.00  0.00    -0.027 C 
ATOM      7  C   UNL     1      -5.741 -10.551  16.419  0.00  0.00    +0.028 C 
ATOM      8  C   UNL     1      -7.311 -10.596  16.445  0.00  0.00    +0.012 C 
ATOM      9  C   UNL     1      -5.079 -11.083  15.115  0.00  0.00    +0.122 C 
ATOM     10  C   UNL     1      -3.604 -11.092  17.683  0.00  0.00    +0.007 C 
ATOM     11  C   UNL     1      -3.535 -11.017  15.162  0.00  0.00    +0.029 C 
ATOM     12  C   UNL     1      -5.688 -10.554  18.953  0.00  0.00    +0.009 C 
ATOM     13  C   UNL     1      -7.846  -9.959  17.759  0.00  0.00    +0.076 C 
ATOM     14  C   UNL     1      -2.949 -11.646  16.426  0.00  0.00    +0.007 C 
ATOM     15  C   UNL     1      -7.208 -10.543  19.021  0.00  0.00    +0.023 C 
ATOM     16  C   UNL     1      -5.485 -12.762  17.746  0.00  0.00    +0.011 C 
ATOM     18  C   UNL     1      -7.967  -9.898  15.242  0.00  0.00    +0.010 C 
ENDROOT
BRANCH  13   4
ATOM      3  O   UNL     1      -9.822  -7.837  17.606  0.00  0.00    -0.276 OA
ATOM      4  N   UNL     1      -9.283 -10.087  17.871  0.00  0.00    -0.312 N 
ATOM     21  C   UNL     1     -10.146  -9.010  17.784  0.00  0.00    +0.210 C 
ATOM     27  C   UNL     1     -11.587  -9.425  17.909  0.00  0.00    +0.109 C 
ATOM     29  H   UNL     1      -9.664 -11.005  18.081  0.00  0.00    +0.149 HD
ENDBRANCH  13   4
BRANCH   9   1
ATOM      1  O   UNL     1      -5.489 -10.277  14.009  0.00  0.00    -0.391 OA
ATOM     30  H   UNL     1      -4.691  -9.988  13.534  0.00  0.00    +0.210 HD
ENDBRANCH   9   1
BRANCH  11  17
ATOM     17  C   UNL     1      -2.899 -11.663  13.925  0.00  0.00    +0.078 C 
ATOM     19  C   UNL     1      -1.803 -12.638  14.320  0.00  0.00    +0.017 C 
BRANCH  17  20
ATOM      2  O   UNL     1      -1.622  -9.702  13.555  0.00  0.00    -0.275 OA
ATOM      5  N   UNL     1      -2.663 -10.628  11.696  0.00  0.00    -0.301 N 
ATOM     20  C   UNL     1      -2.333 -10.575  13.049  0.00  0.00    +0.219 C 
ATOM     22  C   UNL     1      -2.121  -9.629  10.773  0.00  0.00    +0.108 C 
ATOM     23  C   UNL     1      -3.507 -11.651  11.065  0.00  0.00    +0.108 C 
ATOM     24  C   UNL     1      -3.239  -8.941   9.995  0.00  0.00    +0.022 C 
ATOM     25  C   UNL     1      -4.654 -11.005  10.291  0.00  0.00    +0.022 C 
ATOM     26  C   UNL     1      -4.135  -9.967   9.285  0.00  0.00    -0.011 C 
ATOM     28  C   UNL     1      -5.294  -9.275   8.571  0.00  0.00    +0.007 C 
ENDBRANCH  17  20
ENDBRANCH  11  17
TORSDOF 4
ENDMDL
MODEL 2
REMARK VINA RESULT:      -6.8      2.616      7.401
REMARK  Name = 45361366
REMARK  9 active torsions:
REMARK  status: ('A' for Active; 'I' for Inactive)
REMARK    1  A    between atoms: O_1  and  C_9
REMARK    2  A    between atoms: N_4  and  C_13
REMARK    3  A    between atoms: C_6  and  C_16
REMARK    4  A    between atoms: C_8  and  C_18
REMARK    5  A    between atoms: C_11  and  C_17
REMARK    6  A    between atoms: C_17  and  C_19
REMARK    7  A    between atoms: C_17  and  C_20
REMARK    8  A    between atoms: C_21  and  C_27
REMARK    9  A    between atoms: C_26  and  C_28
REMARK                            x       y       z     vdW  Elec       q    Type
REMARK                         _______ _______ _______ _____ _____    ______ ____
ROOT
ATOM      6  C   UNL     1      -3.663 -10.587  10.486  0.00  0.00    -0.027 C 
ATOM      7  C   UNL     1      -4.903 -10.305  11.398  0.00  0.00    +0.028 C 
ATOM      8  C   UNL     1      -5.661  -9.012  10.925  0.00  0.00    +0.012 C 
ATOM      9  C   UNL     1      -4.514 -10.338  12.904  0.00  0.00    +0.122 C 
ATOM     10  C   UNL     1      -3.007 -11.923  10.908  0.00  0.00    +0.007 C 
ATOM     11  C   UNL     1      -3.765 -11.632  13.297  0.00  0.00    +0.029 C 
ATOM     12  C   UNL     1      -4.138 -10.737   9.022  0.00  0.00    +0.009 C 
ATOM     13  C   UNL     1      -6.068  -9.143   9.430  0.00  0.00    +0.076 C 
ATOM     14  C   UNL     1      -2.590 -11.944  12.372  0.00  0.00    +0.007 C 
ATOM     15  C   UNL     1      -4.903  -9.524   8.515  0.00  0.00    +0.023 C 
ATOM     16  C   UNL     1      -2.599  -9.464  10.565  0.00  0.00    +0.011 C 
ATOM     18  C   UNL     1      -6.911  -8.691  11.762  0.00  0.00    +0.010 C 
ENDROOT
BRANCH  13   4
ATOM      3  O   UNL     1      -8.480  -8.891   7.833  0.00  0.00    -0.276 OA
ATOM      4  N   UNL     1      -6.667  -7.925   8.928  0.00  0.00    -0.312 N 
ATOM     21  C   UNL     1      -7.824  -7.908   8.171  0.00  0.00    +0.210 C 
ATOM     27  C   UNL     1      -8.241  -6.510   7.801  0.00  0.00    +0.109 C 
ATOM     29  H   UNL     1      -6.176  -7.051   9.095  0.00  0.00    +0.149 HD
ENDBRANCH  13   4
BRANCH   9   1
ATOM      1  O   UNL     1      -5.698 -10.292  13.703  0.00  0.00    -0.391 OA
ATOM     30  H   UNL     1      -6.090  -9.407  13.610  0.00  0.00    +0.210 HD
ENDBRANCH   9   1
BRANCH  11  17
ATOM     17  C   UNL     1      -3.277 -11.589  14.750  0.00  0.00    +0.078 C 
ATOM     19  C   UNL     1      -1.774 -11.789  14.828  0.00  0.00    +0.017 C 
BRANCH  17  20
ATOM      2  O   UNL     1      -4.152 -13.776  15.009  0.00  0.00    -0.275 OA
ATOM      5  N   UNL     1      -4.414 -12.335  16.812  0.00  0.00    -0.301 N 
ATOM     20  C   UNL     1      -3.984 -12.669  15.529  0.00  0.00    +0.219 C 
ATOM     22  C   UNL     1      -5.074 -13.341  17.645  0.00  0.00    +0.108 C 
ATOM     23  C   UNL     1      -4.231 -11.029  17.456  0.00  0.00    +0.108 C 
ATOM     24  C   UNL     1      -6.427 -12.837  18.141  0.00  0.00    +0.022 C 
ATOM     25  C   UNL     1      -5.567 -10.476  17.949  0.00  0.00    +0.022 C 
ATOM     26  C   UNL     1      -6.289 -11.485  18.856  0.00  0.00    -0.011 C 
ATOM     28  C   UNL     1      -7.655 -10.953  19.282  0.00  0.00    +0.007 C 
ENDBRANCH  17  20
ENDBRANCH  11  17
TORSDOF 4
ENDMDL
MODEL 3
REMARK VINA RESULT:      -6.6      3.268      7.770
REMARK  Name = 45361366
REMARK  9 active torsions:
REMARK  status: ('A' for Active; 'I' for Inactive)
REMARK    1  A    between atoms: O_1  and  C_9
REMARK    2  A    between atoms: N_4  and  C_13
REMARK    3  A    between atoms: C_6  and  C_16
REMARK    4  A    between atoms: C_8  and  C_18
REMARK    5  A    between atoms: C_11  and  C_17
REMARK    6  A    between atoms: C_17  and  C_19
REMARK    7  A    between atoms: C_17  and  C_20
REMARK    8  A    between atoms: C_21  and  C_27
REMARK    9  A    between atoms: C_26  and  C_28
REMARK                            x       y       z     vdW  Elec       q    Type
REMARK                         _______ _______ _______ _____ _____    ______ ____
ROOT
ATOM      6  C   UNL     1      -6.396 -11.414  19.043  0.00  0.00    -0.027 C 
ATOM      7  C   UNL     1      -6.743 -10.848  17.626  0.00  0.00    +0.028 C 
ATOM      8  C   UNL     1      -5.507 -10.105  17.003  0.00  0.00    +0.012 C 
ATOM      9  C   UNL     1      -8.068 -10.032  17.655  0.00  0.00    +0.122 C 
ATOM     10  C   UNL     1      -7.595 -12.233  19.579  0.00  0.00    +0.007 C 
ATOM     11  C   UNL     1      -9.238 -10.819  18.287  0.00  0.00    +0.029 C 
ATOM     12  C   UNL     1      -5.188 -12.373  18.921  0.00  0.00    +0.009 C 
ATOM     13  C   UNL     1      -4.277 -11.056  16.955  0.00  0.00    +0.076 C 
ATOM     14  C   UNL     1      -8.884 -11.426  19.645  0.00  0.00    +0.007 C 
ATOM     15  C   UNL     1      -3.965 -11.715  18.298  0.00  0.00    +0.023 C 
ATOM     16  C   UNL     1      -6.060 -10.298  20.064  0.00  0.00    +0.011 C 
ATOM     18  C   UNL     1      -5.770  -9.547  15.594  0.00  0.00    +0.010 C 
ENDROOT
BRANCH  13   4
ATOM      3  O   UNL     1      -2.387 -11.963  14.945  0.00  0.00    -0.276 OA
ATOM      4  N   UNL     1      -3.088 -10.371  16.493  0.00  0.00    -0.312 N 
ATOM     21  C   UNL     1      -2.246 -10.888  15.526  0.00  0.00    +0.210 C 
ATOM     27  C   UNL     1      -1.100  -9.963  15.216  0.00  0.00    +0.109 C 
ATOM     29  H   UNL     1      -2.836  -9.498  16.947  0.00  0.00    +0.149 HD
ENDBRANCH  13   4
BRANCH   9   1
ATOM      1  O   UNL     1      -8.462  -9.717  16.319  0.00  0.00    -0.391 OA
ATOM     30  H   UNL     1      -7.661  -9.511  15.808  0.00  0.00    +0.210 HD
ENDBRANCH   9   1
BRANCH  11  17
ATOM     17  C   UNL     1     -10.498  -9.956  18.425  0.00  0.00    +0.078 C 
ATOM     19  C   UNL     1     -11.039 -10.000  19.843  0.00  0.00    +0.017 C 
BRANCH  17  20
ATOM      2  O   UNL     1     -11.762 -11.672  17.393  0.00  0.00    -0.275 OA
ATOM      5  N   UNL     1     -12.186  -9.502  16.681  0.00  0.00    -0.301 N 
ATOM     20  C   UNL     1     -11.537 -10.461  17.457  0.00  0.00    +0.219 C 
ATOM     22  C   UNL     1     -13.236  -9.910  15.745  0.00  0.00    +0.108 C 
ATOM     23  C   UNL     1     -11.939  -8.056  16.733  0.00  0.00    +0.108 C 
ATOM     24  C   UNL     1     -12.937  -9.404  14.336  0.00  0.00    +0.022 C 
ATOM     25  C   UNL     1     -11.615  -7.511  15.344  0.00  0.00    +0.022 C 
ATOM     26  C   UNL     1     -12.704  -7.886  14.328  0.00  0.00    -0.011 C 
ATOM     28  C   UNL     1     -12.333  -7.400  12.929  0.00  0.00    +0.007 C 
ENDBRANCH  17  20
ENDBRANCH  11  17
TORSDOF 4
ENDMDL
MODEL 4
REMARK VINA RESULT:      -6.2     19.063     21.092
REMARK  Name = 45361366
REMARK  9 active torsions:
REMARK  status: ('A' for Active; 'I' for Inactive)
REMARK    1  A    between atoms: O_1  and  C_9
REMARK    2  A    between atoms: N_4  and  C_13
REMARK    3  A    between atoms: C_6  and  C_16
REMARK    4  A    between atoms: C_8  and  C_18
REMARK    5  A    between atoms: C_11  and  C_17
REMARK    6  A    between atoms: C_17  and  C_19
REMARK    7  A    between atoms: C_17  and  C_20
REMARK    8  A    between atoms: C_21  and  C_27
REMARK    9  A    between atoms: C_26  and  C_28
REMARK                            x       y       z     vdW  Elec       q    Type
REMARK                         _______ _______ _______ _____ _____    ______ ____
ROOT
ATOM      6  C   UNL     1     -15.226   7.742  20.732  0.00  0.00    -0.027 C 
ATOM      7  C   UNL     1     -13.854   7.011  20.909  0.00  0.00    +0.028 C 
ATOM      8  C   UNL     1     -13.956   5.888  22.002  0.00  0.00    +0.012 C 
ATOM      9  C   UNL     1     -12.694   8.030  21.103  0.00  0.00    +0.122 C 
ATOM     10  C   UNL     1     -15.122   8.762  19.573  0.00  0.00    +0.007 C 
ATOM     11  C   UNL     1     -12.659   9.110  19.997  0.00  0.00    +0.029 C 
ATOM     12  C   UNL     1     -16.306   6.703  20.348  0.00  0.00    +0.009 C 
ATOM     13  C   UNL     1     -15.094   4.891  21.645  0.00  0.00    +0.076 C 
ATOM     14  C   UNL     1     -14.012   9.784  19.780  0.00  0.00    +0.007 C 
ATOM     15  C   UNL     1     -16.432   5.573  21.360  0.00  0.00    +0.023 C 
ATOM     16  C   UNL     1     -15.671   8.490  22.014  0.00  0.00    +0.011 C 
ATOM     18  C   UNL     1     -12.646   5.108  22.207  0.00  0.00    +0.010 C 
ENDROOT
BRANCH  13   4
ATOM      3  O   UNL     1     -16.116   5.346  24.325  0.00  0.00    -0.276 OA
ATOM      4  N   UNL     1     -15.293   3.908  22.689  0.00  0.00    -0.312 N 
ATOM     21  C   UNL     1     -15.788   4.225  23.940  0.00  0.00    +0.210 C 
ATOM     27  C   UNL     1     -15.918   3.013  24.824  0.00  0.00    +0.109 C 
ATOM     29  H   UNL     1     -14.999   2.953  22.505  0.00  0.00    +0.149 HD
ENDBRANCH  13   4
BRANCH   9   1
ATOM      1  O   UNL     1     -11.442   7.344  21.045  0.00  0.00    -0.391 OA
ATOM     30  H   UNL     1     -10.954   7.537  21.863  0.00  0.00    +0.210 HD
ENDBRANCH   9   1
BRANCH  11  17
ATOM     17  C   UNL     1     -11.593  10.177  20.276  0.00  0.00    +0.078 C 
ATOM     19  C   UNL     1     -11.985  11.046  21.458  0.00  0.00    +0.017 C 
BRANCH  17  20
ATOM      2  O   UNL     1     -11.886  12.171  19.031  0.00  0.00    -0.275 OA
ATOM      5  N   UNL     1     -10.749  10.445  17.971  0.00  0.00    -0.301 N 
ATOM     20  C   UNL     1     -11.425  11.026  19.042  0.00  0.00    +0.219 C 
ATOM     22  C   UNL     1     -10.512  11.220  16.751  0.00  0.00    +0.108 C 
ATOM     23  C   UNL     1     -10.192   9.087  17.953  0.00  0.00    +0.108 C 
ATOM     24  C   UNL     1     -11.041  10.481  15.524  0.00  0.00    +0.022 C 
ATOM     25  C   UNL     1     -10.713   8.303  16.750  0.00  0.00    +0.022 C 
ATOM     26  C   UNL     1     -10.461   9.061  15.438  0.00  0.00    -0.011 C 
ATOM     28  C   UNL     1     -11.053   8.304  14.251  0.00  0.00    +0.007 C 
ENDBRANCH  17  20
ENDBRANCH  11  17
TORSDOF 4
ENDMDL
MODEL 5
REMARK VINA RESULT:      -6.2     27.217     29.664
REMARK  Name = 45361366
REMARK  9 active torsions:
REMARK  status: ('A' for Active; 'I' for Inactive)
REMARK    1  A    between atoms: O_1  and  C_9
REMARK    2  A    between atoms: N_4  and  C_13
REMARK    3  A    between atoms: C_6  and  C_16
REMARK    4  A    between atoms: C_8  and  C_18
REMARK    5  A    between atoms: C_11  and  C_17
REMARK    6  A    between atoms: C_17  and  C_19
REMARK    7  A    between atoms: C_17  and  C_20
REMARK    8  A    between atoms: C_21  and  C_27
REMARK    9  A    between atoms: C_26  and  C_28
REMARK                            x       y       z     vdW  Elec       q    Type
REMARK                         _______ _______ _______ _____ _____    ______ ____
ROOT
ATOM      6  C   UNL     1      13.004   9.106  17.384  0.00  0.00    -0.027 C 
ATOM      7  C   UNL     1      13.596  10.342  18.141  0.00  0.00    +0.028 C 
ATOM      8  C   UNL     1      14.914  10.843  17.447  0.00  0.00    +0.012 C 
ATOM      9  C   UNL     1      13.709  10.066  19.668  0.00  0.00    +0.122 C 
ATOM     10  C   UNL     1      11.652   8.710  18.025  0.00  0.00    +0.007 C 
ATOM     11  C   UNL     1      12.380   9.569  20.283  0.00  0.00    +0.029 C 
ATOM     12  C   UNL     1      12.731   9.500  15.913  0.00  0.00    +0.009 C 
ATOM     13  C   UNL     1      14.645  11.163  15.949  0.00  0.00    +0.076 C 
ATOM     14  C   UNL     1      11.767   8.401  19.511  0.00  0.00    +0.007 C 
ATOM     15  C   UNL     1      13.967  10.019  15.195  0.00  0.00    +0.023 C 
ATOM     16  C   UNL     1      13.949   7.879  17.417  0.00  0.00    +0.011 C 
ATOM     18  C   UNL     1      15.536  12.076  18.124  0.00  0.00    +0.010 C 
ENDROOT
BRANCH  13   4
ATOM      3  O   UNL     1      14.965  13.167  13.872  0.00  0.00    -0.276 OA
ATOM      4  N   UNL     1      15.861  11.518  15.250  0.00  0.00    -0.312 N 
ATOM     21  C   UNL     1      15.912  12.492  14.270  0.00  0.00    +0.210 C 
ATOM     27  C   UNL     1      17.303  12.676  13.724  0.00  0.00    +0.109 C 
ATOM     29  H   UNL     1      16.700  10.982  15.453  0.00  0.00    +0.149 HD
ENDBRANCH  13   4
BRANCH   9   1
ATOM      1  O   UNL     1      14.046  11.277  20.348  0.00  0.00    -0.391 OA
ATOM     30  H   UNL     1      13.386  11.950  20.111  0.00  0.00    +0.210 HD
ENDBRANCH   9   1
BRANCH  11  17
ATOM     17  C   UNL     1      12.545   9.180  21.757  0.00  0.00    +0.078 C 
ATOM     19  C   UNL     1      12.530   7.671  21.929  0.00  0.00    +0.017 C 
BRANCH  17  20
ATOM      2  O   UNL     1      10.276   9.365  22.415  0.00  0.00    -0.275 OA
ATOM      5  N   UNL     1      11.765  10.855  23.394  0.00  0.00    -0.301 N 
ATOM     20  C   UNL     1      11.423   9.802  22.549  0.00  0.00    +0.219 C 
ATOM     22  C   UNL     1      10.737  11.486  24.225  0.00  0.00    +0.108 C 
ATOM     23  C   UNL     1      13.117  11.397  23.574  0.00  0.00    +0.108 C 
ATOM     24  C   UNL     1      10.703  12.996  23.998  0.00  0.00    +0.022 C 
ATOM     25  C   UNL     1      13.133  12.906  23.334  0.00  0.00    +0.022 C 
ATOM     26  C   UNL     1      12.090  13.621  24.207  0.00  0.00    -0.011 C 
ATOM     28  C   UNL     1      12.063  15.118  23.905  0.00  0.00    +0.007 C 
ENDBRANCH  17  20
ENDBRANCH  11  17
TORSDOF 4
ENDMDL
MODEL 6
REMARK VINA RESULT:      -6.1      3.038      5.354
REMARK  Name = 45361366
REMARK  9 active torsions:
REMARK  status: ('A' for Active; 'I' for Inactive)
REMARK    1  A    between atoms: O_1  and  C_9
REMARK    2  A    between atoms: N_4  and  C_13
REMARK    3  A    between atoms: C_6  and  C_16
REMARK    4  A    between atoms: C_8  and  C_18
REMARK    5  A    between atoms: C_11  and  C_17
REMARK    6  A    between atoms: C_17  and  C_19
REMARK    7  A    between atoms: C_17  and  C_20
REMARK    8  A    between atoms: C_21  and  C_27
REMARK    9  A    between atoms: C_26  and  C_28
REMARK                            x       y       z     vdW  Elec       q    Type
REMARK                         _______ _______ _______ _____ _____    ______ ____
ROOT
ATOM      6  C   UNL     1      -2.317 -10.797  13.271  0.00  0.00    -0.027 C 
ATOM      7  C   UNL     1      -3.843 -10.708  13.607  0.00  0.00    +0.028 C 
ATOM      8  C   UNL     1      -4.173 -11.505  14.920  0.00  0.00    +0.012 C 
ATOM      9  C   UNL     1      -4.715 -11.068  12.370  0.00  0.00    +0.122 C 
ATOM     10  C   UNL     1      -2.009  -9.911  12.040  0.00  0.00    +0.007 C 
ATOM     11  C   UNL     1      -4.331 -10.253  11.114  0.00  0.00    +0.029 C 
ATOM     12  C   UNL     1      -1.504 -10.243  14.465  0.00  0.00    +0.009 C 
ATOM     13  C   UNL     1      -3.296 -10.991  16.097  0.00  0.00    +0.076 C 
ATOM     14  C   UNL     1      -2.832 -10.287  10.816  0.00  0.00    +0.007 C 
ATOM     15  C   UNL     1      -1.802 -10.961  15.773  0.00  0.00    +0.023 C 
ATOM     16  C   UNL     1      -1.858 -12.246  12.969  0.00  0.00    +0.011 C 
ATOM     18  C   UNL     1      -5.655 -11.436  15.327  0.00  0.00    +0.010 C 
ENDROOT
BRANCH  13   4
ATOM      3  O   UNL     1      -4.910 -10.313  18.413  0.00  0.00    -0.276 OA
ATOM      4  N   UNL     1      -3.490 -11.780  17.295  0.00  0.00    -0.312 N 
ATOM     21  C   UNL     1      -4.283 -11.368  18.350  0.00  0.00    +0.210 C 
ATOM     27  C   UNL     1      -4.330 -12.387  19.457  0.00  0.00    +0.109 C 
ATOM     29  H   UNL     1      -2.970 -12.648  17.382  0.00  0.00    +0.149 HD
ENDBRANCH  13   4
BRANCH   9   1
ATOM      1  O   UNL     1      -6.084 -10.770  12.648  0.00  0.00    -0.391 OA
ATOM     30  H   UNL     1      -6.120  -9.907  13.095  0.00  0.00    +0.210 HD
ENDBRANCH   9   1
BRANCH  11  17
ATOM     17  C   UNL     1      -5.110 -10.713   9.876  0.00  0.00    +0.078 C 
ATOM     19  C   UNL     1      -4.214 -11.477   8.917  0.00  0.00    +0.017 C 
BRANCH  17  20
ATOM      2  O   UNL     1      -4.941  -8.560   8.900  0.00  0.00    -0.275 OA
ATOM      5  N   UNL     1      -7.055  -9.521   8.928  0.00  0.00    -0.301 N 
ATOM     20  C   UNL     1      -5.687  -9.500   9.190  0.00  0.00    +0.219 C 
ATOM     22  C   UNL     1      -7.682  -8.397   8.230  0.00  0.00    +0.108 C 
ATOM     23  C   UNL     1      -7.967 -10.622   9.262  0.00  0.00    +0.108 C 
ATOM     24  C   UNL     1      -8.857  -7.844   9.032  0.00  0.00    +0.022 C 
ATOM     25  C   UNL     1      -9.150 -10.115  10.085  0.00  0.00    +0.022 C 
ATOM     26  C   UNL     1      -9.863  -8.951   9.380  0.00  0.00    -0.011 C 
ATOM     28  C   UNL     1     -10.996  -8.404  10.246  0.00  0.00    +0.007 C 
ENDBRANCH  17  20
ENDBRANCH  11  17
TORSDOF 4
ENDMDL
MODEL 7
REMARK VINA RESULT:      -6.1     22.832     26.576
REMARK  Name = 45361366
REMARK  9 active torsions:
REMARK  status: ('A' for Active; 'I' for Inactive)
REMARK    1  A    between atoms: O_1  and  C_9
REMARK    2  A    between atoms: N_4  and  C_13
REMARK    3  A    between atoms: C_6  and  C_16
REMARK    4  A    between atoms: C_8  and  C_18
REMARK    5  A    between atoms: C_11  and  C_17
REMARK    6  A    between atoms: C_17  and  C_19
REMARK    7  A    between atoms: C_17  and  C_20
REMARK    8  A    between atoms: C_21  and  C_27
REMARK    9  A    between atoms: C_26  and  C_28
REMARK                            x       y       z     vdW  Elec       q    Type
REMARK                         _______ _______ _______ _____ _____    ______ ____
ROOT
ATOM      6  C   UNL     1      11.785   8.119   5.560  0.00  0.00    -0.027 C 
ATOM      7  C   UNL     1      11.078   6.883   4.909  0.00  0.00    +0.028 C 
ATOM      8  C   UNL     1      10.464   5.946   6.010  0.00  0.00    +0.012 C 
ATOM      9  C   UNL     1      12.008   6.182   3.877  0.00  0.00    +0.122 C 
ATOM     10  C   UNL     1      12.278   9.075   4.448  0.00  0.00    +0.007 C 
ATOM     11  C   UNL     1      12.582   7.164   2.830  0.00  0.00    +0.029 C 
ATOM     12  C   UNL     1      10.758   8.890   6.423  0.00  0.00    +0.009 C 
ATOM     13  C   UNL     1       9.491   6.749   6.919  0.00  0.00    +0.076 C 
ATOM     14  C   UNL     1      13.219   8.402   3.459  0.00  0.00    +0.007 C 
ATOM     15  C   UNL     1      10.109   8.024   7.493  0.00  0.00    +0.023 C 
ATOM     16  C   UNL     1      12.993   7.716   6.442  0.00  0.00    +0.011 C 
ATOM     18  C   UNL     1       9.728   4.723   5.438  0.00  0.00    +0.010 C 
ENDROOT
BRANCH  13   4
ATOM      3  O   UNL     1      11.050   5.389   8.956  0.00  0.00    -0.276 OA
ATOM      4  N   UNL     1       8.995   5.946   8.015  0.00  0.00    -0.312 N 
ATOM     21  C   UNL     1       9.823   5.335   8.940  0.00  0.00    +0.210 C 
ATOM     27  C   UNL     1       9.047   4.582   9.987  0.00  0.00    +0.109 C 
ATOM     29  H   UNL     1       7.994   5.779   8.068  0.00  0.00    +0.149 HD
ENDBRANCH  13   4
BRANCH   9   1
ATOM      1  O   UNL     1      11.263   5.201   3.153  0.00  0.00    -0.391 OA
ATOM     30  H   UNL     1      10.421   5.604   2.878  0.00  0.00    +0.210 HD
ENDBRANCH   9   1
BRANCH  11  17
ATOM     17  C   UNL     1      13.595   6.480   1.903  0.00  0.00    +0.078 C 
ATOM     19  C   UNL     1      14.994   7.029   2.123  0.00  0.00    +0.017 C 
BRANCH  17  20
ATOM      2  O   UNL     1      12.672   7.787   0.156  0.00  0.00    -0.275 OA
ATOM      5  N   UNL     1      13.370   5.646  -0.410  0.00  0.00    -0.301 N 
ATOM     20  C   UNL     1      13.170   6.704   0.474  0.00  0.00    +0.219 C 
ATOM     22  C   UNL     1      13.018   5.799  -1.823  0.00  0.00    +0.108 C 
ATOM     23  C   UNL     1      13.958   4.346  -0.062  0.00  0.00    +0.108 C 
ATOM     24  C   UNL     1      12.073   4.688  -2.274  0.00  0.00    +0.022 C 
ATOM     25  C   UNL     1      13.032   3.204  -0.477  0.00  0.00    +0.022 C 
ATOM     26  C   UNL     1      12.657   3.302  -1.964  0.00  0.00    -0.011 C 
ATOM     28  C   UNL     1      11.674   2.199  -2.350  0.00  0.00    +0.007 C 
ENDBRANCH  17  20
ENDBRANCH  11  17
TORSDOF 4
ENDMDL
MODEL 8
REMARK VINA RESULT:      -6.0     29.674     32.071
REMARK  Name = 45361366
REMARK  9 active torsions:
REMARK  status: ('A' for Active; 'I' for Inactive)
REMARK    1  A    between atoms: O_1  and  C_9
REMARK    2  A    between atoms: N_4  and  C_13
REMARK    3  A    between atoms: C_6  and  C_16
REMARK    4  A    between atoms: C_8  and  C_18
REMARK    5  A    between atoms: C_11  and  C_17
REMARK    6  A    between atoms: C_17  and  C_19
REMARK    7  A    between atoms: C_17  and  C_20
REMARK    8  A    between atoms: C_21  and  C_27
REMARK    9  A    between atoms: C_26  and  C_28
REMARK                            x       y       z     vdW  Elec       q    Type
REMARK                         _______ _______ _______ _____ _____    ______ ____
ROOT
ATOM      6  C   UNL     1      -1.103   6.526  39.669  0.00  0.00    -0.027 C 
ATOM      7  C   UNL     1      -2.511   7.159  39.415  0.00  0.00    +0.028 C 
ATOM      8  C   UNL     1      -2.394   8.441  38.514  0.00  0.00    +0.012 C 
ATOM      9  C   UNL     1      -3.292   7.348  40.747  0.00  0.00    +0.122 C 
ATOM     10  C   UNL     1      -1.266   5.207  40.462  0.00  0.00    +0.007 C 
ATOM     11  C   UNL     1      -3.362   6.051  41.586  0.00  0.00    +0.029 C 
ATOM     12  C   UNL     1      -0.453   6.179  38.309  0.00  0.00    +0.009 C 
ATOM     13  C   UNL     1      -1.671   8.097  37.181  0.00  0.00    +0.076 C 
ATOM     14  C   UNL     1      -1.995   5.396  41.785  0.00  0.00    +0.007 C 
ATOM     15  C   UNL     1      -0.336   7.379  37.380  0.00  0.00    +0.023 C 
ATOM     16  C   UNL     1      -0.160   7.469  40.459  0.00  0.00    +0.011 C 
ATOM     18  C   UNL     1      -3.748   9.099  38.200  0.00  0.00    +0.010 C 
ENDROOT
BRANCH  13   4
ATOM      3  O   UNL     1      -0.197  10.484  37.927  0.00  0.00    -0.276 OA
ATOM      4  N   UNL     1      -1.442   9.277  36.375  0.00  0.00    -0.312 N 
ATOM     21  C   UNL     1      -0.723  10.369  36.823  0.00  0.00    +0.210 C 
ATOM     27  C   UNL     1      -0.616  11.447  35.777  0.00  0.00    +0.109 C 
ATOM     29  H   UNL     1      -1.883   9.321  35.460  0.00  0.00    +0.149 HD
ENDBRANCH  13   4
BRANCH   9   1
ATOM      1  O   UNL     1      -4.641   7.722  40.461  0.00  0.00    -0.391 OA
ATOM     30  H   UNL     1      -5.064   6.987  39.985  0.00  0.00    +0.210 HD
ENDBRANCH   9   1
BRANCH  11  17
ATOM     17  C   UNL     1      -4.020   6.289  42.950  0.00  0.00    +0.078 C 
ATOM     19  C   UNL     1      -3.092   5.886  44.083  0.00  0.00    +0.017 C 
BRANCH  17  20
ATOM      2  O   UNL     1      -5.245   4.262  42.892  0.00  0.00    -0.275 OA
ATOM      5  N   UNL     1      -6.474   6.207  43.215  0.00  0.00    -0.301 N 
ATOM     20  C   UNL     1      -5.296   5.489  43.016  0.00  0.00    +0.219 C 
ATOM     22  C   UNL     1      -7.750   5.497  43.329  0.00  0.00    +0.108 C 
ATOM     23  C   UNL     1      -6.567   7.664  43.365  0.00  0.00    +0.108 C 
ATOM     24  C   UNL     1      -8.766   6.038  42.326  0.00  0.00    +0.022 C 
ATOM     25  C   UNL     1      -7.560   8.250  42.363  0.00  0.00    +0.022 C 
ATOM     26  C   UNL     1      -8.928   7.559  42.463  0.00  0.00    -0.011 C 
ATOM     28  C   UNL     1      -9.889   8.101  41.407  0.00  0.00    +0.007 C 
ENDBRANCH  17  20
ENDBRANCH  11  17
TORSDOF 4
ENDMDL
MODEL 9
REMARK VINA RESULT:      -6.0     19.618     21.669
REMARK  Name = 45361366
REMARK  9 active torsions:
REMARK  status: ('A' for Active; 'I' for Inactive)
REMARK    1  A    between atoms: O_1  and  C_9
REMARK    2  A    between atoms: N_4  and  C_13
REMARK    3  A    between atoms: C_6  and  C_16
REMARK    4  A    between atoms: C_8  and  C_18
REMARK    5  A    between atoms: C_11  and  C_17
REMARK    6  A    between atoms: C_17  and  C_19
REMARK    7  A    between atoms: C_17  and  C_20
REMARK    8  A    between atoms: C_21  and  C_27
REMARK    9  A    between atoms: C_26  and  C_28
REMARK                            x       y       z     vdW  Elec       q    Type
REMARK                         _______ _______ _______ _____ _____    ______ ____
ROOT
ATOM      6  C   UNL     1     -11.550   8.401  18.729  0.00  0.00    -0.027 C 
ATOM      7  C   UNL     1     -12.927   8.006  18.099  0.00  0.00    +0.028 C 
ATOM      8  C   UNL     1     -13.138   8.728  16.720  0.00  0.00    +0.012 C 
ATOM      9  C   UNL     1     -14.085   8.174  19.126  0.00  0.00    +0.122 C 
ATOM     10  C   UNL     1     -11.325   7.588  20.027  0.00  0.00    +0.007 C 
ATOM     11  C   UNL     1     -13.807   7.446  20.461  0.00  0.00    +0.029 C 
ATOM     12  C   UNL     1     -10.419   8.031  17.741  0.00  0.00    +0.009 C 
ATOM     13  C   UNL     1     -11.957   8.410  15.760  0.00  0.00    +0.076 C 
ATOM     14  C   UNL     1     -12.437   7.782  21.049  0.00  0.00    +0.007 C 
ATOM     15  C   UNL     1     -10.584   8.682  16.375  0.00  0.00    +0.023 C 
ATOM     16  C   UNL     1     -11.461   9.910  19.066  0.00  0.00    +0.011 C 
ATOM     18  C   UNL     1     -14.463   8.362  16.030  0.00  0.00    +0.010 C 
ENDROOT
BRANCH  13   4
ATOM      3  O   UNL     1     -11.034   7.588  13.133  0.00  0.00    -0.276 OA
ATOM      4  N   UNL     1     -12.059   9.150  14.521  0.00  0.00    -0.312 N 
ATOM     21  C   UNL     1     -11.586   8.671  13.313  0.00  0.00    +0.210 C 
ATOM     27  C   UNL     1     -11.842   9.630  12.182  0.00  0.00    +0.109 C 
ATOM     29  H   UNL     1     -12.446  10.090  14.559  0.00  0.00    +0.149 HD
ENDBRANCH  13   4
BRANCH   9   1
ATOM      1  O   UNL     1     -15.282   7.606  18.592  0.00  0.00    -0.391 OA
ATOM     30  H   UNL     1     -15.587   8.174  17.864  0.00  0.00    +0.210 HD
ENDBRANCH   9   1
BRANCH  11  17
ATOM     17  C   UNL     1     -14.896   7.729  21.502  0.00  0.00    +0.078 C 
ATOM     19  C   UNL     1     -14.366   8.608  22.623  0.00  0.00    +0.017 C 
BRANCH  17  20
ATOM      2  O   UNL     1     -14.606   5.710  22.707  0.00  0.00    -0.275 OA
ATOM      5  N   UNL     1     -16.711   6.081  21.798  0.00  0.00    -0.301 N 
ATOM     20  C   UNL     1     -15.384   6.417  22.061  0.00  0.00    +0.219 C 
ATOM     22  C   UNL     1     -17.271   4.841  22.339  0.00  0.00    +0.108 C 
ATOM     23  C   UNL     1     -17.659   6.899  21.031  0.00  0.00    +0.108 C 
ATOM     24  C   UNL     1     -17.880   3.988  21.229  0.00  0.00    +0.022 C 
ATOM     25  C   UNL     1     -18.278   6.089  19.894  0.00  0.00    +0.022 C 
ATOM     26  C   UNL     1     -18.908   4.787  20.414  0.00  0.00    -0.011 C 
ATOM     28  C   UNL     1     -19.457   3.950  19.261  0.00  0.00    +0.007 C 
ENDBRANCH  17  20
ENDBRANCH  11  17
TORSDOF 4
ENDMDL
MODEL 10
REMARK VINA RESULT:      -6.0     28.596     30.853
REMARK  Name = 45361366
REMARK  9 active torsions:
REMARK  status: ('A' for Active; 'I' for Inactive)
REMARK    1  A    between atoms: O_1  and  C_9
REMARK    2  A    between atoms: N_4  and  C_13
REMARK    3  A    between atoms: C_6  and  C_16
REMARK    4  A    between atoms: C_8  and  C_18
REMARK    5  A    between atoms: C_11  and  C_17
REMARK    6  A    between atoms: C_17  and  C_19
REMARK    7  A    between atoms: C_17  and  C_20
REMARK    8  A    between atoms: C_21  and  C_27
REMARK    9  A    between atoms: C_26  and  C_28
REMARK                            x       y       z     vdW  Elec       q    Type
REMARK                         _______ _______ _______ _____ _____    ______ ____
ROOT
ATOM      6  C   UNL     1      19.703   9.337  22.063  0.00  0.00    -0.027 C 
ATOM      7  C   UNL     1      18.815   8.135  21.599  0.00  0.00    +0.028 C 
ATOM      8  C   UNL     1      19.695   7.010  20.947  0.00  0.00    +0.012 C 
ATOM      9  C   UNL     1      17.610   8.622  20.743  0.00  0.00    +0.122 C 
ATOM     10  C   UNL     1      18.822  10.375  22.801  0.00  0.00    +0.007 C 
ATOM     11  C   UNL     1      16.794   9.734  21.442  0.00  0.00    +0.029 C 
ATOM     12  C   UNL     1      20.763   8.823  23.066  0.00  0.00    +0.009 C 
ATOM     13  C   UNL     1      20.805   6.553  21.936  0.00  0.00    +0.076 C 
ATOM     14  C   UNL     1      17.665  10.882  21.951  0.00  0.00    +0.007 C 
ATOM     15  C   UNL     1      21.631   7.710  22.498  0.00  0.00    +0.023 C 
ATOM     16  C   UNL     1      20.417  10.041  20.882  0.00  0.00    +0.011 C 
ATOM     18  C   UNL     1      18.887   5.782  20.492  0.00  0.00    +0.010 C 
ENDROOT
BRANCH  13   4
ATOM      3  O   UNL     1      21.773   4.065  23.076  0.00  0.00    -0.276 OA
ATOM      4  N   UNL     1      21.706   5.599  21.327  0.00  0.00    -0.312 N 
ATOM     21  C   UNL     1      22.111   4.435  21.954  0.00  0.00    +0.210 C 
ATOM     27  C   UNL     1      23.029   3.613  21.090  0.00  0.00    +0.109 C 
ATOM     29  H   UNL     1      22.101   5.830  20.419  0.00  0.00    +0.149 HD
ENDBRANCH  13   4
BRANCH   9   1
ATOM      1  O   UNL     1      16.712   7.534  20.521  0.00  0.00    -0.391 OA
ATOM     30  H   UNL     1      16.786   7.267  19.589  0.00  0.00    +0.210 HD
ENDBRANCH   9   1
BRANCH  11  17
ATOM     17  C   UNL     1      15.693  10.291  20.531  0.00  0.00    +0.078 C 
ATOM     19  C   UNL     1      16.082  11.648  19.969  0.00  0.00    +0.017 C 
BRANCH  17  20
ATOM      2  O   UNL     1      14.371  11.196  22.276  0.00  0.00    -0.275 OA
ATOM      5  N   UNL     1      13.360   9.592  20.935  0.00  0.00    -0.301 N 
ATOM     20  C   UNL     1      14.419  10.406  21.329  0.00  0.00    +0.219 C 
ATOM     22  C   UNL     1      12.077   9.674  21.636  0.00  0.00    +0.108 C 
ATOM     23  C   UNL     1      13.387   8.643  19.815  0.00  0.00    +0.108 C 
ATOM     24  C   UNL     1      11.640   8.299  22.137  0.00  0.00    +0.022 C 
ATOM     25  C   UNL     1      12.976   7.246  20.277  0.00  0.00    +0.022 C 
ATOM     26  C   UNL     1      11.618   7.273  20.995  0.00  0.00    -0.011 C 
ATOM     28  C   UNL     1      11.252   5.885  21.518  0.00  0.00    +0.007 C 
ENDBRANCH  17  20
ENDBRANCH  11  17
TORSDOF 4
ENDMDL
