MODEL 1
REMARK VINA RESULT:      -7.1      0.000      0.000
REMARK  Name = 38031273
REMARK  14 active torsions:
REMARK  status: ('A' for Active; 'I' for Inactive)
REMARK    1  A    between atoms: O_3  and  C_31
REMARK    2  A    between atoms: O_3  and  C_32
REMARK    3  A    between atoms: N_4  and  C_15
REMARK    4  A    between atoms: N_6  and  C_23
REMARK    5  A    between atoms: C_8  and  C_12
REMARK    6  A    between atoms: C_9  and  C_15
REMARK    7  A    between atoms: C_11  and  C_16
REMARK    8  A    between atoms: C_12  and  C_17
REMARK    9  A    between atoms: C_12  and  C_18
REMARK   10  A    between atoms: C_13  and  C_19
REMARK   11  A    between atoms: C_16  and  C_20
REMARK   12  A    between atoms: C_22  and  C_24
REMARK   13  A    between atoms: C_23  and  C_25
REMARK   14  A    between atoms: C_23  and  C_26
REMARK                            x       y       z     vdW  Elec       q    Type
REMARK                         _______ _______ _______ _____ _____    ______ ____
ROOT
ATOM      8  C   UNL     1      12.920   9.837  20.465  0.00  0.00    +0.000 C 
ATOM      9  C   UNL     1      11.470   9.743  21.001  0.00  0.00    +0.032 C 
ATOM     10  C   UNL     1      13.238   8.634  19.565  0.00  0.00    +0.012 C 
ATOM     11  C   UNL     1      13.079   7.293  20.306  0.00  0.00    +0.024 C 
ATOM     13  C   UNL     1      11.780   7.231  21.084  0.00  0.00    -0.073 C 
ATOM     14  C   UNL     1      11.067   8.336  21.374  0.00  0.00    -0.022 C 
ATOM     19  C   UNL     1      11.293   5.866  21.483  0.00  0.00    +0.039 C 
ENDROOT
BRANCH   8  12
ATOM     12  C   UNL     1      13.157  11.139  19.694  0.00  0.00    -0.013 C 
ATOM     17  C   UNL     1      14.353  11.890  20.272  0.00  0.00    +0.007 C 
ATOM     18  C   UNL     1      13.367  10.849  18.210  0.00  0.00    +0.007 C 
ENDBRANCH   8  12
BRANCH   9  15
ATOM     15  C   UNL     1      11.264  10.669  22.206  0.00  0.00    +0.113 C 
BRANCH  15   4
ATOM      2  O   UNL     1      12.773  12.766  23.489  0.00  0.00    -0.253 OA
ATOM      4  N   UNL     1      12.322  10.511  23.153  0.00  0.00    -0.299 N 
ATOM      6  N   UNL     1      13.992  11.149  24.621  0.00  0.00    -0.297 N 
ATOM     21  C   UNL     1      13.010  11.584  23.734  0.00  0.00    +0.300 C 
ATOM     33  H   UNL     1      12.548   9.576  23.476  0.00  0.00    +0.150 HD
ATOM     34  H   UNL     1      14.164  10.150  24.698  0.00  0.00    +0.150 HD
BRANCH   6  23
ATOM     23  C   UNL     1      14.844  12.056  25.353  0.00  0.00    +0.068 C 
ATOM     25  C   UNL     1      16.094  12.376  24.544  0.00  0.00    +0.027 C 
ATOM     26  C   UNL     1      15.201  11.472  26.714  0.00  0.00    +0.027 C 
ENDBRANCH   6  23
ENDBRANCH  15   4
ENDBRANCH   9  15
BRANCH  11  16
ATOM     16  C   UNL     1      14.279   7.021  21.220  0.00  0.00    +0.105 C 
BRANCH  16  20
ATOM      1  O   UNL     1      16.686   6.642  21.076  0.00  0.00    -0.420 OA
ATOM      5  N   UNL     1      15.578   6.222  19.179  0.00  0.00    -0.112 NA
ATOM      7  N   UNL     1      16.918   5.968  18.956  0.00  0.00    -0.107 NA
ATOM     20  C   UNL     1      15.489   6.613  20.429  0.00  0.00    +0.218 A 
ATOM     22  C   UNL     1      17.526   6.228  20.089  0.00  0.00    +0.248 A 
BRANCH  22  24
ATOM     24  C   UNL     1      18.914   6.141  20.442  0.00  0.00    +0.039 A 
ATOM     27  C   UNL     1      19.542   7.216  21.072  0.00  0.00    +0.017 A 
ATOM     28  C   UNL     1      19.635   4.982  20.157  0.00  0.00    +0.017 A 
ATOM     29  C   UNL     1      20.891   7.130  21.417  0.00  0.00    +0.046 A 
ATOM     30  C   UNL     1      20.984   4.897  20.500  0.00  0.00    +0.046 A 
ATOM     31  C   UNL     1      21.611   5.971  21.130  0.00  0.00    +0.120 A 
BRANCH  31   3
ATOM      3  O   UNL     1      22.927   5.887  21.469  0.00  0.00    -0.495 OA
ATOM     32  C   UNL     1      23.230   5.553  22.823  0.00  0.00    +0.277 C 
ENDBRANCH  31   3
ENDBRANCH  22  24
ENDBRANCH  16  20
ENDBRANCH  11  16
TORSDOF 8
ENDMDL
MODEL 2
REMARK VINA RESULT:      -6.7     27.869     30.265
REMARK  Name = 38031273
REMARK  14 active torsions:
REMARK  status: ('A' for Active; 'I' for Inactive)
REMARK    1  A    between atoms: O_3  and  C_31
REMARK    2  A    between atoms: O_3  and  C_32
REMARK    3  A    between atoms: N_4  and  C_15
REMARK    4  A    between atoms: N_6  and  C_23
REMARK    5  A    between atoms: C_8  and  C_12
REMARK    6  A    between atoms: C_9  and  C_15
REMARK    7  A    between atoms: C_11  and  C_16
REMARK    8  A    between atoms: C_12  and  C_17
REMARK    9  A    between atoms: C_12  and  C_18
REMARK   10  A    between atoms: C_13  and  C_19
REMARK   11  A    between atoms: C_16  and  C_20
REMARK   12  A    between atoms: C_22  and  C_24
REMARK   13  A    between atoms: C_23  and  C_25
REMARK   14  A    between atoms: C_23  and  C_26
REMARK                            x       y       z     vdW  Elec       q    Type
REMARK                         _______ _______ _______ _____ _____    ______ ____
ROOT
ATOM      8  C   UNL     1      -6.403 -11.091  16.262  0.00  0.00    +0.000 C 
ATOM      9  C   UNL     1      -6.926 -11.194  17.716  0.00  0.00    +0.032 C 
ATOM     10  C   UNL     1      -5.324 -12.153  16.004  0.00  0.00    +0.012 C 
ATOM     11  C   UNL     1      -4.127 -12.012  16.963  0.00  0.00    +0.024 C 
ATOM     13  C   UNL     1      -4.575 -11.838  18.400  0.00  0.00    -0.073 C 
ATOM     14  C   UNL     1      -5.834 -11.485  18.718  0.00  0.00    -0.022 C 
ATOM     19  C   UNL     1      -3.556 -12.123  19.468  0.00  0.00    +0.039 C 
ENDROOT
BRANCH   8  12
ATOM     12  C   UNL     1      -7.534 -11.243  15.239  0.00  0.00    -0.013 C 
ATOM     17  C   UNL     1      -7.650  -9.984  14.384  0.00  0.00    +0.007 C 
ATOM     18  C   UNL     1      -7.300 -12.471  14.364  0.00  0.00    +0.007 C 
ENDBRANCH   8  12
BRANCH   9  15
ATOM     15  C   UNL     1      -7.670  -9.917  18.127  0.00  0.00    +0.113 C 
BRANCH  15   4
ATOM      2  O   UNL     1     -10.478 -10.518  17.853  0.00  0.00    -0.253 OA
ATOM      4  N   UNL     1      -8.598 -10.189  19.179  0.00  0.00    -0.299 N 
ATOM      6  N   UNL     1     -10.629 -10.698  20.161  0.00  0.00    -0.297 N 
ATOM     21  C   UNL     1      -9.953 -10.473  18.964  0.00  0.00    +0.300 C 
ATOM     33  H   UNL     1      -8.250 -10.245  20.131  0.00  0.00    +0.150 HD
ATOM     34  H   UNL     1     -10.125 -10.562  21.033  0.00  0.00    +0.150 HD
BRANCH   6  23
ATOM     23  C   UNL     1     -12.038 -11.012  20.218  0.00  0.00    +0.068 C 
ATOM     25  C   UNL     1     -12.812  -9.853  20.833  0.00  0.00    +0.027 C 
ATOM     26  C   UNL     1     -12.267 -12.303  20.993  0.00  0.00    +0.027 C 
ENDBRANCH   6  23
ENDBRANCH  15   4
ENDBRANCH   9  15
BRANCH  11  16
ATOM     16  C   UNL     1      -3.206 -10.866  16.533  0.00  0.00    +0.105 C 
BRANCH  16  20
ATOM      1  O   UNL     1      -3.705 -10.463  14.178  0.00  0.00    -0.420 OA
ATOM      5  N   UNL     1      -1.762 -11.511  14.536  0.00  0.00    -0.112 NA
ATOM      7  N   UNL     1      -1.915 -11.350  13.172  0.00  0.00    -0.107 NA
ATOM     20  C   UNL     1      -2.830 -10.979  15.084  0.00  0.00    +0.218 A 
ATOM     22  C   UNL     1      -3.063 -10.734  13.009  0.00  0.00    +0.248 A 
BRANCH  22  24
ATOM     24  C   UNL     1      -3.731 -10.310  11.813  0.00  0.00    +0.039 A 
ATOM     27  C   UNL     1      -5.110 -10.475  11.689  0.00  0.00    +0.017 A 
ATOM     28  C   UNL     1      -3.001  -9.732  10.775  0.00  0.00    +0.017 A 
ATOM     29  C   UNL     1      -5.760 -10.061  10.525  0.00  0.00    +0.046 A 
ATOM     30  C   UNL     1      -3.650  -9.318   9.612  0.00  0.00    +0.046 A 
ATOM     31  C   UNL     1      -5.029  -9.483   9.487  0.00  0.00    +0.120 A 
BRANCH  31   3
ATOM      3  O   UNL     1      -5.663  -9.077   8.353  0.00  0.00    -0.495 OA
ATOM     32  C   UNL     1      -5.555  -9.923   7.210  0.00  0.00    +0.277 C 
ENDBRANCH  31   3
ENDBRANCH  22  24
ENDBRANCH  16  20
ENDBRANCH  11  16
TORSDOF 8
ENDMDL
MODEL 3
REMARK VINA RESULT:      -6.6      1.996      3.072
REMARK  Name = 38031273
REMARK  14 active torsions:
REMARK  status: ('A' for Active; 'I' for Inactive)
REMARK    1  A    between atoms: O_3  and  C_31
REMARK    2  A    between atoms: O_3  and  C_32
REMARK    3  A    between atoms: N_4  and  C_15
REMARK    4  A    between atoms: N_6  and  C_23
REMARK    5  A    between atoms: C_8  and  C_12
REMARK    6  A    between atoms: C_9  and  C_15
REMARK    7  A    between atoms: C_11  and  C_16
REMARK    8  A    between atoms: C_12  and  C_17
REMARK    9  A    between atoms: C_12  and  C_18
REMARK   10  A    between atoms: C_13  and  C_19
REMARK   11  A    between atoms: C_16  and  C_20
REMARK   12  A    between atoms: C_22  and  C_24
REMARK   13  A    between atoms: C_23  and  C_25
REMARK   14  A    between atoms: C_23  and  C_26
REMARK                            x       y       z     vdW  Elec       q    Type
REMARK                         _______ _______ _______ _____ _____    ______ ____
ROOT
ATOM      8  C   UNL     1      11.667  12.520  22.669  0.00  0.00    +0.000 C 
ATOM      9  C   UNL     1      10.777  11.655  23.596  0.00  0.00    +0.032 C 
ATOM     10  C   UNL     1      11.691  11.936  21.249  0.00  0.00    +0.012 C 
ATOM     11  C   UNL     1      12.222  10.490  21.224  0.00  0.00    +0.024 C 
ATOM     13  C   UNL     1      11.580   9.635  22.297  0.00  0.00    -0.073 C 
ATOM     14  C   UNL     1      10.926  10.173  23.343  0.00  0.00    -0.022 C 
ATOM     19  C   UNL     1      11.665   8.145  22.118  0.00  0.00    +0.039 C 
ENDROOT
BRANCH   8  12
ATOM     12  C   UNL     1      11.191  13.976  22.622  0.00  0.00    -0.013 C 
ATOM     17  C   UNL     1      11.427  14.568  21.236  0.00  0.00    +0.007 C 
ATOM     18  C   UNL     1       9.716  14.067  23.005  0.00  0.00    +0.007 C 
ENDBRANCH   8  12
BRANCH   9  15
ATOM     15  C   UNL     1      11.063  11.952  25.073  0.00  0.00    +0.113 C 
BRANCH  15   4
ATOM      2  O   UNL     1      13.236  13.481  26.197  0.00  0.00    -0.253 OA
ATOM      4  N   UNL     1      12.354  11.467  25.447  0.00  0.00    -0.299 N 
ATOM      6  N   UNL     1      14.517  11.549  26.262  0.00  0.00    -0.297 N 
ATOM     21  C   UNL     1      13.361  12.276  25.989  0.00  0.00    +0.300 C 
ATOM     33  H   UNL     1      12.535  10.470  25.381  0.00  0.00    +0.150 HD
ATOM     34  H   UNL     1      14.550  10.572  25.983  0.00  0.00    +0.150 HD
BRANCH   6  23
ATOM     23  C   UNL     1      15.704  12.147  26.826  0.00  0.00    +0.068 C 
ATOM     25  C   UNL     1      16.650  12.591  25.718  0.00  0.00    +0.027 C 
ATOM     26  C   UNL     1      16.388  11.178  27.782  0.00  0.00    +0.027 C 
ENDBRANCH   6  23
ENDBRANCH  15   4
ENDBRANCH   9  15
BRANCH  11  16
ATOM     16  C   UNL     1      13.750  10.461  21.341  0.00  0.00    +0.105 C 
BRANCH  16  20
ATOM      1  O   UNL     1      15.501   8.822  20.888  0.00  0.00    -0.420 OA
ATOM      5  N   UNL     1      13.922   8.935  19.308  0.00  0.00    -0.112 NA
ATOM      7  N   UNL     1      14.841   7.976  18.926  0.00  0.00    -0.107 NA
ATOM     20  C   UNL     1      14.348   9.402  20.459  0.00  0.00    +0.218 A 
ATOM     22  C   UNL     1      15.745   7.945  19.877  0.00  0.00    +0.248 A 
BRANCH  22  24
ATOM     24  C   UNL     1      16.926   7.142  20.014  0.00  0.00    +0.039 A 
ATOM     27  C   UNL     1      17.848   7.424  21.022  0.00  0.00    +0.017 A 
ATOM     28  C   UNL     1      17.152   6.080  19.139  0.00  0.00    +0.017 A 
ATOM     29  C   UNL     1      18.996   6.642  21.155  0.00  0.00    +0.046 A 
ATOM     30  C   UNL     1      18.299   5.299  19.271  0.00  0.00    +0.046 A 
ATOM     31  C   UNL     1      19.221   5.580  20.280  0.00  0.00    +0.120 A 
BRANCH  31   3
ATOM      3  O   UNL     1      20.340   4.816  20.411  0.00  0.00    -0.495 OA
ATOM     32  C   UNL     1      21.593   5.497  20.435  0.00  0.00    +0.277 C 
ENDBRANCH  31   3
ENDBRANCH  22  24
ENDBRANCH  16  20
ENDBRANCH  11  16
TORSDOF 8
ENDMDL
MODEL 4
REMARK VINA RESULT:      -6.6     27.406     31.212
REMARK  Name = 38031273
REMARK  14 active torsions:
REMARK  status: ('A' for Active; 'I' for Inactive)
REMARK    1  A    between atoms: O_3  and  C_31
REMARK    2  A    between atoms: O_3  and  C_32
REMARK    3  A    between atoms: N_4  and  C_15
REMARK    4  A    between atoms: N_6  and  C_23
REMARK    5  A    between atoms: C_8  and  C_12
REMARK    6  A    between atoms: C_9  and  C_15
REMARK    7  A    between atoms: C_11  and  C_16
REMARK    8  A    between atoms: C_12  and  C_17
REMARK    9  A    between atoms: C_12  and  C_18
REMARK   10  A    between atoms: C_13  and  C_19
REMARK   11  A    between atoms: C_16  and  C_20
REMARK   12  A    between atoms: C_22  and  C_24
REMARK   13  A    between atoms: C_23  and  C_25
REMARK   14  A    between atoms: C_23  and  C_26
REMARK                            x       y       z     vdW  Elec       q    Type
REMARK                         _______ _______ _______ _____ _____    ______ ____
ROOT
ATOM      8  C   UNL     1     -10.208  -9.629  18.235  0.00  0.00    +0.000 C 
ATOM      9  C   UNL     1     -11.181 -10.554  19.008  0.00  0.00    +0.032 C 
ATOM     10  C   UNL     1      -9.166 -10.463  17.474  0.00  0.00    +0.012 C 
ATOM     11  C   UNL     1      -8.341 -11.362  18.413  0.00  0.00    +0.024 C 
ATOM     13  C   UNL     1      -9.222 -12.111  19.393  0.00  0.00    -0.073 C 
ATOM     14  C   UNL     1     -10.493 -11.743  19.636  0.00  0.00    -0.022 C 
ATOM     19  C   UNL     1      -8.624 -13.320  20.055  0.00  0.00    +0.039 C 
ENDROOT
BRANCH   8  12
ATOM     12  C   UNL     1     -10.951  -8.711  17.258  0.00  0.00    -0.013 C 
ATOM     17  C   UNL     1     -10.023  -7.611  16.752  0.00  0.00    +0.007 C 
ATOM     18  C   UNL     1     -11.518  -9.519  16.095  0.00  0.00    +0.007 C 
ENDBRANCH   8  12
BRANCH   9  15
ATOM     15  C   UNL     1     -11.944  -9.776  20.086  0.00  0.00    +0.113 C 
BRANCH  15   4
ATOM      2  O   UNL     1     -14.455 -11.088  20.626  0.00  0.00    -0.253 OA
ATOM      4  N   UNL     1     -12.252 -10.620  21.197  0.00  0.00    -0.299 N 
ATOM      6  N   UNL     1     -13.529 -11.993  22.551  0.00  0.00    -0.297 N 
ATOM     21  C   UNL     1     -13.501 -11.223  21.391  0.00  0.00    +0.300 C 
ATOM     33  H   UNL     1     -11.510 -10.853  21.850  0.00  0.00    +0.150 HD
ATOM     34  H   UNL     1     -12.714 -11.980  23.158  0.00  0.00    +0.150 HD
BRANCH   6  23
ATOM     23  C   UNL     1     -14.700 -12.721  22.981  0.00  0.00    +0.068 C 
ATOM     25  C   UNL     1     -15.574 -11.841  23.865  0.00  0.00    +0.027 C 
ATOM     26  C   UNL     1     -14.298 -14.002  23.701  0.00  0.00    +0.027 C 
ENDBRANCH   6  23
ENDBRANCH  15   4
ENDBRANCH   9  15
BRANCH  11  16
ATOM     16  C   UNL     1      -7.266 -10.554  19.148  0.00  0.00    +0.105 C 
BRANCH  16  20
ATOM      1  O   UNL     1      -5.545 -10.572  17.418  0.00  0.00    -0.420 OA
ATOM      5  N   UNL     1      -4.933 -11.562  19.327  0.00  0.00    -0.112 NA
ATOM      7  N   UNL     1      -3.873 -11.645  18.445  0.00  0.00    -0.107 NA
ATOM     20  C   UNL     1      -5.887 -10.929  18.686  0.00  0.00    +0.218 A 
ATOM     22  C   UNL     1      -4.275 -11.055  17.344  0.00  0.00    +0.248 A 
BRANCH  22  24
ATOM     24  C   UNL     1      -3.594 -10.842  16.099  0.00  0.00    +0.039 A 
ATOM     27  C   UNL     1      -2.231 -10.545  16.092  0.00  0.00    +0.017 A 
ATOM     28  C   UNL     1      -4.294 -10.935  14.897  0.00  0.00    +0.017 A 
ATOM     29  C   UNL     1      -1.569 -10.339  14.880  0.00  0.00    +0.046 A 
ATOM     30  C   UNL     1      -3.633 -10.729  13.686  0.00  0.00    +0.046 A 
ATOM     31  C   UNL     1      -2.270 -10.431  13.679  0.00  0.00    +0.120 A 
BRANCH  31   3
ATOM      3  O   UNL     1      -1.624 -10.234  12.497  0.00  0.00    -0.495 OA
ATOM     32  C   UNL     1      -2.434 -10.042  11.338  0.00  0.00    +0.277 C 
ENDBRANCH  31   3
ENDBRANCH  22  24
ENDBRANCH  16  20
ENDBRANCH  11  16
TORSDOF 8
ENDMDL
MODEL 5
REMARK VINA RESULT:      -6.5     26.429     30.282
REMARK  Name = 38031273
REMARK  14 active torsions:
REMARK  status: ('A' for Active; 'I' for Inactive)
REMARK    1  A    between atoms: O_3  and  C_31
REMARK    2  A    between atoms: O_3  and  C_32
REMARK    3  A    between atoms: N_4  and  C_15
REMARK    4  A    between atoms: N_6  and  C_23
REMARK    5  A    between atoms: C_8  and  C_12
REMARK    6  A    between atoms: C_9  and  C_15
REMARK    7  A    between atoms: C_11  and  C_16
REMARK    8  A    between atoms: C_12  and  C_17
REMARK    9  A    between atoms: C_12  and  C_18
REMARK   10  A    between atoms: C_13  and  C_19
REMARK   11  A    between atoms: C_16  and  C_20
REMARK   12  A    between atoms: C_22  and  C_24
REMARK   13  A    between atoms: C_23  and  C_25
REMARK   14  A    between atoms: C_23  and  C_26
REMARK                            x       y       z     vdW  Elec       q    Type
REMARK                         _______ _______ _______ _____ _____    ______ ____
ROOT
ATOM      8  C   UNL     1     -12.276  10.289  19.524  0.00  0.00    +0.000 C 
ATOM      9  C   UNL     1     -10.856   9.707  19.733  0.00  0.00    +0.032 C 
ATOM     10  C   UNL     1     -13.224   9.802  20.630  0.00  0.00    +0.012 C 
ATOM     11  C   UNL     1     -13.329   8.265  20.672  0.00  0.00    +0.024 C 
ATOM     13  C   UNL     1     -11.965   7.606  20.611  0.00  0.00    -0.073 C 
ATOM     14  C   UNL     1     -10.869   8.271  20.201  0.00  0.00    -0.022 C 
ATOM     19  C   UNL     1     -11.881   6.179  21.074  0.00  0.00    +0.039 C 
ENDROOT
BRANCH   8  12
ATOM     12  C   UNL     1     -12.263  11.821  19.491  0.00  0.00    -0.013 C 
ATOM     17  C   UNL     1     -12.698  12.327  18.118  0.00  0.00    +0.007 C 
ATOM     18  C   UNL     1     -13.163  12.385  20.586  0.00  0.00    +0.007 C 
ENDBRANCH   8  12
BRANCH   9  15
ATOM     15  C   UNL     1     -10.018   9.820  18.455  0.00  0.00    +0.113 C 
BRANCH  15   4
ATOM      2  O   UNL     1     -10.423  10.278  15.635  0.00  0.00    -0.253 OA
ATOM      4  N   UNL     1     -10.447   8.867  17.481  0.00  0.00    -0.299 N 
ATOM      6  N   UNL     1     -11.045   8.056  15.399  0.00  0.00    -0.297 N 
ATOM     21  C   UNL     1     -10.622   9.167  16.124  0.00  0.00    +0.300 C 
ATOM     33  H   UNL     1     -10.571   7.901  17.769  0.00  0.00    +0.150 HD
ATOM     34  H   UNL     1     -11.257   7.201  15.906  0.00  0.00    +0.150 HD
BRANCH   6  23
ATOM     23  C   UNL     1     -11.299   8.098  13.978  0.00  0.00    +0.068 C 
ATOM     25  C   UNL     1     -12.674   7.519  13.669  0.00  0.00    +0.027 C 
ATOM     26  C   UNL     1     -10.205   7.358  13.218  0.00  0.00    +0.027 C 
ENDBRANCH   6  23
ENDBRANCH  15   4
ENDBRANCH   9  15
BRANCH  11  16
ATOM     16  C   UNL     1     -14.242   7.743  19.558  0.00  0.00    +0.105 C 
BRANCH  16  20
ATOM      1  O   UNL     1     -15.065   6.123  21.187  0.00  0.00    -0.420 OA
ATOM      5  N   UNL     1     -16.603   6.801  19.712  0.00  0.00    -0.112 NA
ATOM      7  N   UNL     1     -17.202   5.894  20.566  0.00  0.00    -0.107 NA
ATOM     20  C   UNL     1     -15.357   6.904  20.111  0.00  0.00    +0.218 A 
ATOM     22  C   UNL     1     -16.267   5.524  21.409  0.00  0.00    +0.248 A 
BRANCH  22  24
ATOM     24  C   UNL     1     -16.316   4.606  22.510  0.00  0.00    +0.039 A 
ATOM     27  C   UNL     1     -17.360   3.685  22.604  0.00  0.00    +0.017 A 
ATOM     28  C   UNL     1     -15.320   4.632  23.486  0.00  0.00    +0.017 A 
ATOM     29  C   UNL     1     -17.407   2.791  23.674  0.00  0.00    +0.046 A 
ATOM     30  C   UNL     1     -15.367   3.739  24.555  0.00  0.00    +0.046 A 
ATOM     31  C   UNL     1     -16.411   2.819  24.649  0.00  0.00    +0.120 A 
BRANCH  31   3
ATOM      3  O   UNL     1     -16.455   1.944  25.692  0.00  0.00    -0.495 OA
ATOM     32  C   UNL     1     -17.087   2.393  26.890  0.00  0.00    +0.277 C 
ENDBRANCH  31   3
ENDBRANCH  22  24
ENDBRANCH  16  20
ENDBRANCH  11  16
TORSDOF 8
ENDMDL
MODEL 6
REMARK VINA RESULT:      -6.4      1.951      2.724
REMARK  Name = 38031273
REMARK  14 active torsions:
REMARK  status: ('A' for Active; 'I' for Inactive)
REMARK    1  A    between atoms: O_3  and  C_31
REMARK    2  A    between atoms: O_3  and  C_32
REMARK    3  A    between atoms: N_4  and  C_15
REMARK    4  A    between atoms: N_6  and  C_23
REMARK    5  A    between atoms: C_8  and  C_12
REMARK    6  A    between atoms: C_9  and  C_15
REMARK    7  A    between atoms: C_11  and  C_16
REMARK    8  A    between atoms: C_12  and  C_17
REMARK    9  A    between atoms: C_12  and  C_18
REMARK   10  A    between atoms: C_13  and  C_19
REMARK   11  A    between atoms: C_16  and  C_20
REMARK   12  A    between atoms: C_22  and  C_24
REMARK   13  A    between atoms: C_23  and  C_25
REMARK   14  A    between atoms: C_23  and  C_26
REMARK                            x       y       z     vdW  Elec       q    Type
REMARK                         _______ _______ _______ _____ _____    ______ ____
ROOT
ATOM      8  C   UNL     1      15.236   9.967  20.871  0.00  0.00    +0.000 C 
ATOM      9  C   UNL     1      13.895  10.601  21.316  0.00  0.00    +0.032 C 
ATOM     10  C   UNL     1      15.041   9.144  19.589  0.00  0.00    +0.012 C 
ATOM     11  C   UNL     1      14.006   8.017  19.772  0.00  0.00    +0.024 C 
ATOM     13  C   UNL     1      12.748   8.515  20.455  0.00  0.00    -0.073 C 
ATOM     14  C   UNL     1      12.713   9.679  21.129  0.00  0.00    -0.022 C 
ATOM     19  C   UNL     1      11.516   7.667  20.308  0.00  0.00    +0.039 C 
ENDROOT
BRANCH   8  12
ATOM     12  C   UNL     1      16.320  11.026  20.646  0.00  0.00    -0.013 C 
ATOM     17  C   UNL     1      17.707  10.405  20.781  0.00  0.00    +0.007 C 
ATOM     18  C   UNL     1      16.150  11.680  19.278  0.00  0.00    +0.007 C 
ENDBRANCH   8  12
BRANCH   9  15
ATOM     15  C   UNL     1      13.958  11.061  22.777  0.00  0.00    +0.113 C 
BRANCH  15   4
ATOM      2  O   UNL     1      11.519  11.505  24.251  0.00  0.00    -0.253 OA
ATOM      4  N   UNL     1      13.271  12.301  22.948  0.00  0.00    -0.299 N 
ATOM      6  N   UNL     1      11.629  13.753  23.688  0.00  0.00    -0.297 N 
ATOM     21  C   UNL     1      12.085  12.437  23.682  0.00  0.00    +0.300 C 
ATOM     33  H   UNL     1      13.694  13.146  22.577  0.00  0.00    +0.150 HD
ATOM     34  H   UNL     1      12.125  14.438  23.124  0.00  0.00    +0.150 HD
BRANCH   6  23
ATOM     23  C   UNL     1      10.426  14.162  24.373  0.00  0.00    +0.068 C 
ATOM     25  C   UNL     1       9.359  14.576  23.368  0.00  0.00    +0.027 C 
ATOM     26  C   UNL     1      10.726  15.288  25.355  0.00  0.00    +0.027 C 
ENDBRANCH   6  23
ENDBRANCH  15   4
ENDBRANCH   9  15
BRANCH  11  16
ATOM     16  C   UNL     1      14.609   6.830  20.530  0.00  0.00    +0.105 C 
BRANCH  16  20
ATOM      1  O   UNL     1      17.009   6.457  20.760  0.00  0.00    -0.420 OA
ATOM      5  N   UNL     1      16.203   6.002  18.724  0.00  0.00    -0.112 NA
ATOM      7  N   UNL     1      17.561   5.749  18.711  0.00  0.00    -0.107 NA
ATOM     20  C   UNL     1      15.925   6.413  19.939  0.00  0.00    +0.218 A 
ATOM     22  C   UNL     1      17.991   6.028  19.920  0.00  0.00    +0.248 A 
BRANCH  22  24
ATOM     24  C   UNL     1      19.308   5.952  20.481  0.00  0.00    +0.039 A 
ATOM     27  C   UNL     1      20.069   4.793  20.320  0.00  0.00    +0.017 A 
ATOM     28  C   UNL     1      19.830   7.035  21.187  0.00  0.00    +0.017 A 
ATOM     29  C   UNL     1      21.351   4.719  20.865  0.00  0.00    +0.046 A 
ATOM     30  C   UNL     1      21.111   6.962  21.733  0.00  0.00    +0.046 A 
ATOM     31  C   UNL     1      21.871   5.803  21.572  0.00  0.00    +0.120 A 
BRANCH  31   3
ATOM      3  O   UNL     1      23.123   5.733  22.101  0.00  0.00    -0.495 OA
ATOM     32  C   UNL     1      23.841   4.515  21.910  0.00  0.00    +0.277 C 
ENDBRANCH  31   3
ENDBRANCH  22  24
ENDBRANCH  16  20
ENDBRANCH  11  16
TORSDOF 8
ENDMDL
MODEL 7
REMARK VINA RESULT:      -6.3     26.648     29.063
REMARK  Name = 38031273
REMARK  14 active torsions:
REMARK  status: ('A' for Active; 'I' for Inactive)
REMARK    1  A    between atoms: O_3  and  C_31
REMARK    2  A    between atoms: O_3  and  C_32
REMARK    3  A    between atoms: N_4  and  C_15
REMARK    4  A    between atoms: N_6  and  C_23
REMARK    5  A    between atoms: C_8  and  C_12
REMARK    6  A    between atoms: C_9  and  C_15
REMARK    7  A    between atoms: C_11  and  C_16
REMARK    8  A    between atoms: C_12  and  C_17
REMARK    9  A    between atoms: C_12  and  C_18
REMARK   10  A    between atoms: C_13  and  C_19
REMARK   11  A    between atoms: C_16  and  C_20
REMARK   12  A    between atoms: C_22  and  C_24
REMARK   13  A    between atoms: C_23  and  C_25
REMARK   14  A    between atoms: C_23  and  C_26
REMARK                            x       y       z     vdW  Elec       q    Type
REMARK                         _______ _______ _______ _____ _____    ______ ____
ROOT
ATOM      8  C   UNL     1     -10.780  10.408  17.282  0.00  0.00    +0.000 C 
ATOM      9  C   UNL     1     -10.426   8.930  16.983  0.00  0.00    +0.032 C 
ATOM     10  C   UNL     1     -10.457  10.752  18.744  0.00  0.00    +0.012 C 
ATOM     11  C   UNL     1     -11.224   9.857  19.736  0.00  0.00    +0.024 C 
ATOM     13  C   UNL     1     -11.144   8.393  19.351  0.00  0.00    -0.073 C 
ATOM     14  C   UNL     1     -10.772   7.998  18.120  0.00  0.00    -0.022 C 
ATOM     19  C   UNL     1     -11.456   7.391  20.427  0.00  0.00    +0.039 C 
ENDROOT
BRANCH   8  12
ATOM     12  C   UNL     1     -10.039  11.371  16.348  0.00  0.00    -0.013 C 
ATOM     17  C   UNL     1     -11.002  11.967  15.326  0.00  0.00    +0.007 C 
ATOM     18  C   UNL     1      -9.353  12.471  17.152  0.00  0.00    +0.007 C 
ENDBRANCH   8  12
BRANCH   9  15
ATOM     15  C   UNL     1     -11.110   8.447  15.699  0.00  0.00    +0.113 C 
BRANCH  15   4
ATOM      2  O   UNL     1     -13.512   9.468  14.470  0.00  0.00    -0.253 OA
ATOM      4  N   UNL     1     -12.453   8.037  15.964  0.00  0.00    -0.299 N 
ATOM      6  N   UNL     1     -14.757   8.004  15.768  0.00  0.00    -0.297 N 
ATOM     21  C   UNL     1     -13.572   8.584  15.323  0.00  0.00    +0.300 C 
ATOM     33  H   UNL     1     -12.607   7.263  16.602  0.00  0.00    +0.150 HD
ATOM     34  H   UNL     1     -14.710   7.335  16.533  0.00  0.00    +0.150 HD
BRANCH   6  23
ATOM     23  C   UNL     1     -16.055   8.389  15.266  0.00  0.00    +0.068 C 
ATOM     25  C   UNL     1     -17.074   8.415  16.398  0.00  0.00    +0.027 C 
ATOM     26  C   UNL     1     -16.495   7.452  14.149  0.00  0.00    +0.027 C 
ENDBRANCH   6  23
ENDBRANCH  15   4
ENDBRANCH   9  15
BRANCH  11  16
ATOM     16  C   UNL     1     -12.682  10.308  19.875  0.00  0.00    +0.105 C 
BRANCH  16  20
ATOM      1  O   UNL     1     -12.457  10.386  22.304  0.00  0.00    -0.420 OA
ATOM      5  N   UNL     1     -13.512  12.151  21.425  0.00  0.00    -0.112 NA
ATOM      7  N   UNL     1     -13.457  12.326  22.795  0.00  0.00    -0.107 NA
ATOM     20  C   UNL     1     -12.917  11.007  21.183  0.00  0.00    +0.218 A 
ATOM     22  C   UNL     1     -12.834  11.271  23.266  0.00  0.00    +0.248 A 
BRANCH  22  24
ATOM     24  C   UNL     1     -12.493  10.916  24.614  0.00  0.00    +0.039 A 
ATOM     27  C   UNL     1     -13.494  10.544  25.511  0.00  0.00    +0.017 A 
ATOM     28  C   UNL     1     -11.161  10.942  25.026  0.00  0.00    +0.017 A 
ATOM     29  C   UNL     1     -13.162  10.197  26.821  0.00  0.00    +0.046 A 
ATOM     30  C   UNL     1     -10.829  10.596  26.335  0.00  0.00    +0.046 A 
ATOM     31  C   UNL     1     -11.829  10.224  27.233  0.00  0.00    +0.120 A 
BRANCH  31   3
ATOM      3  O   UNL     1     -11.505   9.883  28.510  0.00  0.00    -0.495 OA
ATOM     32  C   UNL     1     -11.464  10.935  29.473  0.00  0.00    +0.277 C 
ENDBRANCH  31   3
ENDBRANCH  22  24
ENDBRANCH  16  20
ENDBRANCH  11  16
TORSDOF 8
ENDMDL
MODEL 8
REMARK VINA RESULT:      -6.2     15.745     18.559
REMARK  Name = 38031273
REMARK  14 active torsions:
REMARK  status: ('A' for Active; 'I' for Inactive)
REMARK    1  A    between atoms: O_3  and  C_31
REMARK    2  A    between atoms: O_3  and  C_32
REMARK    3  A    between atoms: N_4  and  C_15
REMARK    4  A    between atoms: N_6  and  C_23
REMARK    5  A    between atoms: C_8  and  C_12
REMARK    6  A    between atoms: C_9  and  C_15
REMARK    7  A    between atoms: C_11  and  C_16
REMARK    8  A    between atoms: C_12  and  C_17
REMARK    9  A    between atoms: C_12  and  C_18
REMARK   10  A    between atoms: C_13  and  C_19
REMARK   11  A    between atoms: C_16  and  C_20
REMARK   12  A    between atoms: C_22  and  C_24
REMARK   13  A    between atoms: C_23  and  C_25
REMARK   14  A    between atoms: C_23  and  C_26
REMARK                            x       y       z     vdW  Elec       q    Type
REMARK                         _______ _______ _______ _____ _____    ______ ____
ROOT
ATOM      8  C   UNL     1      10.795   5.976   5.435  0.00  0.00    +0.000 C 
ATOM      9  C   UNL     1      10.794   5.931   3.887  0.00  0.00    +0.032 C 
ATOM     10  C   UNL     1      11.075   7.403   5.930  0.00  0.00    +0.012 C 
ATOM     11  C   UNL     1      12.429   7.939   5.426  0.00  0.00    +0.024 C 
ATOM     13  C   UNL     1      12.617   7.687   3.944  0.00  0.00    -0.073 C 
ATOM     14  C   UNL     1      11.868   6.795   3.269  0.00  0.00    -0.022 C 
ATOM     19  C   UNL     1      13.656   8.517   3.242  0.00  0.00    +0.039 C 
ENDROOT
BRANCH   8  12
ATOM     12  C   UNL     1       9.469   5.477   6.019  0.00  0.00    -0.013 C 
ATOM     17  C   UNL     1       9.510   5.519   7.544  0.00  0.00    +0.007 C 
ATOM     18  C   UNL     1       8.305   6.307   5.485  0.00  0.00    +0.007 C 
ENDBRANCH   8  12
BRANCH   9  15
ATOM     15  C   UNL     1      10.940   4.493   3.376  0.00  0.00    +0.113 C 
BRANCH  15   4
ATOM      2  O   UNL     1      12.833   2.947   1.843  0.00  0.00    -0.253 OA
ATOM      4  N   UNL     1      11.083   4.472   1.954  0.00  0.00    -0.299 N 
ATOM      6  N   UNL     1      11.953   3.861  -0.100  0.00  0.00    -0.297 N 
ATOM     21  C   UNL     1      12.031   3.691   1.281  0.00  0.00    +0.300 C 
ATOM     33  H   UNL     1      10.422   4.999   1.392  0.00  0.00    +0.150 HD
ATOM     34  H   UNL     1      11.309   4.557  -0.465  0.00  0.00    +0.150 HD
BRANCH   6  23
ATOM     23  C   UNL     1      12.821   3.169  -1.024  0.00  0.00    +0.068 C 
ATOM     25  C   UNL     1      13.828   4.138  -1.629  0.00  0.00    +0.027 C 
ATOM     26  C   UNL     1      12.004   2.475  -2.106  0.00  0.00    +0.027 C 
ENDBRANCH   6  23
ENDBRANCH  15   4
ENDBRANCH   9  15
BRANCH  11  16
ATOM     16  C   UNL     1      13.591   7.352   6.234  0.00  0.00    +0.105 C 
BRANCH  16  20
ATOM      1  O   UNL     1      15.989   7.676   5.920  0.00  0.00    -0.420 OA
ATOM      5  N   UNL     1      14.869   9.548   6.417  0.00  0.00    -0.112 NA
ATOM      7  N   UNL     1      16.203   9.876   6.268  0.00  0.00    -0.107 NA
ATOM     20  C   UNL     1      14.790   8.255   6.205  0.00  0.00    +0.218 A 
ATOM     22  C   UNL     1      16.819   8.753   5.979  0.00  0.00    +0.248 A 
BRANCH  22  24
ATOM     24  C   UNL     1      18.206   8.492   5.719  0.00  0.00    +0.039 A 
ATOM     27  C   UNL     1      19.139   8.592   6.751  0.00  0.00    +0.017 A 
ATOM     28  C   UNL     1      18.620   8.137   4.436  0.00  0.00    +0.017 A 
ATOM     29  C   UNL     1      20.488   8.336   6.498  0.00  0.00    +0.046 A 
ATOM     30  C   UNL     1      19.967   7.883   4.182  0.00  0.00    +0.046 A 
ATOM     31  C   UNL     1      20.901   7.983   5.214  0.00  0.00    +0.120 A 
BRANCH  31   3
ATOM      3  O   UNL     1      22.216   7.730   4.967  0.00  0.00    -0.495 OA
ATOM     32  C   UNL     1      23.074   8.858   4.806  0.00  0.00    +0.277 C 
ENDBRANCH  31   3
ENDBRANCH  22  24
ENDBRANCH  16  20
ENDBRANCH  11  16
TORSDOF 8
ENDMDL
MODEL 9
REMARK VINA RESULT:      -6.2     27.227     30.686
REMARK  Name = 38031273
REMARK  14 active torsions:
REMARK  status: ('A' for Active; 'I' for Inactive)
REMARK    1  A    between atoms: O_3  and  C_31
REMARK    2  A    between atoms: O_3  and  C_32
REMARK    3  A    between atoms: N_4  and  C_15
REMARK    4  A    between atoms: N_6  and  C_23
REMARK    5  A    between atoms: C_8  and  C_12
REMARK    6  A    between atoms: C_9  and  C_15
REMARK    7  A    between atoms: C_11  and  C_16
REMARK    8  A    between atoms: C_12  and  C_17
REMARK    9  A    between atoms: C_12  and  C_18
REMARK   10  A    between atoms: C_13  and  C_19
REMARK   11  A    between atoms: C_16  and  C_20
REMARK   12  A    between atoms: C_22  and  C_24
REMARK   13  A    between atoms: C_23  and  C_25
REMARK   14  A    between atoms: C_23  and  C_26
REMARK                            x       y       z     vdW  Elec       q    Type
REMARK                         _______ _______ _______ _____ _____    ______ ____
ROOT
ATOM      8  C   UNL     1      -3.015 -12.247  13.812  0.00  0.00    +0.000 C 
ATOM      9  C   UNL     1      -1.867 -11.330  14.300  0.00  0.00    +0.032 C 
ATOM     10  C   UNL     1      -2.843 -12.576  12.321  0.00  0.00    +0.012 C 
ATOM     11  C   UNL     1      -2.825 -11.309  11.444  0.00  0.00    +0.024 C 
ATOM     13  C   UNL     1      -1.909 -10.244  12.012  0.00  0.00    -0.073 C 
ATOM     14  C   UNL     1      -1.480 -10.277  13.288  0.00  0.00    -0.022 C 
ATOM     19  C   UNL     1      -1.459  -9.163  11.070  0.00  0.00    +0.039 C 
ENDROOT
BRANCH   8  12
ATOM     12  C   UNL     1      -3.090 -13.545  14.623  0.00  0.00    -0.013 C 
ATOM     17  C   UNL     1      -4.539 -13.872  14.972  0.00  0.00    +0.007 C 
ATOM     18  C   UNL     1      -2.447 -14.694  13.851  0.00  0.00    +0.007 C 
ENDBRANCH   8  12
BRANCH   9  15
ATOM     15  C   UNL     1      -2.226 -10.654  15.628  0.00  0.00    +0.113 C 
BRANCH  15   4
ATOM      2  O   UNL     1      -4.154 -11.175  17.709  0.00  0.00    -0.253 OA
ATOM      4  N   UNL     1      -3.600 -10.265  15.644  0.00  0.00    -0.299 N 
ATOM      6  N   UNL     1      -5.757 -10.063  16.455  0.00  0.00    -0.297 N 
ATOM     21  C   UNL     1      -4.478 -10.557  16.696  0.00  0.00    +0.300 C 
ATOM     33  H   UNL     1      -3.950  -9.688  14.885  0.00  0.00    +0.150 HD
ATOM     34  H   UNL     1      -5.946  -9.632  15.553  0.00  0.00    +0.150 HD
BRANCH   6  23
ATOM     23  C   UNL     1      -6.850 -10.229  17.384  0.00  0.00    +0.068 C 
ATOM     25  C   UNL     1      -7.495 -11.597  17.202  0.00  0.00    +0.027 C 
ATOM     26  C   UNL     1      -7.870  -9.110  17.215  0.00  0.00    +0.027 C 
ENDBRANCH   6  23
ENDBRANCH  15   4
ENDBRANCH   9  15
BRANCH  11  16
ATOM     16  C   UNL     1      -4.240 -10.761  11.235  0.00  0.00    +0.105 C 
BRANCH  16  20
ATOM      1  O   UNL     1      -5.504  -9.914   9.327  0.00  0.00    -0.420 OA
ATOM      5  N   UNL     1      -4.351 -11.783   8.904  0.00  0.00    -0.112 NA
ATOM      7  N   UNL     1      -5.014 -11.419   7.747  0.00  0.00    -0.107 NA
ATOM     20  C   UNL     1      -4.667 -10.877   9.800  0.00  0.00    +0.218 A 
ATOM     22  C   UNL     1      -5.674 -10.324   8.040  0.00  0.00    +0.248 A 
BRANCH  22  24
ATOM     24  C   UNL     1      -6.530  -9.506   7.229  0.00  0.00    +0.039 A 
ATOM     27  C   UNL     1      -7.485  -8.686   7.830  0.00  0.00    +0.017 A 
ATOM     28  C   UNL     1      -6.405  -9.531   5.840  0.00  0.00    +0.017 A 
ATOM     29  C   UNL     1      -8.316  -7.890   7.040  0.00  0.00    +0.046 A 
ATOM     30  C   UNL     1      -7.236  -8.736   5.051  0.00  0.00    +0.046 A 
ATOM     31  C   UNL     1      -8.191  -7.916   5.652  0.00  0.00    +0.120 A 
BRANCH  31   3
ATOM      3  O   UNL     1      -9.000  -7.137   4.881  0.00  0.00    -0.495 OA
ATOM     32  C   UNL     1     -10.407  -7.273   5.074  0.00  0.00    +0.277 C 
ENDBRANCH  31   3
ENDBRANCH  22  24
ENDBRANCH  16  20
ENDBRANCH  11  16
TORSDOF 8
ENDMDL
MODEL 10
REMARK VINA RESULT:      -6.2     27.327     30.744
REMARK  Name = 38031273
REMARK  14 active torsions:
REMARK  status: ('A' for Active; 'I' for Inactive)
REMARK    1  A    between atoms: O_3  and  C_31
REMARK    2  A    between atoms: O_3  and  C_32
REMARK    3  A    between atoms: N_4  and  C_15
REMARK    4  A    between atoms: N_6  and  C_23
REMARK    5  A    between atoms: C_8  and  C_12
REMARK    6  A    between atoms: C_9  and  C_15
REMARK    7  A    between atoms: C_11  and  C_16
REMARK    8  A    between atoms: C_12  and  C_17
REMARK    9  A    between atoms: C_12  and  C_18
REMARK   10  A    between atoms: C_13  and  C_19
REMARK   11  A    between atoms: C_16  and  C_20
REMARK   12  A    between atoms: C_22  and  C_24
REMARK   13  A    between atoms: C_23  and  C_25
REMARK   14  A    between atoms: C_23  and  C_26
REMARK                            x       y       z     vdW  Elec       q    Type
REMARK                         _______ _______ _______ _____ _____    ______ ____
ROOT
ATOM      8  C   UNL     1      -4.977 -10.646  10.927  0.00  0.00    +0.000 C 
ATOM      9  C   UNL     1      -4.466  -9.640   9.867  0.00  0.00    +0.032 C 
ATOM     10  C   UNL     1      -4.412 -10.298  12.313  0.00  0.00    +0.012 C 
ATOM     11  C   UNL     1      -2.871 -10.308  12.333  0.00  0.00    +0.024 C 
ATOM     13  C   UNL     1      -2.288  -9.554  11.155  0.00  0.00    -0.073 C 
ATOM     14  C   UNL     1      -3.020  -9.252  10.067  0.00  0.00    -0.022 C 
ATOM     19  C   UNL     1      -0.856  -9.113  11.274  0.00  0.00    +0.039 C 
ENDROOT
BRANCH   8  12
ATOM     12  C   UNL     1      -6.507 -10.682  10.986  0.00  0.00    -0.013 C 
ATOM     17  C   UNL     1      -7.028 -12.023  10.475  0.00  0.00    +0.007 C 
ATOM     18  C   UNL     1      -6.992 -10.421  12.409  0.00  0.00    +0.007 C 
ENDBRANCH   8  12
BRANCH   9  15
ATOM     15  C   UNL     1      -4.656 -10.188   8.448  0.00  0.00    +0.113 C 
BRANCH  15   4
ATOM      2  O   UNL     1      -7.105 -10.587   6.977  0.00  0.00    -0.253 OA
ATOM      4  N   UNL     1      -5.329  -9.235   7.622  0.00  0.00    -0.299 N 
ATOM      6  N   UNL     1      -6.960  -8.403   6.209  0.00  0.00    -0.297 N 
ATOM     21  C   UNL     1      -6.520  -9.506   6.937  0.00  0.00    +0.300 C 
ATOM     33  H   UNL     1      -4.965  -8.288   7.579  0.00  0.00    +0.150 HD
ATOM     34  H   UNL     1      -6.366  -7.578   6.177  0.00  0.00    +0.150 HD
BRANCH   6  23
ATOM     23  C   UNL     1      -8.164  -8.419   5.413  0.00  0.00    +0.068 C 
ATOM     25  C   UNL     1      -7.819  -8.388   3.930  0.00  0.00    +0.027 C 
ATOM     26  C   UNL     1      -9.071  -7.255   5.793  0.00  0.00    +0.027 C 
ENDBRANCH   6  23
ENDBRANCH  15   4
ENDBRANCH   9  15
BRANCH  11  16
ATOM     16  C   UNL     1      -2.329 -11.740  12.390  0.00  0.00    +0.105 C 
BRANCH  16  20
ATOM      1  O   UNL     1      -3.597 -11.812  14.474  0.00  0.00    -0.420 OA
ATOM      5  N   UNL     1      -3.013 -13.823  13.688  0.00  0.00    -0.112 NA
ATOM      7  N   UNL     1      -3.719 -14.012  14.861  0.00  0.00    -0.107 NA
ATOM     20  C   UNL     1      -2.966 -12.525  13.501  0.00  0.00    +0.218 A 
ATOM     22  C   UNL     1      -4.039 -12.812  15.285  0.00  0.00    +0.248 A 
BRANCH  22  24
ATOM     24  C   UNL     1      -4.771 -12.399  16.447  0.00  0.00    +0.039 A 
ATOM     27  C   UNL     1      -4.543 -11.141  17.005  0.00  0.00    +0.017 A 
ATOM     28  C   UNL     1      -5.711 -13.256  17.019  0.00  0.00    +0.017 A 
ATOM     29  C   UNL     1      -5.256 -10.740  18.135  0.00  0.00    +0.046 A 
ATOM     30  C   UNL     1      -6.424 -12.855  18.149  0.00  0.00    +0.046 A 
ATOM     31  C   UNL     1      -6.195 -11.597  18.707  0.00  0.00    +0.120 A 
BRANCH  31   3
ATOM      3  O   UNL     1      -6.893 -11.205  19.808  0.00  0.00    -0.495 OA
ATOM     32  C   UNL     1      -8.306 -11.063  19.665  0.00  0.00    +0.277 C 
ENDBRANCH  31   3
ENDBRANCH  22  24
ENDBRANCH  16  20
ENDBRANCH  11  16
TORSDOF 8
ENDMDL
