MODEL 1
REMARK VINA RESULT:      -7.1      0.000      0.000
REMARK  Name = 51137387
REMARK  4 active torsions:
REMARK  status: ('A' for Active; 'I' for Inactive)
REMARK    1  A    between atoms: N_2  and  C_5
REMARK    2  A    between atoms: C_7  and  C_15
REMARK    3  A    between atoms: C_16  and  C_17
REMARK    4  A    between atoms: C_17  and  C_18
REMARK                            x       y       z     vdW  Elec       q    Type
REMARK                         _______ _______ _______ _____ _____    ______ ____
ROOT
ATOM      1  O   UNL     1      13.727   7.788  20.423  0.00  0.00    -0.424 OA
ATOM      3  N   UNL     1      13.692   8.606  18.341  0.00  0.00    -0.112 NA
ATOM      4  N   UNL     1      14.759   7.734  18.439  0.00  0.00    -0.112 NA
ATOM     15  C   UNL     1      13.118   8.607  19.522  0.00  0.00    +0.222 A 
ATOM     16  C   UNL     1      14.742   7.280  19.671  0.00  0.00    +0.222 A 
ENDROOT
BRANCH  15   7
ATOM      2  N   UNL     1      11.140  10.757  21.733  0.00  0.00    -0.299 NA
ATOM      6  C   UNL     1      12.272  10.623  20.814  0.00  0.00    +0.097 C 
ATOM      7  C   UNL     1      11.907   9.371  20.004  0.00  0.00    +0.092 C 
ATOM      8  C   UNL     1      10.871   9.398  22.201  0.00  0.00    +0.085 C 
ATOM     11  C   UNL     1      10.964   8.574  20.923  0.00  0.00    +0.029 C 
BRANCH   2   5
ATOM      5  C   UNL     1      11.422  11.678  22.832  0.00  0.00    +0.057 C 
ATOM      9  C   UNL     1      10.810  13.051  22.531  0.00  0.00    +0.019 C 
ATOM     10  C   UNL     1      10.875  11.106  24.145  0.00  0.00    +0.019 C 
ATOM     12  C   UNL     1      11.018  14.021  23.693  0.00  0.00    +0.002 C 
ATOM     13  C   UNL     1      11.084  12.078  25.305  0.00  0.00    +0.002 C 
ATOM     14  C   UNL     1      10.486  13.450  25.004  0.00  0.00    +0.000 C 
ENDBRANCH   2   5
ENDBRANCH  15   7
BRANCH  16  17
ATOM     17  C   UNL     1      15.640   6.324  20.329  0.00  0.00    +0.132 C 
BRANCH  17  18
ATOM     18  C   UNL     1      17.019   6.878  20.675  0.00  0.00    -0.038 A 
ATOM     19  C   UNL     1      17.134   8.129  21.282  0.00  0.00    +0.004 A 
ATOM     20  C   UNL     1      18.162   6.134  20.385  0.00  0.00    +0.004 A 
ATOM     21  C   UNL     1      18.395   8.636  21.598  0.00  0.00    +0.000 A 
ATOM     22  C   UNL     1      19.422   6.641  20.702  0.00  0.00    +0.000 A 
ATOM     23  C   UNL     1      19.538   7.892  21.309  0.00  0.00    +0.000 A 
ENDBRANCH  17  18
ENDBRANCH  16  17
TORSDOF 4
ENDMDL
MODEL 2
REMARK VINA RESULT:      -6.9      1.882      7.002
REMARK  Name = 51137387
REMARK  4 active torsions:
REMARK  status: ('A' for Active; 'I' for Inactive)
REMARK    1  A    between atoms: N_2  and  C_5
REMARK    2  A    between atoms: C_7  and  C_15
REMARK    3  A    between atoms: C_16  and  C_17
REMARK    4  A    between atoms: C_17  and  C_18
REMARK                            x       y       z     vdW  Elec       q    Type
REMARK                         _______ _______ _______ _____ _____    ______ ____
ROOT
ATOM      1  O   UNL     1      11.926   8.583  21.168  0.00  0.00    -0.424 OA
ATOM      3  N   UNL     1      10.940   6.583  21.349  0.00  0.00    -0.112 NA
ATOM      4  N   UNL     1      10.299   7.454  22.209  0.00  0.00    -0.112 NA
ATOM     15  C   UNL     1      11.882   7.284  20.763  0.00  0.00    +0.222 A 
ATOM     16  C   UNL     1      10.907   8.609  22.071  0.00  0.00    +0.222 A 
ENDROOT
BRANCH  15   7
ATOM      2  N   UNL     1      15.173   6.990  19.179  0.00  0.00    -0.299 NA
ATOM      6  C   UNL     1      14.303   6.664  20.310  0.00  0.00    +0.097 C 
ATOM      7  C   UNL     1      12.896   6.859  19.727  0.00  0.00    +0.092 C 
ATOM      8  C   UNL     1      14.578   8.182  18.576  0.00  0.00    +0.085 C 
ATOM     11  C   UNL     1      13.091   7.852  18.568  0.00  0.00    +0.029 C 
BRANCH   2   5
ATOM      5  C   UNL     1      16.560   7.205  19.586  0.00  0.00    +0.057 C 
ATOM      9  C   UNL     1      16.601   7.841  20.980  0.00  0.00    +0.019 C 
ATOM     10  C   UNL     1      17.322   5.875  19.564  0.00  0.00    +0.019 C 
ATOM     12  C   UNL     1      18.036   8.011  21.473  0.00  0.00    +0.002 C 
ATOM     13  C   UNL     1      18.757   6.048  20.058  0.00  0.00    +0.002 C 
ATOM     14  C   UNL     1      18.802   6.692  21.441  0.00  0.00    +0.000 C 
ENDBRANCH   2   5
ENDBRANCH  15   7
BRANCH  16  17
ATOM     17  C   UNL     1      10.644   9.890  22.737  0.00  0.00    +0.132 C 
BRANCH  17  18
ATOM     18  C   UNL     1      11.684  10.974  22.469  0.00  0.00    -0.038 A 
ATOM     19  C   UNL     1      12.905  10.950  23.143  0.00  0.00    +0.004 A 
ATOM     20  C   UNL     1      11.413  11.988  21.551  0.00  0.00    +0.004 A 
ATOM     21  C   UNL     1      13.855  11.941  22.899  0.00  0.00    +0.000 A 
ATOM     22  C   UNL     1      12.364  12.979  21.306  0.00  0.00    +0.000 A 
ATOM     23  C   UNL     1      13.585  12.954  21.980  0.00  0.00    +0.000 A 
ENDBRANCH  17  18
ENDBRANCH  16  17
TORSDOF 4
ENDMDL
MODEL 3
REMARK VINA RESULT:      -6.6     26.830     28.609
REMARK  Name = 51137387
REMARK  4 active torsions:
REMARK  status: ('A' for Active; 'I' for Inactive)
REMARK    1  A    between atoms: N_2  and  C_5
REMARK    2  A    between atoms: C_7  and  C_15
REMARK    3  A    between atoms: C_16  and  C_17
REMARK    4  A    between atoms: C_17  and  C_18
REMARK                            x       y       z     vdW  Elec       q    Type
REMARK                         _______ _______ _______ _____ _____    ______ ____
ROOT
ATOM      1  O   UNL     1      -2.883 -11.528  14.825  0.00  0.00    -0.424 OA
ATOM      3  N   UNL     1      -1.308  -9.954  14.611  0.00  0.00    -0.112 NA
ATOM      4  N   UNL     1      -1.695  -9.993  15.937  0.00  0.00    -0.112 NA
ATOM     15  C   UNL     1      -2.027 -10.866  13.999  0.00  0.00    +0.222 A 
ATOM     16  C   UNL     1      -2.616 -10.925  16.016  0.00  0.00    +0.222 A 
ENDROOT
BRANCH  15   7
ATOM      2  N   UNL     1      -3.062 -10.823  10.485  0.00  0.00    -0.299 NA
ATOM      6  C   UNL     1      -2.428 -10.124  11.604  0.00  0.00    +0.097 C 
ATOM      7  C   UNL     1      -2.033 -11.272  12.544  0.00  0.00    +0.092 C 
ATOM      8  C   UNL     1      -3.906 -11.843  11.106  0.00  0.00    +0.085 C 
ATOM     11  C   UNL     1      -3.005 -12.412  12.195  0.00  0.00    +0.029 C 
BRANCH   2   5
ATOM      5  C   UNL     1      -3.823  -9.921   9.623  0.00  0.00    +0.057 C 
ATOM      9  C   UNL     1      -4.617 -10.730   8.592  0.00  0.00    +0.019 C 
ATOM     10  C   UNL     1      -4.751  -9.047  10.474  0.00  0.00    +0.019 C 
ATOM     12  C   UNL     1      -5.485  -9.824   7.721  0.00  0.00    +0.002 C 
ATOM     13  C   UNL     1      -5.619  -8.143   9.601  0.00  0.00    +0.002 C 
ATOM     14  C   UNL     1      -6.403  -8.944   8.565  0.00  0.00    +0.000 C 
ENDBRANCH   2   5
ENDBRANCH  15   7
BRANCH  16  17
ATOM     17  C   UNL     1      -3.374 -11.395  17.182  0.00  0.00    +0.132 C 
BRANCH  17  18
ATOM     18  C   UNL     1      -4.753 -10.762  17.344  0.00  0.00    -0.038 A 
ATOM     19  C   UNL     1      -5.320 -10.048  16.288  0.00  0.00    +0.004 A 
ATOM     20  C   UNL     1      -5.445 -10.899  18.547  0.00  0.00    +0.004 A 
ATOM     21  C   UNL     1      -6.581  -9.469  16.437  0.00  0.00    +0.000 A 
ATOM     22  C   UNL     1      -6.706 -10.321  18.695  0.00  0.00    +0.000 A 
ATOM     23  C   UNL     1      -7.273  -9.606  17.639  0.00  0.00    +0.000 A 
ENDBRANCH  17  18
ENDBRANCH  16  17
TORSDOF 4
ENDMDL
MODEL 4
REMARK VINA RESULT:      -6.6     26.773     28.612
REMARK  Name = 51137387
REMARK  4 active torsions:
REMARK  status: ('A' for Active; 'I' for Inactive)
REMARK    1  A    between atoms: N_2  and  C_5
REMARK    2  A    between atoms: C_7  and  C_15
REMARK    3  A    between atoms: C_16  and  C_17
REMARK    4  A    between atoms: C_17  and  C_18
REMARK                            x       y       z     vdW  Elec       q    Type
REMARK                         _______ _______ _______ _____ _____    ______ ____
ROOT
ATOM      1  O   UNL     1      -2.690 -10.443  12.559  0.00  0.00    -0.424 OA
ATOM      3  N   UNL     1      -2.850 -12.614  12.046  0.00  0.00    -0.112 NA
ATOM      4  N   UNL     1      -3.006 -11.888  10.881  0.00  0.00    -0.112 NA
ATOM     15  C   UNL     1      -2.668 -11.731  12.999  0.00  0.00    +0.222 A 
ATOM     16  C   UNL     1      -2.906 -10.626  11.227  0.00  0.00    +0.222 A 
ENDROOT
BRANCH  15   7
ATOM      2  N   UNL     1      -3.483 -11.753  16.571  0.00  0.00    -0.299 NA
ATOM      6  C   UNL     1      -3.729 -12.299  15.235  0.00  0.00    +0.097 C 
ATOM      7  C   UNL     1      -2.442 -11.942  14.478  0.00  0.00    +0.092 C 
ATOM      8  C   UNL     1      -2.880 -10.442  16.338  0.00  0.00    +0.085 C 
ATOM     11  C   UNL     1      -1.877 -10.722  15.226  0.00  0.00    +0.029 C 
BRANCH   2   5
ATOM      5  C   UNL     1      -4.702 -11.670  17.373  0.00  0.00    +0.057 C 
ATOM      9  C   UNL     1      -4.356 -11.783  18.861  0.00  0.00    +0.019 C 
ATOM     10  C   UNL     1      -5.434 -10.356  17.074  0.00  0.00    +0.019 C 
ATOM     12  C   UNL     1      -5.599 -11.624  19.736  0.00  0.00    +0.002 C 
ATOM     13  C   UNL     1      -6.675 -10.199  17.951  0.00  0.00    +0.002 C 
ATOM     14  C   UNL     1      -6.337 -10.324  19.433  0.00  0.00    +0.000 C 
ENDBRANCH   2   5
ENDBRANCH  15   7
BRANCH  16  17
ATOM     17  C   UNL     1      -2.990  -9.418  10.397  0.00  0.00    +0.132 C 
BRANCH  17  18
ATOM     18  C   UNL     1      -4.308  -9.250   9.646  0.00  0.00    -0.038 A 
ATOM     19  C   UNL     1      -4.500  -9.892   8.423  0.00  0.00    +0.004 A 
ATOM     20  C   UNL     1      -5.319  -8.453  10.184  0.00  0.00    +0.004 A 
ATOM     21  C   UNL     1      -5.705  -9.737   7.737  0.00  0.00    +0.000 A 
ATOM     22  C   UNL     1      -6.524  -8.299   9.497  0.00  0.00    +0.000 A 
ATOM     23  C   UNL     1      -6.716  -8.942   8.274  0.00  0.00    +0.000 A 
ENDBRANCH  17  18
ENDBRANCH  16  17
TORSDOF 4
ENDMDL
MODEL 5
REMARK VINA RESULT:      -6.6      1.669      7.302
REMARK  Name = 51137387
REMARK  4 active torsions:
REMARK  status: ('A' for Active; 'I' for Inactive)
REMARK    1  A    between atoms: N_2  and  C_5
REMARK    2  A    between atoms: C_7  and  C_15
REMARK    3  A    between atoms: C_16  and  C_17
REMARK    4  A    between atoms: C_17  and  C_18
REMARK                            x       y       z     vdW  Elec       q    Type
REMARK                         _______ _______ _______ _____ _____    ______ ____
ROOT
ATOM      1  O   UNL     1      13.436   7.409  20.129  0.00  0.00    -0.424 OA
ATOM      3  N   UNL     1      14.446   7.502  18.135  0.00  0.00    -0.112 NA
ATOM      4  N   UNL     1      13.217   8.122  18.020  0.00  0.00    -0.112 NA
ATOM     15  C   UNL     1      14.532   7.101  19.381  0.00  0.00    +0.222 A 
ATOM     16  C   UNL     1      12.662   8.045  19.207  0.00  0.00    +0.222 A 
ENDROOT
BRANCH  15   7
ATOM      2  N   UNL     1      17.749   6.675  21.083  0.00  0.00    -0.299 NA
ATOM      6  C   UNL     1      16.399   7.242  21.097  0.00  0.00    +0.097 C 
ATOM      7  C   UNL     1      15.650   6.366  20.083  0.00  0.00    +0.092 C 
ATOM      8  C   UNL     1      18.043   6.436  19.671  0.00  0.00    +0.085 C 
ATOM     11  C   UNL     1      16.749   5.821  19.153  0.00  0.00    +0.029 C 
BRANCH   2   5
ATOM      5  C   UNL     1      18.729   7.555  21.715  0.00  0.00    +0.057 C 
ATOM      9  C   UNL     1      20.111   7.329  21.093  0.00  0.00    +0.019 C 
ATOM     10  C   UNL     1      18.289   9.017  21.566  0.00  0.00    +0.019 C 
ATOM     12  C   UNL     1      21.149   8.286  21.675  0.00  0.00    +0.002 C 
ATOM     13  C   UNL     1      19.329   9.973  22.148  0.00  0.00    +0.002 C 
ATOM     14  C   UNL     1      20.709   9.741  21.540  0.00  0.00    +0.000 C 
ENDBRANCH   2   5
ENDBRANCH  15   7
BRANCH  16  17
ATOM     17  C   UNL     1      11.357   8.539  19.664  0.00  0.00    +0.132 C 
BRANCH  17  18
ATOM     18  C   UNL     1      11.419   9.501  20.847  0.00  0.00    -0.038 A 
ATOM     19  C   UNL     1      12.119  10.702  20.732  0.00  0.00    +0.004 A 
ATOM     20  C   UNL     1      10.774   9.179  22.041  0.00  0.00    +0.004 A 
ATOM     21  C   UNL     1      12.176  11.581  21.814  0.00  0.00    +0.000 A 
ATOM     22  C   UNL     1      10.830  10.060  23.122  0.00  0.00    +0.000 A 
ATOM     23  C   UNL     1      11.531  11.260  23.008  0.00  0.00    +0.000 A 
ENDBRANCH  17  18
ENDBRANCH  16  17
TORSDOF 4
ENDMDL
MODEL 6
REMARK VINA RESULT:      -6.6     27.047     29.900
REMARK  Name = 51137387
REMARK  4 active torsions:
REMARK  status: ('A' for Active; 'I' for Inactive)
REMARK    1  A    between atoms: N_2  and  C_5
REMARK    2  A    between atoms: C_7  and  C_15
REMARK    3  A    between atoms: C_16  and  C_17
REMARK    4  A    between atoms: C_17  and  C_18
REMARK                            x       y       z     vdW  Elec       q    Type
REMARK                         _______ _______ _______ _____ _____    ______ ____
ROOT
ATOM      1  O   UNL     1     -14.858   4.334  23.727  0.00  0.00    -0.424 OA
ATOM      3  N   UNL     1     -16.550   4.171  22.274  0.00  0.00    -0.112 NA
ATOM      4  N   UNL     1     -15.449   4.654  21.593  0.00  0.00    -0.112 NA
ATOM     15  C   UNL     1     -16.160   3.999  23.515  0.00  0.00    +0.222 A 
ATOM     16  C   UNL     1     -14.484   4.734  22.480  0.00  0.00    +0.222 A 
ENDROOT
BRANCH  15   7
ATOM      2  N   UNL     1     -16.680   2.523  26.828  0.00  0.00    -0.299 NA
ATOM      6  C   UNL     1     -16.167   3.638  26.028  0.00  0.00    +0.097 C 
ATOM      7  C   UNL     1     -16.937   3.492  24.708  0.00  0.00    +0.092 C 
ATOM      8  C   UNL     1     -16.730   1.389  25.907  0.00  0.00    +0.085 C 
ATOM     11  C   UNL     1     -17.321   2.004  24.644  0.00  0.00    +0.029 C 
BRANCH   2   5
ATOM      5  C   UNL     1     -15.850   2.252  28.000  0.00  0.00    +0.057 C 
ATOM      9  C   UNL     1     -15.654   3.538  28.810  0.00  0.00    +0.019 C 
ATOM     10  C   UNL     1     -16.498   1.155  28.854  0.00  0.00    +0.019 C 
ATOM     12  C   UNL     1     -14.855   3.278  30.085  0.00  0.00    +0.002 C 
ATOM     13  C   UNL     1     -15.697   0.897  30.129  0.00  0.00    +0.002 C 
ATOM     14  C   UNL     1     -15.489   2.178  30.932  0.00  0.00    +0.000 C 
ENDBRANCH   2   5
ENDBRANCH  15   7
BRANCH  16  17
ATOM     17  C   UNL     1     -13.096   5.180  22.315  0.00  0.00    +0.132 C 
BRANCH  17  18
ATOM     18  C   UNL     1     -12.936   6.513  21.591  0.00  0.00    -0.038 A 
ATOM     19  C   UNL     1     -11.829   6.732  20.770  0.00  0.00    +0.004 A 
ATOM     20  C   UNL     1     -13.896   7.512  21.749  0.00  0.00    +0.004 A 
ATOM     21  C   UNL     1     -11.682   7.951  20.109  0.00  0.00    +0.000 A 
ATOM     22  C   UNL     1     -13.749   8.731  21.086  0.00  0.00    +0.000 A 
ATOM     23  C   UNL     1     -12.642   8.949  20.266  0.00  0.00    +0.000 A 
ENDBRANCH  17  18
ENDBRANCH  16  17
TORSDOF 4
ENDMDL
MODEL 7
REMARK VINA RESULT:      -6.5     27.315     30.375
REMARK  Name = 51137387
REMARK  4 active torsions:
REMARK  status: ('A' for Active; 'I' for Inactive)
REMARK    1  A    between atoms: N_2  and  C_5
REMARK    2  A    between atoms: C_7  and  C_15
REMARK    3  A    between atoms: C_16  and  C_17
REMARK    4  A    between atoms: C_17  and  C_18
REMARK                            x       y       z     vdW  Elec       q    Type
REMARK                         _______ _______ _______ _____ _____    ______ ____
ROOT
ATOM      1  O   UNL     1     -16.379   2.598  26.230  0.00  0.00    -0.424 OA
ATOM      3  N   UNL     1     -16.824   4.786  26.084  0.00  0.00    -0.112 NA
ATOM      4  N   UNL     1     -17.232   4.349  27.330  0.00  0.00    -0.112 NA
ATOM     15  C   UNL     1     -16.333   3.731  25.476  0.00  0.00    +0.222 A 
ATOM     16  C   UNL     1     -16.954   3.067  27.371  0.00  0.00    +0.222 A 
ENDROOT
BRANCH  15   7
ATOM      2  N   UNL     1     -14.777   4.853  22.354  0.00  0.00    -0.299 NA
ATOM      6  C   UNL     1     -14.669   4.670  23.803  0.00  0.00    +0.097 C 
ATOM      7  C   UNL     1     -15.738   3.607  24.093  0.00  0.00    +0.092 C 
ATOM      8  C   UNL     1     -16.213   4.887  22.084  0.00  0.00    +0.085 C 
ATOM     11  C   UNL     1     -16.747   3.745  22.940  0.00  0.00    +0.029 C 
BRANCH   2   5
ATOM      5  C   UNL     1     -14.095   6.061  21.893  0.00  0.00    +0.057 C 
ATOM      9  C   UNL     1     -12.637   5.738  21.552  0.00  0.00    +0.019 C 
ATOM     10  C   UNL     1     -14.830   6.644  20.681  0.00  0.00    +0.019 C 
ATOM     12  C   UNL     1     -11.911   6.961  20.993  0.00  0.00    +0.002 C 
ATOM     13  C   UNL     1     -14.102   7.866  20.124  0.00  0.00    +0.002 C 
ATOM     14  C   UNL     1     -12.646   7.551  19.794  0.00  0.00    +0.000 C 
ENDBRANCH   2   5
ENDBRANCH  15   7
BRANCH  16  17
ATOM     17  C   UNL     1     -17.168   2.097  28.452  0.00  0.00    +0.132 C 
BRANCH  17  18
ATOM     18  C   UNL     1     -15.946   1.835  29.326  0.00  0.00    -0.038 A 
ATOM     19  C   UNL     1     -15.011   2.848  29.538  0.00  0.00    +0.004 A 
ATOM     20  C   UNL     1     -15.764   0.583  29.913  0.00  0.00    +0.004 A 
ATOM     21  C   UNL     1     -13.893   2.609  30.337  0.00  0.00    +0.000 A 
ATOM     22  C   UNL     1     -14.647   0.344  30.713  0.00  0.00    +0.000 A 
ATOM     23  C   UNL     1     -13.711   1.357  30.925  0.00  0.00    +0.000 A 
ENDBRANCH  17  18
ENDBRANCH  16  17
TORSDOF 4
ENDMDL
MODEL 8
REMARK VINA RESULT:      -6.5     28.902     31.173
REMARK  Name = 51137387
REMARK  4 active torsions:
REMARK  status: ('A' for Active; 'I' for Inactive)
REMARK    1  A    between atoms: N_2  and  C_5
REMARK    2  A    between atoms: C_7  and  C_15
REMARK    3  A    between atoms: C_16  and  C_17
REMARK    4  A    between atoms: C_17  and  C_18
REMARK                            x       y       z     vdW  Elec       q    Type
REMARK                         _______ _______ _______ _____ _____    ______ ____
ROOT
ATOM      1  O   UNL     1       1.896   2.335  -5.415  0.00  0.00    -0.424 OA
ATOM      3  N   UNL     1       0.736   3.632  -4.009  0.00  0.00    -0.112 NA
ATOM      4  N   UNL     1       0.084   2.418  -4.105  0.00  0.00    -0.112 NA
ATOM     15  C   UNL     1       1.787   3.540  -4.789  0.00  0.00    +0.222 A 
ATOM     16  C   UNL     1       0.795   1.692  -4.936  0.00  0.00    +0.222 A 
ENDROOT
BRANCH  15   7
ATOM      2  N   UNL     1       3.205   6.760  -5.812  0.00  0.00    -0.299 NA
ATOM      6  C   UNL     1       2.400   6.003  -4.851  0.00  0.00    +0.097 C 
ATOM      7  C   UNL     1       2.865   4.558  -5.079  0.00  0.00    +0.092 C 
ATOM      8  C   UNL     1       3.180   5.962  -7.037  0.00  0.00    +0.085 C 
ATOM     11  C   UNL     1       3.397   4.544  -6.523  0.00  0.00    +0.029 C 
BRANCH   2   5
ATOM      5  C   UNL     1       2.698   8.114  -6.020  0.00  0.00    +0.057 C 
ATOM      9  C   UNL     1       1.435   8.071  -6.887  0.00  0.00    +0.019 C 
ATOM     10  C   UNL     1       2.416   8.778  -4.667  0.00  0.00    +0.019 C 
ATOM     12  C   UNL     1       0.831   9.463  -7.063  0.00  0.00    +0.002 C 
ATOM     13  C   UNL     1       1.811  10.170  -4.845  0.00  0.00    +0.002 C 
ATOM     14  C   UNL     1       0.560  10.132  -5.718  0.00  0.00    +0.000 C 
ENDBRANCH   2   5
ENDBRANCH  15   7
BRANCH  16  17
ATOM     17  C   UNL     1       0.574   0.319  -5.405  0.00  0.00    +0.132 C 
BRANCH  17  18
ATOM     18  C   UNL     1      -0.605   0.153  -6.359  0.00  0.00    -0.038 A 
ATOM     19  C   UNL     1      -1.357  -1.022  -6.339  0.00  0.00    +0.004 A 
ATOM     20  C   UNL     1      -0.929   1.175  -7.252  0.00  0.00    +0.004 A 
ATOM     21  C   UNL     1      -2.435  -1.174  -7.212  0.00  0.00    +0.000 A 
ATOM     22  C   UNL     1      -2.007   1.022  -8.124  0.00  0.00    +0.000 A 
ATOM     23  C   UNL     1      -2.759  -0.152  -8.103  0.00  0.00    +0.000 A 
ENDBRANCH  17  18
ENDBRANCH  16  17
TORSDOF 4
ENDMDL
MODEL 9
REMARK VINA RESULT:      -6.5     27.276     28.415
REMARK  Name = 51137387
REMARK  4 active torsions:
REMARK  status: ('A' for Active; 'I' for Inactive)
REMARK    1  A    between atoms: N_2  and  C_5
REMARK    2  A    between atoms: C_7  and  C_15
REMARK    3  A    between atoms: C_16  and  C_17
REMARK    4  A    between atoms: C_17  and  C_18
REMARK                            x       y       z     vdW  Elec       q    Type
REMARK                         _______ _______ _______ _____ _____    ______ ____
ROOT
ATOM      1  O   UNL     1      -3.557 -11.621  14.663  0.00  0.00    -0.424 OA
ATOM      3  N   UNL     1      -2.408 -10.497  16.219  0.00  0.00    -0.112 NA
ATOM      4  N   UNL     1      -1.772 -10.318  15.006  0.00  0.00    -0.112 NA
ATOM     15  C   UNL     1      -3.444 -11.264  15.972  0.00  0.00    +0.222 A 
ATOM     16  C   UNL     1      -2.475 -10.991  14.126  0.00  0.00    +0.222 A 
ENDROOT
BRANCH  15   7
ATOM      2  N   UNL     1      -6.428 -11.161  18.095  0.00  0.00    -0.299 NA
ATOM      6  C   UNL     1      -5.854 -11.082  16.750  0.00  0.00    +0.097 C 
ATOM      7  C   UNL     1      -4.501 -11.789  16.915  0.00  0.00    +0.092 C 
ATOM      8  C   UNL     1      -5.323 -10.844  18.997  0.00  0.00    +0.085 C 
ATOM     11  C   UNL     1      -4.166 -11.642  18.409  0.00  0.00    +0.029 C 
BRANCH   2   5
ATOM      5  C   UNL     1      -7.565 -10.259  18.269  0.00  0.00    +0.057 C 
ATOM      9  C   UNL     1      -7.771  -9.429  16.997  0.00  0.00    +0.019 C 
ATOM     10  C   UNL     1      -8.823 -11.065  18.613  0.00  0.00    +0.019 C 
ATOM     12  C   UNL     1      -8.999  -8.527  17.113  0.00  0.00    +0.002 C 
ATOM     13  C   UNL     1     -10.049 -10.161  18.727  0.00  0.00    +0.002 C 
ATOM     14  C   UNL     1     -10.251  -9.324  17.467  0.00  0.00    +0.000 C 
ENDBRANCH   2   5
ENDBRANCH  15   7
BRANCH  16  17
ATOM     17  C   UNL     1      -2.264 -11.152  12.683  0.00  0.00    +0.132 C 
BRANCH  17  18
ATOM     18  C   UNL     1      -3.176 -10.299  11.806  0.00  0.00    -0.038 A 
ATOM     19  C   UNL     1      -2.678  -9.719  10.639  0.00  0.00    +0.004 A 
ATOM     20  C   UNL     1      -4.507 -10.100  12.171  0.00  0.00    +0.004 A 
ATOM     21  C   UNL     1      -3.511  -8.939   9.837  0.00  0.00    +0.000 A 
ATOM     22  C   UNL     1      -5.341  -9.320  11.369  0.00  0.00    +0.000 A 
ATOM     23  C   UNL     1      -4.842  -8.740  10.202  0.00  0.00    +0.000 A 
ENDBRANCH  17  18
ENDBRANCH  16  17
TORSDOF 4
ENDMDL
MODEL 10
REMARK VINA RESULT:      -6.5     27.731     30.769
REMARK  Name = 51137387
REMARK  4 active torsions:
REMARK  status: ('A' for Active; 'I' for Inactive)
REMARK    1  A    between atoms: N_2  and  C_5
REMARK    2  A    between atoms: C_7  and  C_15
REMARK    3  A    between atoms: C_16  and  C_17
REMARK    4  A    between atoms: C_17  and  C_18
REMARK                            x       y       z     vdW  Elec       q    Type
REMARK                         _______ _______ _______ _____ _____    ______ ____
ROOT
ATOM      1  O   UNL     1     -13.798   5.541  32.636  0.00  0.00    -0.424 OA
ATOM      3  N   UNL     1     -14.225   4.444  34.538  0.00  0.00    -0.112 NA
ATOM      4  N   UNL     1     -14.388   5.795  34.779  0.00  0.00    -0.112 NA
ATOM     15  C   UNL     1     -13.880   4.342  33.276  0.00  0.00    +0.222 A 
ATOM     16  C   UNL     1     -14.128   6.397  33.642  0.00  0.00    +0.222 A 
ENDROOT
BRANCH  15   7
ATOM      2  N   UNL     1     -14.283   1.887  30.586  0.00  0.00    -0.299 NA
ATOM      6  C   UNL     1     -13.964   3.261  30.980  0.00  0.00    +0.097 C 
ATOM      7  C   UNL     1     -13.573   3.111  32.457  0.00  0.00    +0.092 C 
ATOM      8  C   UNL     1     -15.062   1.347  31.699  0.00  0.00    +0.085 C 
ATOM     11  C   UNL     1     -14.290   1.831  32.920  0.00  0.00    +0.029 C 
BRANCH   2   5
ATOM      5  C   UNL     1     -15.007   1.825  29.319  0.00  0.00    +0.057 C 
ATOM      9  C   UNL     1     -16.291   1.005  29.490  0.00  0.00    +0.019 C 
ATOM     10  C   UNL     1     -15.320   3.244  28.827  0.00  0.00    +0.019 C 
ATOM     12  C   UNL     1     -17.114   0.982  28.204  0.00  0.00    +0.002 C 
ATOM     13  C   UNL     1     -16.144   3.218  27.541  0.00  0.00    +0.002 C 
ATOM     14  C   UNL     1     -17.417   2.392  27.705  0.00  0.00    +0.000 C 
ENDBRANCH   2   5
ENDBRANCH  15   7
BRANCH  16  17
ATOM     17  C   UNL     1     -14.147   7.828  33.315  0.00  0.00    +0.132 C 
BRANCH  17  18
ATOM     18  C   UNL     1     -12.774   8.491  33.269  0.00  0.00    -0.038 A 
ATOM     19  C   UNL     1     -12.069   8.549  32.067  0.00  0.00    +0.004 A 
ATOM     20  C   UNL     1     -12.224   9.037  34.429  0.00  0.00    +0.004 A 
ATOM     21  C   UNL     1     -10.812   9.155  32.025  0.00  0.00    +0.000 A 
ATOM     22  C   UNL     1     -10.968   9.643  34.386  0.00  0.00    +0.000 A 
ATOM     23  C   UNL     1     -10.263   9.702  33.184  0.00  0.00    +0.000 A 
ENDBRANCH  17  18
ENDBRANCH  16  17
TORSDOF 4
ENDMDL
