MODEL 1
REMARK VINA RESULT:      -6.5      0.000      0.000
REMARK  Name = 51137619
REMARK  5 active torsions:
REMARK  status: ('A' for Active; 'I' for Inactive)
REMARK    1  A    between atoms: N_2  and  C_8
REMARK    2  A    between atoms: N_5  and  C_23
REMARK    3  A    between atoms: C_7  and  C_8
REMARK    4  A    between atoms: C_9  and  C_18
REMARK    5  A    between atoms: C_19  and  C_20
REMARK                            x       y       z     vdW  Elec       q    Type
REMARK                         _______ _______ _______ _____ _____    ______ ____
ROOT
ATOM      2  N   UNL     1      14.392   7.540  19.256  0.00  0.00    -0.301 NA
ATOM      9  C   UNL     1      12.086   7.777  19.777  0.00  0.00    +0.092 C 
ATOM     12  C   UNL     1      13.366   7.015  20.162  0.00  0.00    +0.097 C 
ATOM     13  C   UNL     1      13.705   7.805  17.992  0.00  0.00    +0.085 C 
ATOM     14  C   UNL     1      12.436   8.493  18.464  0.00  0.00    +0.029 C 
ENDROOT
BRANCH   9  18
ATOM      1  O   UNL     1      12.049   9.995  20.815  0.00  0.00    -0.419 OA
ATOM      3  N   UNL     1      10.707   8.503  21.806  0.00  0.00    -0.112 NA
ATOM      4  N   UNL     1      10.591   9.700  22.486  0.00  0.00    -0.106 NA
ATOM     18  C   UNL     1      11.568   8.721  20.838  0.00  0.00    +0.222 A 
ATOM     19  C   UNL     1      11.390  10.542  21.874  0.00  0.00    +0.266 A 
BRANCH  19  20
ATOM      5  N   UNL     1      12.511  12.335  23.143  0.00  0.00    -0.329 N 
ATOM      6  N   UNL     1      11.347  14.130  22.549  0.00  0.00    -0.243 NA
ATOM     20  C   UNL     1      11.555  11.890  22.275  0.00  0.00    +0.125 A 
ATOM     21  C   UNL     1      10.848  13.016  21.922  0.00  0.00    +0.143 A 
ATOM     22  C   UNL     1      12.348  13.686  23.277  0.00  0.00    +0.199 A 
ATOM     23  C   UNL     1      13.521  11.547  23.810  0.00  0.00    +0.150 C 
ENDBRANCH  19  20
ENDBRANCH   9  18
BRANCH   2   8
ATOM      8  C   UNL     1      15.518   6.633  19.099  0.00  0.00    +0.088 C 
BRANCH   8   7
ATOM      7  C   UNL     1      16.537   6.833  20.219  0.00  0.00    +0.003 C 
ATOM     10  C   UNL     1      16.712   8.326  20.533  0.00  0.00    +0.005 C 
ATOM     11  C   UNL     1      17.882   6.192  19.850  0.00  0.00    +0.005 C 
ATOM     15  C   UNL     1      17.766   8.555  21.614  0.00  0.00    +0.000 C 
ATOM     16  C   UNL     1      18.934   6.426  20.932  0.00  0.00    +0.000 C 
ATOM     17  C   UNL     1      19.098   7.909  21.247  0.00  0.00    +0.000 C 
ENDBRANCH   8   7
ENDBRANCH   2   8
TORSDOF 4
ENDMDL
MODEL 2
REMARK VINA RESULT:      -6.2     25.978     28.402
REMARK  Name = 51137619
REMARK  5 active torsions:
REMARK  status: ('A' for Active; 'I' for Inactive)
REMARK    1  A    between atoms: N_2  and  C_8
REMARK    2  A    between atoms: N_5  and  C_23
REMARK    3  A    between atoms: C_7  and  C_8
REMARK    4  A    between atoms: C_9  and  C_18
REMARK    5  A    between atoms: C_19  and  C_20
REMARK                            x       y       z     vdW  Elec       q    Type
REMARK                         _______ _______ _______ _____ _____    ______ ____
ROOT
ATOM      2  N   UNL     1      -3.349 -11.060  15.696  0.00  0.00    -0.301 NA
ATOM      9  C   UNL     1      -1.904 -11.126  13.811  0.00  0.00    +0.092 C 
ATOM     12  C   UNL     1      -3.115 -11.817  14.463  0.00  0.00    +0.097 C 
ATOM     13  C   UNL     1      -2.025 -10.661  16.173  0.00  0.00    +0.085 C 
ATOM     14  C   UNL     1      -1.364 -10.179  14.894  0.00  0.00    +0.029 C 
ENDROOT
BRANCH   9  18
ATOM      1  O   UNL     1      -3.508 -10.371  12.122  0.00  0.00    -0.419 OA
ATOM      3  N   UNL     1      -1.386  -9.822  11.673  0.00  0.00    -0.112 NA
ATOM      4  N   UNL     1      -2.178  -9.339  10.648  0.00  0.00    -0.106 NA
ATOM     18  C   UNL     1      -2.204 -10.416  12.511  0.00  0.00    +0.222 A 
ATOM     19  C   UNL     1      -3.409  -9.682  10.952  0.00  0.00    +0.266 A 
BRANCH  19  20
ATOM      5  N   UNL     1      -5.017 -10.165   9.145  0.00  0.00    -0.329 N 
ATOM      6  N   UNL     1      -6.318  -8.366   9.182  0.00  0.00    -0.243 NA
ATOM     20  C   UNL     1      -4.527  -9.369  10.141  0.00  0.00    +0.125 A 
ATOM     21  C   UNL     1      -5.346  -8.264  10.145  0.00  0.00    +0.143 A 
ATOM     22  C   UNL     1      -6.092  -9.522   8.598  0.00  0.00    +0.199 A 
ATOM     23  C   UNL     1      -4.512 -11.452   8.727  0.00  0.00    +0.150 C 
ENDBRANCH  19  20
ENDBRANCH   9  18
BRANCH   2   8
ATOM      8  C   UNL     1      -4.094 -11.821  16.688  0.00  0.00    +0.088 C 
BRANCH   8   7
ATOM      7  C   UNL     1      -5.019 -10.909  17.490  0.00  0.00    +0.003 C 
ATOM     10  C   UNL     1      -5.286 -11.497  18.883  0.00  0.00    +0.005 C 
ATOM     11  C   UNL     1      -6.335 -10.672  16.737  0.00  0.00    +0.005 C 
ATOM     15  C   UNL     1      -6.253 -10.629  19.686  0.00  0.00    +0.000 C 
ATOM     16  C   UNL     1      -7.299  -9.806  17.543  0.00  0.00    +0.000 C 
ATOM     17  C   UNL     1      -7.555 -10.389  18.930  0.00  0.00    +0.000 C 
ENDBRANCH   8   7
ENDBRANCH   2   8
TORSDOF 4
ENDMDL
MODEL 3
REMARK VINA RESULT:      -5.9     26.832     28.412
REMARK  Name = 51137619
REMARK  5 active torsions:
REMARK  status: ('A' for Active; 'I' for Inactive)
REMARK    1  A    between atoms: N_2  and  C_8
REMARK    2  A    between atoms: N_5  and  C_23
REMARK    3  A    between atoms: C_7  and  C_8
REMARK    4  A    between atoms: C_9  and  C_18
REMARK    5  A    between atoms: C_19  and  C_20
REMARK                            x       y       z     vdW  Elec       q    Type
REMARK                         _______ _______ _______ _____ _____    ______ ____
ROOT
ATOM      2  N   UNL     1      -3.321 -10.825  11.333  0.00  0.00    -0.301 NA
ATOM      9  C   UNL     1      -1.903 -11.685  13.035  0.00  0.00    +0.092 C 
ATOM     12  C   UNL     1      -2.090 -10.506  12.063  0.00  0.00    +0.097 C 
ATOM     13  C   UNL     1      -3.327 -12.279  11.184  0.00  0.00    +0.085 C 
ATOM     14  C   UNL     1      -2.921 -12.739  12.573  0.00  0.00    +0.029 C 
ENDROOT
BRANCH   9  18
ATOM      1  O   UNL     1      -3.269 -11.557  15.064  0.00  0.00    -0.419 OA
ATOM      3  N   UNL     1      -1.173 -10.820  15.329  0.00  0.00    -0.112 NA
ATOM      4  N   UNL     1      -1.827 -10.692  16.540  0.00  0.00    -0.106 NA
ATOM     18  C   UNL     1      -2.052 -11.329  14.497  0.00  0.00    +0.222 A 
ATOM     19  C   UNL     1      -3.046 -11.135  16.339  0.00  0.00    +0.266 A 
BRANCH  19  20
ATOM      5  N   UNL     1      -5.217 -10.480  17.311  0.00  0.00    -0.329 N 
ATOM      6  N   UNL     1      -5.229 -11.598  19.229  0.00  0.00    -0.243 NA
ATOM     20  C   UNL     1      -4.038 -11.168  17.350  0.00  0.00    +0.125 A 
ATOM     21  C   UNL     1      -4.067 -11.851  18.543  0.00  0.00    +0.143 A 
ATOM     22  C   UNL     1      -5.899 -10.769  18.459  0.00  0.00    +0.199 A 
ATOM     23  C   UNL     1      -5.682  -9.603  16.261  0.00  0.00    +0.150 C 
ENDBRANCH  19  20
ENDBRANCH   9  18
BRANCH   2   8
ATOM      8  C   UNL     1      -3.410 -10.132  10.057  0.00  0.00    +0.088 C 
BRANCH   8   7
ATOM      7  C   UNL     1      -4.864 -10.007   9.607  0.00  0.00    +0.003 C 
ATOM     10  C   UNL     1      -4.941  -9.606   8.127  0.00  0.00    +0.005 C 
ATOM     11  C   UNL     1      -5.619  -9.000  10.485  0.00  0.00    +0.005 C 
ATOM     15  C   UNL     1      -6.386  -9.423   7.667  0.00  0.00    +0.000 C 
ATOM     16  C   UNL     1      -7.062  -8.817  10.021  0.00  0.00    +0.000 C 
ATOM     17  C   UNL     1      -7.135  -8.428   8.548  0.00  0.00    +0.000 C 
ENDBRANCH   8   7
ENDBRANCH   2   8
TORSDOF 4
ENDMDL
MODEL 4
REMARK VINA RESULT:      -5.9     26.589     28.712
REMARK  Name = 51137619
REMARK  5 active torsions:
REMARK  status: ('A' for Active; 'I' for Inactive)
REMARK    1  A    between atoms: N_2  and  C_8
REMARK    2  A    between atoms: N_5  and  C_23
REMARK    3  A    between atoms: C_7  and  C_8
REMARK    4  A    between atoms: C_9  and  C_18
REMARK    5  A    between atoms: C_19  and  C_20
REMARK                            x       y       z     vdW  Elec       q    Type
REMARK                         _______ _______ _______ _____ _____    ______ ____
ROOT
ATOM      2  N   UNL     1      -2.288 -11.393  13.972  0.00  0.00    -0.301 NA
ATOM      9  C   UNL     1      -3.546 -10.569  15.811  0.00  0.00    +0.092 C 
ATOM     12  C   UNL     1      -3.527 -10.672  14.276  0.00  0.00    +0.097 C 
ATOM     13  C   UNL     1      -1.319 -10.956  14.976  0.00  0.00    +0.085 C 
ATOM     14  C   UNL     1      -2.142 -11.011  16.251  0.00  0.00    +0.029 C 
ENDROOT
BRANCH   9  18
ATOM      1  O   UNL     1      -5.580 -10.649  17.174  0.00  0.00    -0.419 OA
ATOM      3  N   UNL     1      -4.847 -12.657  16.512  0.00  0.00    -0.112 NA
ATOM      4  N   UNL     1      -5.990 -12.846  17.266  0.00  0.00    -0.106 NA
ATOM     18  C   UNL     1      -4.645 -11.359  16.485  0.00  0.00    +0.222 A 
ATOM     19  C   UNL     1      -6.383 -11.648  17.631  0.00  0.00    +0.266 A 
BRANCH  19  20
ATOM      5  N   UNL     1      -8.602 -10.656  18.048  0.00  0.00    -0.329 N 
ATOM      6  N   UNL     1      -9.072 -11.394  20.089  0.00  0.00    -0.243 NA
ATOM     20  C   UNL     1      -7.532 -11.416  18.426  0.00  0.00    +0.125 A 
ATOM     21  C   UNL     1      -7.844 -11.861  19.689  0.00  0.00    +0.143 A 
ATOM     22  C   UNL     1      -9.502 -10.672  19.077  0.00  0.00    +0.199 A 
ATOM     23  C   UNL     1      -8.778  -9.955  16.797  0.00  0.00    +0.150 C 
ENDBRANCH  19  20
ENDBRANCH   9  18
BRANCH   2   8
ATOM      8  C   UNL     1      -1.825 -11.163  12.612  0.00  0.00    +0.088 C 
BRANCH   8   7
ATOM      7  C   UNL     1      -2.984 -10.752  11.706  0.00  0.00    +0.003 C 
ATOM     10  C   UNL     1      -3.452 -11.938  10.851  0.00  0.00    +0.005 C 
ATOM     11  C   UNL     1      -2.584  -9.565  10.819  0.00  0.00    +0.005 C 
ATOM     15  C   UNL     1      -4.576 -11.537   9.898  0.00  0.00    +0.000 C 
ATOM     16  C   UNL     1      -3.709  -9.169   9.866  0.00  0.00    +0.000 C 
ATOM     17  C   UNL     1      -4.178 -10.352   9.025  0.00  0.00    +0.000 C 
ENDBRANCH   8   7
ENDBRANCH   2   8
TORSDOF 4
ENDMDL
MODEL 5
REMARK VINA RESULT:      -5.7      5.027      6.841
REMARK  Name = 51137619
REMARK  5 active torsions:
REMARK  status: ('A' for Active; 'I' for Inactive)
REMARK    1  A    between atoms: N_2  and  C_8
REMARK    2  A    between atoms: N_5  and  C_23
REMARK    3  A    between atoms: C_7  and  C_8
REMARK    4  A    between atoms: C_9  and  C_18
REMARK    5  A    between atoms: C_19  and  C_20
REMARK                            x       y       z     vdW  Elec       q    Type
REMARK                         _______ _______ _______ _____ _____    ______ ____
ROOT
ATOM      2  N   UNL     1      16.614  12.151  15.605  0.00  0.00    -0.301 NA
ATOM      9  C   UNL     1      14.524  11.057  15.319  0.00  0.00    +0.092 C 
ATOM     12  C   UNL     1      15.952  11.157  14.754  0.00  0.00    +0.097 C 
ATOM     13  C   UNL     1      15.583  13.129  15.947  0.00  0.00    +0.085 C 
ATOM     14  C   UNL     1      14.407  12.235  16.299  0.00  0.00    +0.029 C 
ENDROOT
BRANCH   9  18
ATOM      1  O   UNL     1      14.523   9.576  17.270  0.00  0.00    -0.419 OA
ATOM      3  N   UNL     1      13.613   8.670  15.439  0.00  0.00    -0.112 NA
ATOM      4  N   UNL     1      13.549   7.735  16.455  0.00  0.00    -0.106 NA
ATOM     18  C   UNL     1      14.189   9.729  15.960  0.00  0.00    +0.222 A 
ATOM     19  C   UNL     1      14.091   8.307  17.505  0.00  0.00    +0.266 A 
BRANCH  19  20
ATOM      5  N   UNL     1      13.281   7.711  19.757  0.00  0.00    -0.329 N 
ATOM      6  N   UNL     1      14.945   6.465  20.540  0.00  0.00    -0.243 NA
ATOM     20  C   UNL     1      14.216   7.666  18.762  0.00  0.00    +0.125 A 
ATOM     21  C   UNL     1      15.233   6.892  19.267  0.00  0.00    +0.143 A 
ATOM     22  C   UNL     1      13.762   6.975  20.805  0.00  0.00    +0.199 A 
ATOM     23  C   UNL     1      12.012   8.400  19.734  0.00  0.00    +0.150 C 
ENDBRANCH  19  20
ENDBRANCH   9  18
BRANCH   2   8
ATOM      8  C   UNL     1      17.769  12.759  14.961  0.00  0.00    +0.088 C 
BRANCH   8   7
ATOM      7  C   UNL     1      19.020  11.910  15.175  0.00  0.00    +0.003 C 
ATOM     10  C   UNL     1      19.996  12.613  16.129  0.00  0.00    +0.005 C 
ATOM     11  C   UNL     1      19.698  11.594  13.835  0.00  0.00    +0.005 C 
ATOM     15  C   UNL     1      21.279  11.807  16.317  0.00  0.00    +0.000 C 
ATOM     16  C   UNL     1      20.981  10.791  14.027  0.00  0.00    +0.000 C 
ATOM     17  C   UNL     1      21.945  11.489  14.982  0.00  0.00    +0.000 C 
ENDBRANCH   8   7
ENDBRANCH   2   8
TORSDOF 4
ENDMDL
MODEL 6
REMARK VINA RESULT:      -5.7     27.374     28.700
REMARK  Name = 51137619
REMARK  5 active torsions:
REMARK  status: ('A' for Active; 'I' for Inactive)
REMARK    1  A    between atoms: N_2  and  C_8
REMARK    2  A    between atoms: N_5  and  C_23
REMARK    3  A    between atoms: C_7  and  C_8
REMARK    4  A    between atoms: C_9  and  C_18
REMARK    5  A    between atoms: C_19  and  C_20
REMARK                            x       y       z     vdW  Elec       q    Type
REMARK                         _______ _______ _______ _____ _____    ______ ____
ROOT
ATOM      2  N   UNL     1      -3.792 -11.190  14.084  0.00  0.00    -0.301 NA
ATOM      9  C   UNL     1      -3.976 -11.775  16.379  0.00  0.00    +0.092 C 
ATOM     12  C   UNL     1      -3.310 -10.785  15.408  0.00  0.00    +0.097 C 
ATOM     13  C   UNL     1      -3.908 -12.646  14.133  0.00  0.00    +0.085 C 
ATOM     14  C   UNL     1      -4.581 -12.862  15.477  0.00  0.00    +0.029 C 
ENDROOT
BRANCH   9  18
ATOM      1  O   UNL     1      -6.213 -10.864  16.787  0.00  0.00    -0.419 OA
ATOM      3  N   UNL     1      -4.882 -10.851  18.585  0.00  0.00    -0.112 NA
ATOM      4  N   UNL     1      -6.101 -10.314  18.953  0.00  0.00    -0.106 NA
ATOM     18  C   UNL     1      -4.992 -11.158  17.313  0.00  0.00    +0.222 A 
ATOM     19  C   UNL     1      -6.847 -10.342  17.872  0.00  0.00    +0.266 A 
BRANCH  19  20
ATOM      5  N   UNL     1      -9.233 -10.457  18.487  0.00  0.00    -0.329 N 
ATOM      6  N   UNL     1     -10.077  -8.699  17.424  0.00  0.00    -0.243 NA
ATOM     20  C   UNL     1      -8.183  -9.873  17.837  0.00  0.00    +0.125 A 
ATOM     21  C   UNL     1      -8.728  -8.790  17.188  0.00  0.00    +0.143 A 
ATOM     22  C   UNL     1     -10.349  -9.717  18.211  0.00  0.00    +0.199 A 
ATOM     23  C   UNL     1      -9.198 -11.637  19.320  0.00  0.00    +0.150 C 
ENDBRANCH  19  20
ENDBRANCH   9  18
BRANCH   2   8
ATOM      8  C   UNL     1      -2.924 -10.735  13.008  0.00  0.00    +0.088 C 
BRANCH   8   7
ATOM      7  C   UNL     1      -3.736 -10.396  11.760  0.00  0.00    +0.003 C 
ATOM     10  C   UNL     1      -2.902  -9.558  10.781  0.00  0.00    +0.005 C 
ATOM     11  C   UNL     1      -5.031  -9.664  12.138  0.00  0.00    +0.005 C 
ATOM     15  C   UNL     1      -3.710  -9.162   9.548  0.00  0.00    +0.000 C 
ATOM     16  C   UNL     1      -5.835  -9.266  10.903  0.00  0.00    +0.000 C 
ATOM     17  C   UNL     1      -5.000  -8.442   9.928  0.00  0.00    +0.000 C 
ENDBRANCH   8   7
ENDBRANCH   2   8
TORSDOF 4
ENDMDL
MODEL 7
REMARK VINA RESULT:      -5.7     30.151     31.638
REMARK  Name = 51137619
REMARK  5 active torsions:
REMARK  status: ('A' for Active; 'I' for Inactive)
REMARK    1  A    between atoms: N_2  and  C_8
REMARK    2  A    between atoms: N_5  and  C_23
REMARK    3  A    between atoms: C_7  and  C_8
REMARK    4  A    between atoms: C_9  and  C_18
REMARK    5  A    between atoms: C_19  and  C_20
REMARK                            x       y       z     vdW  Elec       q    Type
REMARK                         _______ _______ _______ _____ _____    ______ ____
ROOT
ATOM      2  N   UNL     1     -14.633   3.500  32.234  0.00  0.00    -0.301 NA
ATOM      9  C   UNL     1     -14.660   1.494  30.962  0.00  0.00    +0.092 C 
ATOM     12  C   UNL     1     -15.353   2.228  32.123  0.00  0.00    +0.097 C 
ATOM     13  C   UNL     1     -13.241   3.197  31.907  0.00  0.00    +0.085 C 
ATOM     14  C   UNL     1     -13.392   2.315  30.680  0.00  0.00    +0.029 C 
ENDROOT
BRANCH   9  18
ATOM      1  O   UNL     1     -15.555   2.334  28.842  0.00  0.00    -0.419 OA
ATOM      3  N   UNL     1     -16.256   0.277  29.376  0.00  0.00    -0.112 NA
ATOM      4  N   UNL     1     -16.832   0.625  28.169  0.00  0.00    -0.106 NA
ATOM     18  C   UNL     1     -15.519   1.304  29.732  0.00  0.00    +0.222 A 
ATOM     19  C   UNL     1     -16.395   1.832  27.895  0.00  0.00    +0.266 A 
BRANCH  19  20
ATOM      5  N   UNL     1     -17.624   3.606  26.701  0.00  0.00    -0.329 N 
ATOM      6  N   UNL     1     -16.976   3.294  24.600  0.00  0.00    -0.243 NA
ATOM     20  C   UNL     1     -16.762   2.547  26.729  0.00  0.00    +0.125 A 
ATOM     21  C   UNL     1     -16.375   2.372  25.421  0.00  0.00    +0.143 A 
ATOM     22  C   UNL     1     -17.721   4.022  25.402  0.00  0.00    +0.199 A 
ATOM     23  C   UNL     1     -18.318   4.198  27.821  0.00  0.00    +0.150 C 
ENDBRANCH  19  20
ENDBRANCH   9  18
BRANCH   2   8
ATOM      8  C   UNL     1     -14.777   4.113  33.547  0.00  0.00    +0.088 C 
BRANCH   8   7
ATOM      7  C   UNL     1     -13.929   5.378  33.653  0.00  0.00    +0.003 C 
ATOM     10  C   UNL     1     -13.943   5.922  35.088  0.00  0.00    +0.005 C 
ATOM     11  C   UNL     1     -14.415   6.443  32.660  0.00  0.00    +0.005 C 
ATOM     15  C   UNL     1     -13.144   7.218  35.207  0.00  0.00    +0.000 C 
ATOM     16  C   UNL     1     -13.615   7.737  32.784  0.00  0.00    +0.000 C 
ATOM     17  C   UNL     1     -13.624   8.270  34.214  0.00  0.00    +0.000 C 
ENDBRANCH   8   7
ENDBRANCH   2   8
TORSDOF 4
ENDMDL
MODEL 8
REMARK VINA RESULT:      -5.6     30.039     31.408
REMARK  Name = 51137619
REMARK  5 active torsions:
REMARK  status: ('A' for Active; 'I' for Inactive)
REMARK    1  A    between atoms: N_2  and  C_8
REMARK    2  A    between atoms: N_5  and  C_23
REMARK    3  A    between atoms: C_7  and  C_8
REMARK    4  A    between atoms: C_9  and  C_18
REMARK    5  A    between atoms: C_19  and  C_20
REMARK                            x       y       z     vdW  Elec       q    Type
REMARK                         _______ _______ _______ _____ _____    ______ ____
ROOT
ATOM      2  N   UNL     1     -14.546   4.027  32.106  0.00  0.00    -0.301 NA
ATOM      9  C   UNL     1     -15.503   2.790  30.318  0.00  0.00    +0.092 C 
ATOM     12  C   UNL     1     -15.845   3.583  31.591  0.00  0.00    +0.097 C 
ATOM     13  C   UNL     1     -13.608   2.948  31.800  0.00  0.00    +0.085 C 
ATOM     14  C   UNL     1     -13.977   2.611  30.365  0.00  0.00    +0.029 C 
ENDROOT
BRANCH   9  18
ATOM      1  O   UNL     1     -15.873   2.675  27.899  0.00  0.00    -0.419 OA
ATOM      3  N   UNL     1     -16.485   4.618  28.823  0.00  0.00    -0.112 NA
ATOM      4  N   UNL     1     -16.745   4.689  27.468  0.00  0.00    -0.106 NA
ATOM     18  C   UNL     1     -15.976   3.425  29.030  0.00  0.00    +0.222 A 
ATOM     19  C   UNL     1     -16.373   3.533  26.969  0.00  0.00    +0.266 A 
BRANCH  19  20
ATOM      5  N   UNL     1     -17.528   2.540  25.029  0.00  0.00    -0.329 N 
ATOM      6  N   UNL     1     -16.115   2.970  23.370  0.00  0.00    -0.243 NA
ATOM     20  C   UNL     1     -16.480   3.209  25.594  0.00  0.00    +0.125 A 
ATOM     21  C   UNL     1     -15.620   3.464  24.551  0.00  0.00    +0.143 A 
ATOM     22  C   UNL     1     -17.265   2.420  23.692  0.00  0.00    +0.199 A 
ATOM     23  C   UNL     1     -18.708   2.041  25.696  0.00  0.00    +0.150 C 
ENDBRANCH  19  20
ENDBRANCH   9  18
BRANCH   2   8
ATOM      8  C   UNL     1     -14.586   4.345  33.526  0.00  0.00    +0.088 C 
BRANCH   8   7
ATOM      7  C   UNL     1     -14.385   5.842  33.753  0.00  0.00    +0.003 C 
ATOM     10  C   UNL     1     -13.650   6.477  32.564  0.00  0.00    +0.005 C 
ATOM     11  C   UNL     1     -13.626   6.095  35.063  0.00  0.00    +0.005 C 
ATOM     15  C   UNL     1     -13.390   7.965  32.792  0.00  0.00    +0.000 C 
ATOM     16  C   UNL     1     -13.366   7.583  35.285  0.00  0.00    +0.000 C 
ATOM     17  C   UNL     1     -12.643   8.212  34.099  0.00  0.00    +0.000 C 
ENDBRANCH   8   7
ENDBRANCH   2   8
TORSDOF 4
ENDMDL
MODEL 9
REMARK VINA RESULT:      -5.6     26.628     29.732
REMARK  Name = 51137619
REMARK  5 active torsions:
REMARK  status: ('A' for Active; 'I' for Inactive)
REMARK    1  A    between atoms: N_2  and  C_8
REMARK    2  A    between atoms: N_5  and  C_23
REMARK    3  A    between atoms: C_7  and  C_8
REMARK    4  A    between atoms: C_9  and  C_18
REMARK    5  A    between atoms: C_19  and  C_20
REMARK                            x       y       z     vdW  Elec       q    Type
REMARK                         _______ _______ _______ _____ _____    ______ ____
ROOT
ATOM      2  N   UNL     1     -12.661   9.465  30.633  0.00  0.00    -0.301 NA
ATOM      9  C   UNL     1     -13.504   8.590  32.674  0.00  0.00    +0.092 C 
ATOM     12  C   UNL     1     -13.811   9.578  31.535  0.00  0.00    +0.097 C 
ATOM     13  C   UNL     1     -11.503   9.232  31.494  0.00  0.00    +0.085 C 
ATOM     14  C   UNL     1     -12.036   8.188  32.460  0.00  0.00    +0.029 C 
ENDROOT
BRANCH   9  18
ATOM      1  O   UNL     1     -13.873   6.171  32.558  0.00  0.00    -0.419 OA
ATOM      3  N   UNL     1     -15.727   7.357  32.962  0.00  0.00    -0.112 NA
ATOM      4  N   UNL     1     -16.075   6.020  32.922  0.00  0.00    -0.106 NA
ATOM     18  C   UNL     1     -14.432   7.398  32.745  0.00  0.00    +0.222 A 
ATOM     19  C   UNL     1     -14.962   5.365  32.684  0.00  0.00    +0.266 A 
BRANCH  19  20
ATOM      5  N   UNL     1     -14.966   3.264  31.391  0.00  0.00    -0.329 N 
ATOM      6  N   UNL     1     -14.749   1.732  32.984  0.00  0.00    -0.243 NA
ATOM     20  C   UNL     1     -14.899   3.955  32.568  0.00  0.00    +0.125 A 
ATOM     21  C   UNL     1     -14.765   2.988  33.537  0.00  0.00    +0.143 A 
ATOM     22  C   UNL     1     -14.871   1.934  31.690  0.00  0.00    +0.199 A 
ATOM     23  C   UNL     1     -15.110   3.814  30.063  0.00  0.00    +0.150 C 
ENDBRANCH  19  20
ENDBRANCH   9  18
BRANCH   2   8
ATOM      8  C   UNL     1     -12.498  10.636  29.784  0.00  0.00    +0.088 C 
BRANCH   8   7
ATOM      7  C   UNL     1     -12.184  10.227  28.347  0.00  0.00    +0.003 C 
ATOM     10  C   UNL     1     -10.814  10.768  27.916  0.00  0.00    +0.005 C 
ATOM     11  C   UNL     1     -13.286  10.707  27.392  0.00  0.00    +0.005 C 
ATOM     15  C   UNL     1     -10.500  10.417  26.463  0.00  0.00    +0.000 C 
ATOM     16  C   UNL     1     -12.968  10.356  25.942  0.00  0.00    +0.000 C 
ATOM     17  C   UNL     1     -11.602  10.888  25.519  0.00  0.00    +0.000 C 
ENDBRANCH   8   7
ENDBRANCH   2   8
TORSDOF 4
ENDMDL
MODEL 10
REMARK VINA RESULT:      -5.5     27.059     29.670
REMARK  Name = 51137619
REMARK  5 active torsions:
REMARK  status: ('A' for Active; 'I' for Inactive)
REMARK    1  A    between atoms: N_2  and  C_8
REMARK    2  A    between atoms: N_5  and  C_23
REMARK    3  A    between atoms: C_7  and  C_8
REMARK    4  A    between atoms: C_9  and  C_18
REMARK    5  A    between atoms: C_19  and  C_20
REMARK                            x       y       z     vdW  Elec       q    Type
REMARK                         _______ _______ _______ _____ _____    ______ ____
ROOT
ATOM      2  N   UNL     1     -14.813   6.989  22.080  0.00  0.00    -0.301 NA
ATOM      9  C   UNL     1     -15.209   4.799  22.912  0.00  0.00    +0.092 C 
ATOM     12  C   UNL     1     -14.232   5.986  22.978  0.00  0.00    +0.097 C 
ATOM     13  C   UNL     1     -15.429   6.235  20.989  0.00  0.00    +0.085 C 
ATOM     14  C   UNL     1     -16.146   5.127  21.740  0.00  0.00    +0.029 C 
ENDROOT
BRANCH   9  18
ATOM      1  O   UNL     1     -15.401   3.615  25.048  0.00  0.00    -0.419 OA
ATOM      3  N   UNL     1     -17.084   5.031  24.637  0.00  0.00    -0.112 NA
ATOM      4  N   UNL     1     -17.316   4.436  25.862  0.00  0.00    -0.106 NA
ATOM     18  C   UNL     1     -15.955   4.523  24.198  0.00  0.00    +0.222 A 
ATOM     19  C   UNL     1     -16.309   3.618  26.062  0.00  0.00    +0.266 A 
BRANCH  19  20
ATOM      5  N   UNL     1     -16.608   1.520  27.324  0.00  0.00    -0.329 N 
ATOM      6  N   UNL     1     -15.712   2.024  29.292  0.00  0.00    -0.243 NA
ATOM     20  C   UNL     1     -16.179   2.813  27.220  0.00  0.00    +0.125 A 
ATOM     21  C   UNL     1     -15.629   3.102  28.446  0.00  0.00    +0.143 A 
ATOM     22  C   UNL     1     -16.305   1.088  28.586  0.00  0.00    +0.199 A 
ATOM     23  C   UNL     1     -17.261   0.731  26.306  0.00  0.00    +0.150 C 
ENDBRANCH  19  20
ENDBRANCH   9  18
BRANCH   2   8
ATOM      8  C   UNL     1     -13.832   7.954  21.608  0.00  0.00    +0.088 C 
BRANCH   8   7
ATOM      7  C   UNL     1     -13.315   7.572  20.223  0.00  0.00    +0.003 C 
ATOM     10  C   UNL     1     -11.825   7.207  20.281  0.00  0.00    +0.005 C 
ATOM     11  C   UNL     1     -13.561   8.707  19.220  0.00  0.00    +0.005 C 
ATOM     15  C   UNL     1     -11.272   6.872  18.898  0.00  0.00    +0.000 C 
ATOM     16  C   UNL     1     -13.005   8.369  17.839  0.00  0.00    +0.000 C 
ATOM     17  C   UNL     1     -11.526   7.999  17.902  0.00  0.00    +0.000 C 
ENDBRANCH   8   7
ENDBRANCH   2   8
TORSDOF 4
ENDMDL
