MODEL 1
REMARK VINA RESULT:      -6.8      0.000      0.000
REMARK  Name = 75536053
REMARK  7 active torsions:
REMARK  status: ('A' for Active; 'I' for Inactive)
REMARK    1  A    between atoms: O_1  and  C_8
REMARK    2  A    between atoms: O_2  and  C_10
REMARK    3  A    between atoms: O_4  and  C_22
REMARK    4  A    between atoms: O_4  and  C_23
REMARK    5  A    between atoms: N_5  and  C_6
REMARK    6  A    between atoms: C_7  and  C_12
REMARK    7  A    between atoms: C_11  and  C_15
REMARK                            x       y       z     vdW  Elec       q    Type
REMARK                         _______ _______ _______ _____ _____    ______ ____
ROOT
ATOM      6  C   UNL     1      12.896   8.838  20.146  0.00  0.00    +0.111 C 
ATOM      7  C   UNL     1      14.088   9.008  19.176  0.00  0.00    +0.044 C 
ATOM      8  C   UNL     1      11.677   8.936  19.231  0.00  0.00    +0.164 C 
ATOM      9  C   UNL     1      13.556   8.603  17.778  0.00  0.00    +0.044 C 
ATOM     10  C   UNL     1      12.109   8.161  17.993  0.00  0.00    +0.145 C 
ENDROOT
BRANCH   7  12
ATOM     12  C   UNL     1      15.322   8.250  19.618  0.00  0.00    -0.042 A 
ATOM     18  C   UNL     1      15.551   6.956  19.150  0.00  0.00    +0.007 A 
ATOM     19  C   UNL     1      16.230   8.846  20.493  0.00  0.00    +0.007 A 
ATOM     20  C   UNL     1      16.689   6.259  19.557  0.00  0.00    +0.046 A 
ATOM     21  C   UNL     1      17.368   8.149  20.900  0.00  0.00    +0.046 A 
ATOM     22  C   UNL     1      17.597   6.855  20.432  0.00  0.00    +0.120 A 
BRANCH  22   4
ATOM      4  O   UNL     1      18.706   6.174  20.829  0.00  0.00    -0.495 OA
ATOM     23  C   UNL     1      19.421   6.695  21.949  0.00  0.00    +0.277 C 
ENDBRANCH  22   4
ENDBRANCH   7  12
BRANCH   6   5
ATOM      3  O   UNL     1      11.372   8.832  22.618  0.00  0.00    -0.276 OA
ATOM      5  N   UNL     1      12.884   9.852  21.170  0.00  0.00    -0.309 N 
ATOM     15  C   UNL     1      12.119   9.761  22.324  0.00  0.00    +0.216 C 
ATOM     24  H   UNL     1      13.520  10.638  21.065  0.00  0.00    +0.149 HD
BRANCH  15  11
ATOM     11  C   UNL     1      12.312  10.938  23.231  0.00  0.00    +0.075 C 
ATOM     13  C   UNL     1      11.126  11.067  24.193  0.00  0.00    +0.013 C 
ATOM     14  C   UNL     1      12.352  12.238  22.425  0.00  0.00    +0.013 C 
ATOM     16  C   UNL     1      10.576  12.474  23.991  0.00  0.00    +0.001 C 
ATOM     17  C   UNL     1      10.951  12.818  22.560  0.00  0.00    +0.001 C 
ENDBRANCH  15  11
ENDBRANCH   6   5
BRANCH   8   1
ATOM      1  O   UNL     1      10.521   8.365  19.815  0.00  0.00    -0.387 OA
ATOM     25  H   UNL     1       9.886   8.195  19.098  0.00  0.00    +0.210 HD
ENDBRANCH   8   1
BRANCH  10   2
ATOM      2  O   UNL     1      12.093   6.758  18.239  0.00  0.00    -0.389 OA
ATOM     26  H   UNL     1      12.948   6.399  17.941  0.00  0.00    +0.210 HD
ENDBRANCH  10   2
TORSDOF 6
ENDMDL
MODEL 2
REMARK VINA RESULT:      -6.5      2.082      6.366
REMARK  Name = 75536053
REMARK  7 active torsions:
REMARK  status: ('A' for Active; 'I' for Inactive)
REMARK    1  A    between atoms: O_1  and  C_8
REMARK    2  A    between atoms: O_2  and  C_10
REMARK    3  A    between atoms: O_4  and  C_22
REMARK    4  A    between atoms: O_4  and  C_23
REMARK    5  A    between atoms: N_5  and  C_6
REMARK    6  A    between atoms: C_7  and  C_12
REMARK    7  A    between atoms: C_11  and  C_15
REMARK                            x       y       z     vdW  Elec       q    Type
REMARK                         _______ _______ _______ _____ _____    ______ ____
ROOT
ATOM      6  C   UNL     1      13.578   8.314  18.149  0.00  0.00    +0.111 C 
ATOM      7  C   UNL     1      12.105   8.190  18.601  0.00  0.00    +0.044 C 
ATOM      8  C   UNL     1      13.496   8.180  16.629  0.00  0.00    +0.164 C 
ATOM      9  C   UNL     1      11.250   8.585  17.370  0.00  0.00    +0.044 C 
ATOM     10  C   UNL     1      12.245   8.976  16.279  0.00  0.00    +0.145 C 
ENDROOT
BRANCH   7  12
ATOM     12  C   UNL     1      11.801   8.985  19.853  0.00  0.00    -0.042 A 
ATOM     18  C   UNL     1      12.391  10.234  20.046  0.00  0.00    +0.007 A 
ATOM     19  C   UNL     1      10.932   8.468  20.814  0.00  0.00    +0.007 A 
ATOM     20  C   UNL     1      12.110  10.967  21.200  0.00  0.00    +0.046 A 
ATOM     21  C   UNL     1      10.651   9.201  21.967  0.00  0.00    +0.046 A 
ATOM     22  C   UNL     1      11.241  10.450  22.160  0.00  0.00    +0.120 A 
BRANCH  22   4
ATOM      4  O   UNL     1      10.967  11.165  23.285  0.00  0.00    -0.495 OA
ATOM     23  C   UNL     1      11.007  12.588  23.176  0.00  0.00    +0.277 C 
ENDBRANCH  22   4
ENDBRANCH   7  12
BRANCH   6   5
ATOM      3  O   UNL     1      15.422   8.604  20.373  0.00  0.00    -0.276 OA
ATOM      5  N   UNL     1      14.411   7.294  18.735  0.00  0.00    -0.309 N 
ATOM     15  C   UNL     1      15.265   7.529  19.802  0.00  0.00    +0.216 C 
ATOM     24  H   UNL     1      14.312   6.345  18.386  0.00  0.00    +0.149 HD
BRANCH  15  11
ATOM     11  C   UNL     1      15.996   6.292  20.230  0.00  0.00    +0.075 C 
ATOM     13  C   UNL     1      16.791   6.562  21.513  0.00  0.00    +0.013 C 
ATOM     14  C   UNL     1      17.020   5.877  19.172  0.00  0.00    +0.013 C 
ATOM     16  C   UNL     1      18.236   6.199  21.191  0.00  0.00    +0.001 C 
ATOM     17  C   UNL     1      18.347   6.409  19.692  0.00  0.00    +0.001 C 
ENDBRANCH  15  11
ENDBRANCH   6   5
BRANCH   8   1
ATOM      1  O   UNL     1      14.637   8.709  15.982  0.00  0.00    -0.387 OA
ATOM     25  H   UNL     1      14.336   9.424  15.396  0.00  0.00    +0.210 HD
ENDBRANCH   8   1
BRANCH  10   2
ATOM      2  O   UNL     1      12.491  10.377  16.368  0.00  0.00    -0.389 OA
ATOM     26  H   UNL     1      12.137  10.788  15.560  0.00  0.00    +0.210 HD
ENDBRANCH  10   2
TORSDOF 6
ENDMDL
MODEL 3
REMARK VINA RESULT:      -6.1     14.723     18.265
REMARK  Name = 75536053
REMARK  7 active torsions:
REMARK  status: ('A' for Active; 'I' for Inactive)
REMARK    1  A    between atoms: O_1  and  C_8
REMARK    2  A    between atoms: O_2  and  C_10
REMARK    3  A    between atoms: O_4  and  C_22
REMARK    4  A    between atoms: O_4  and  C_23
REMARK    5  A    between atoms: N_5  and  C_6
REMARK    6  A    between atoms: C_7  and  C_12
REMARK    7  A    between atoms: C_11  and  C_15
REMARK                            x       y       z     vdW  Elec       q    Type
REMARK                         _______ _______ _______ _____ _____    ______ ____
ROOT
ATOM      6  C   UNL     1       9.730   7.164   3.379  0.00  0.00    +0.111 C 
ATOM      7  C   UNL     1       8.529   7.024   4.341  0.00  0.00    +0.044 C 
ATOM      8  C   UNL     1       9.314   8.307   2.454  0.00  0.00    +0.164 C 
ATOM      9  C   UNL     1       7.807   8.396   4.319  0.00  0.00    +0.044 C 
ATOM     10  C   UNL     1       8.639   9.290   3.401  0.00  0.00    +0.145 C 
ENDROOT
BRANCH   7  12
ATOM     12  C   UNL     1       8.929   6.553   5.723  0.00  0.00    -0.042 A 
ATOM     18  C   UNL     1       8.738   7.384   6.827  0.00  0.00    +0.007 A 
ATOM     19  C   UNL     1       9.491   5.287   5.892  0.00  0.00    +0.007 A 
ATOM     20  C   UNL     1       9.107   6.949   8.099  0.00  0.00    +0.046 A 
ATOM     21  C   UNL     1       9.859   4.852   7.165  0.00  0.00    +0.046 A 
ATOM     22  C   UNL     1       9.668   5.683   8.269  0.00  0.00    +0.120 A 
BRANCH  22   4
ATOM      4  O   UNL     1      10.028   5.259   9.511  0.00  0.00    -0.495 OA
ATOM     23  C   UNL     1       9.077   4.475  10.230  0.00  0.00    +0.277 C 
ENDBRANCH  22   4
ENDBRANCH   7  12
BRANCH   6   5
ATOM      3  O   UNL     1      12.245   5.727   3.164  0.00  0.00    -0.276 OA
ATOM      5  N   UNL     1       9.984   5.947   2.650  0.00  0.00    -0.309 N 
ATOM     15  C   UNL     1      11.226   5.330   2.606  0.00  0.00    +0.216 C 
ATOM     24  H   UNL     1       9.194   5.489   2.205  0.00  0.00    +0.149 HD
BRANCH  15  11
ATOM     11  C   UNL     1      11.207   4.068   1.799  0.00  0.00    +0.075 C 
ATOM     13  C   UNL     1      12.607   3.445   1.755  0.00  0.00    +0.013 C 
ATOM     14  C   UNL     1      10.824   4.361   0.347  0.00  0.00    +0.013 C 
ATOM     16  C   UNL     1      12.953   3.301   0.277  0.00  0.00    +0.001 C 
ATOM     17  C   UNL     1      12.148   4.396  -0.401  0.00  0.00    +0.001 C 
ENDBRANCH  15  11
ENDBRANCH   6   5
BRANCH   8   1
ATOM      1  O   UNL     1      10.421   8.900   1.803  0.00  0.00    -0.387 OA
ATOM     25  H   UNL     1      10.945   8.184   1.406  0.00  0.00    +0.210 HD
ENDBRANCH   8   1
BRANCH  10   2
ATOM      2  O   UNL     1       9.603   9.981   4.191  0.00  0.00    -0.389 OA
ATOM     26  H   UNL     1      10.394  10.112   3.638  0.00  0.00    +0.210 HD
ENDBRANCH  10   2
TORSDOF 6
ENDMDL
MODEL 4
REMARK VINA RESULT:      -6.1      1.721      2.189
REMARK  Name = 75536053
REMARK  7 active torsions:
REMARK  status: ('A' for Active; 'I' for Inactive)
REMARK    1  A    between atoms: O_1  and  C_8
REMARK    2  A    between atoms: O_2  and  C_10
REMARK    3  A    between atoms: O_4  and  C_22
REMARK    4  A    between atoms: O_4  and  C_23
REMARK    5  A    between atoms: N_5  and  C_6
REMARK    6  A    between atoms: C_7  and  C_12
REMARK    7  A    between atoms: C_11  and  C_15
REMARK                            x       y       z     vdW  Elec       q    Type
REMARK                         _______ _______ _______ _____ _____    ______ ____
ROOT
ATOM      6  C   UNL     1      12.181   8.697  21.175  0.00  0.00    +0.111 C 
ATOM      7  C   UNL     1      13.146   8.288  20.040  0.00  0.00    +0.044 C 
ATOM      8  C   UNL     1      10.952   7.824  20.930  0.00  0.00    +0.164 C 
ATOM      9  C   UNL     1      12.706   6.867  19.603  0.00  0.00    +0.044 C 
ATOM     10  C   UNL     1      11.554   6.483  20.529  0.00  0.00    +0.145 C 
ENDROOT
BRANCH   7  12
ATOM     12  C   UNL     1      14.604   8.396  20.434  0.00  0.00    -0.042 A 
ATOM     18  C   UNL     1      15.294   7.265  20.872  0.00  0.00    +0.007 A 
ATOM     19  C   UNL     1      15.257   9.626  20.360  0.00  0.00    +0.007 A 
ATOM     20  C   UNL     1      16.637   7.366  21.235  0.00  0.00    +0.046 A 
ATOM     21  C   UNL     1      16.600   9.726  20.723  0.00  0.00    +0.046 A 
ATOM     22  C   UNL     1      17.290   8.596  21.161  0.00  0.00    +0.120 A 
BRANCH  22   4
ATOM      4  O   UNL     1      18.600   8.693  21.516  0.00  0.00    -0.495 OA
ATOM     23  C   UNL     1      19.238   7.503  21.976  0.00  0.00    +0.277 C 
ENDBRANCH  22   4
ENDBRANCH   7  12
BRANCH   6   5
ATOM      3  O   UNL     1      11.103  10.327  23.324  0.00  0.00    -0.276 OA
ATOM      5  N   UNL     1      11.861  10.102  21.133  0.00  0.00    -0.309 N 
ATOM     15  C   UNL     1      11.348  10.799  22.217  0.00  0.00    +0.216 C 
ATOM     24  H   UNL     1      12.089  10.613  20.285  0.00  0.00    +0.149 HD
BRANCH  15  11
ATOM     11  C   UNL     1      11.129  12.249  21.910  0.00  0.00    +0.075 C 
ATOM     13  C   UNL     1      12.316  12.810  21.118  0.00  0.00    +0.013 C 
ATOM     14  C   UNL     1      11.051  13.068  23.200  0.00  0.00    +0.013 C 
ATOM     16  C   UNL     1      12.828  14.000  21.922  0.00  0.00    +0.001 C 
ATOM     17  C   UNL     1      12.436  13.678  23.353  0.00  0.00    +0.001 C 
ENDBRANCH  15  11
ENDBRANCH   6   5
BRANCH   8   1
ATOM      1  O   UNL     1      10.144   7.698  22.084  0.00  0.00    -0.387 OA
ATOM     25  H   UNL     1      10.737   7.561  22.842  0.00  0.00    +0.210 HD
ENDBRANCH   8   1
BRANCH  10   2
ATOM      2  O   UNL     1      12.087   5.805  21.663  0.00  0.00    -0.389 OA
ATOM     26  H   UNL     1      11.347   5.362  22.113  0.00  0.00    +0.210 HD
ENDBRANCH  10   2
TORSDOF 6
ENDMDL
MODEL 5
REMARK VINA RESULT:      -6.1     14.408     17.408
REMARK  Name = 75536053
REMARK  7 active torsions:
REMARK  status: ('A' for Active; 'I' for Inactive)
REMARK    1  A    between atoms: O_1  and  C_8
REMARK    2  A    between atoms: O_2  and  C_10
REMARK    3  A    between atoms: O_4  and  C_22
REMARK    4  A    between atoms: O_4  and  C_23
REMARK    5  A    between atoms: N_5  and  C_6
REMARK    6  A    between atoms: C_7  and  C_12
REMARK    7  A    between atoms: C_11  and  C_15
REMARK                            x       y       z     vdW  Elec       q    Type
REMARK                         _______ _______ _______ _____ _____    ______ ____
ROOT
ATOM      6  C   UNL     1      11.414   6.230   5.896  0.00  0.00    +0.111 C 
ATOM      7  C   UNL     1      10.131   6.351   5.043  0.00  0.00    +0.044 C 
ATOM      8  C   UNL     1      10.883   6.113   7.323  0.00  0.00    +0.164 C 
ATOM      9  C   UNL     1       8.998   5.720   5.892  0.00  0.00    +0.044 C 
ATOM     10  C   UNL     1       9.667   5.209   7.167  0.00  0.00    +0.145 C 
ENDROOT
BRANCH   7  12
ATOM     12  C   UNL     1      10.281   5.753   3.660  0.00  0.00    -0.042 A 
ATOM     18  C   UNL     1       9.888   6.483   2.538  0.00  0.00    +0.007 A 
ATOM     19  C   UNL     1      10.811   4.472   3.509  0.00  0.00    +0.007 A 
ATOM     20  C   UNL     1      10.026   5.930   1.264  0.00  0.00    +0.046 A 
ATOM     21  C   UNL     1      10.950   3.920   2.235  0.00  0.00    +0.046 A 
ATOM     22  C   UNL     1      10.557   4.649   1.113  0.00  0.00    +0.120 A 
BRANCH  22   4
ATOM      4  O   UNL     1      10.692   4.111  -0.130  0.00  0.00    -0.495 OA
ATOM     23  C   UNL     1      12.009   3.746  -0.540  0.00  0.00    +0.277 C 
ENDBRANCH  22   4
ENDBRANCH   7  12
BRANCH   6   5
ATOM      3  O   UNL     1      14.084   6.588   6.982  0.00  0.00    -0.276 OA
ATOM      5  N   UNL     1      12.280   7.372   5.735  0.00  0.00    -0.309 N 
ATOM     15  C   UNL     1      13.546   7.452   6.295  0.00  0.00    +0.216 C 
ATOM     24  H   UNL     1      11.965   8.121   5.126  0.00  0.00    +0.149 HD
BRANCH  15  11
ATOM     11  C   UNL     1      14.241   8.735   5.952  0.00  0.00    +0.075 C 
ATOM     13  C   UNL     1      13.927   9.140   4.507  0.00  0.00    +0.013 C 
ATOM     14  C   UNL     1      15.759   8.564   6.028  0.00  0.00    +0.013 C 
ATOM     16  C   UNL     1      15.277   9.290   3.814  0.00  0.00    +0.001 C 
ATOM     17  C   UNL     1      16.196   8.359   4.585  0.00  0.00    +0.001 C 
ENDBRANCH  15  11
ENDBRANCH   6   5
BRANCH   8   1
ATOM      1  O   UNL     1      11.833   5.545   8.204  0.00  0.00    -0.387 OA
ATOM     25  H   UNL     1      11.394   5.414   9.062  0.00  0.00    +0.210 HD
ENDBRANCH   8   1
BRANCH  10   2
ATOM      2  O   UNL     1      10.062   3.855   6.962  0.00  0.00    -0.389 OA
ATOM     26  H   UNL     1       9.527   3.503   6.229  0.00  0.00    +0.210 HD
ENDBRANCH  10   2
TORSDOF 6
ENDMDL
MODEL 6
REMARK VINA RESULT:      -5.9     26.750     28.331
REMARK  Name = 75536053
REMARK  7 active torsions:
REMARK  status: ('A' for Active; 'I' for Inactive)
REMARK    1  A    between atoms: O_1  and  C_8
REMARK    2  A    between atoms: O_2  and  C_10
REMARK    3  A    between atoms: O_4  and  C_22
REMARK    4  A    between atoms: O_4  and  C_23
REMARK    5  A    between atoms: N_5  and  C_6
REMARK    6  A    between atoms: C_7  and  C_12
REMARK    7  A    between atoms: C_11  and  C_15
REMARK                            x       y       z     vdW  Elec       q    Type
REMARK                         _______ _______ _______ _____ _____    ______ ____
ROOT
ATOM      6  C   UNL     1      -3.483 -11.244  13.567  0.00  0.00    +0.111 C 
ATOM      7  C   UNL     1      -2.981 -10.606  14.882  0.00  0.00    +0.044 C 
ATOM      8  C   UNL     1      -2.219 -11.846  12.958  0.00  0.00    +0.164 C 
ATOM      9  C   UNL     1      -1.670 -11.352  15.240  0.00  0.00    +0.044 C 
ATOM     10  C   UNL     1      -1.493 -12.424  14.166  0.00  0.00    +0.145 C 
ENDROOT
BRANCH   7  12
ATOM     12  C   UNL     1      -4.023 -10.614  15.980  0.00  0.00    -0.042 A 
ATOM     18  C   UNL     1      -5.249  -9.978  15.783  0.00  0.00    +0.007 A 
ATOM     19  C   UNL     1      -3.756 -11.256  17.190  0.00  0.00    +0.007 A 
ATOM     20  C   UNL     1      -6.208  -9.986  16.796  0.00  0.00    +0.046 A 
ATOM     21  C   UNL     1      -4.716 -11.264  18.202  0.00  0.00    +0.046 A 
ATOM     22  C   UNL     1      -5.942 -10.628  18.005  0.00  0.00    +0.120 A 
BRANCH  22   4
ATOM      4  O   UNL     1      -6.879 -10.636  18.992  0.00  0.00    -0.495 OA
ATOM     23  C   UNL     1      -7.116 -11.878  19.652  0.00  0.00    +0.277 C 
ENDBRANCH  22   4
ENDBRANCH   7  12
BRANCH   6   5
ATOM      3  O   UNL     1      -5.475 -11.728  11.509  0.00  0.00    -0.276 OA
ATOM      5  N   UNL     1      -4.094 -10.274  12.694  0.00  0.00    -0.309 N 
ATOM     15  C   UNL     1      -5.042 -10.601  11.735  0.00  0.00    +0.216 C 
ATOM     24  H   UNL     1      -3.861  -9.296  12.839  0.00  0.00    +0.149 HD
BRANCH  15  11
ATOM     11  C   UNL     1      -5.529  -9.401  10.982  0.00  0.00    +0.075 C 
ATOM     13  C   UNL     1      -6.471  -9.830   9.851  0.00  0.00    +0.013 C 
ATOM     14  C   UNL     1      -4.362  -8.673  10.314  0.00  0.00    +0.013 C 
ATOM     16  C   UNL     1      -5.876  -9.251   8.572  0.00  0.00    +0.001 C 
ATOM     17  C   UNL     1      -4.390  -9.146   8.868  0.00  0.00    +0.001 C 
ENDBRANCH  15  11
ENDBRANCH   6   5
BRANCH   8   1
ATOM      1  O   UNL     1      -2.508 -12.852  12.005  0.00  0.00    -0.387 OA
ATOM     25  H   UNL     1      -3.342 -12.608  11.568  0.00  0.00    +0.210 HD
ENDBRANCH   8   1
BRANCH  10   2
ATOM      2  O   UNL     1      -2.119 -13.623  14.611  0.00  0.00    -0.389 OA
ATOM     26  H   UNL     1      -1.908 -13.730  15.555  0.00  0.00    +0.210 HD
ENDBRANCH  10   2
TORSDOF 6
ENDMDL
MODEL 7
REMARK VINA RESULT:      -5.9      4.859     10.390
REMARK  Name = 75536053
REMARK  7 active torsions:
REMARK  status: ('A' for Active; 'I' for Inactive)
REMARK    1  A    between atoms: O_1  and  C_8
REMARK    2  A    between atoms: O_2  and  C_10
REMARK    3  A    between atoms: O_4  and  C_22
REMARK    4  A    between atoms: O_4  and  C_23
REMARK    5  A    between atoms: N_5  and  C_6
REMARK    6  A    between atoms: C_7  and  C_12
REMARK    7  A    between atoms: C_11  and  C_15
REMARK                            x       y       z     vdW  Elec       q    Type
REMARK                         _______ _______ _______ _____ _____    ______ ____
ROOT
ATOM      6  C   UNL     1      21.039   5.757  22.540  0.00  0.00    +0.111 C 
ATOM      7  C   UNL     1      20.516   7.029  21.835  0.00  0.00    +0.044 C 
ATOM      8  C   UNL     1      21.821   6.307  23.732  0.00  0.00    +0.164 C 
ATOM      9  C   UNL     1      20.500   8.137  22.919  0.00  0.00    +0.044 C 
ATOM     10  C   UNL     1      20.952   7.462  24.213  0.00  0.00    +0.145 C 
ENDROOT
BRANCH   7  12
ATOM     12  C   UNL     1      19.188   6.817  21.140  0.00  0.00    -0.042 A 
ATOM     18  C   UNL     1      19.086   5.899  20.095  0.00  0.00    +0.007 A 
ATOM     19  C   UNL     1      18.066   7.541  21.544  0.00  0.00    +0.007 A 
ATOM     20  C   UNL     1      17.862   5.704  19.455  0.00  0.00    +0.046 A 
ATOM     21  C   UNL     1      16.842   7.346  20.905  0.00  0.00    +0.046 A 
ATOM     22  C   UNL     1      16.740   6.428  19.860  0.00  0.00    +0.120 A 
BRANCH  22   4
ATOM      4  O   UNL     1      15.546   6.237  19.236  0.00  0.00    -0.495 OA
ATOM     23  C   UNL     1      14.916   7.389  18.674  0.00  0.00    +0.277 C 
ENDBRANCH  22   4
ENDBRANCH   7  12
BRANCH   6   5
ATOM      3  O   UNL     1      21.934   3.028  22.971  0.00  0.00    -0.276 OA
ATOM      5  N   UNL     1      21.869   4.960  21.673  0.00  0.00    -0.309 N 
ATOM     15  C   UNL     1      22.247   3.658  21.964  0.00  0.00    +0.216 C 
ATOM     24  H   UNL     1      22.132   5.357  20.775  0.00  0.00    +0.149 HD
BRANCH  15  11
ATOM     11  C   UNL     1      23.089   3.052  20.883  0.00  0.00    +0.075 C 
ATOM     13  C   UNL     1      23.824   1.816  21.412  0.00  0.00    +0.013 C 
ATOM     14  C   UNL     1      24.172   4.033  20.430  0.00  0.00    +0.013 C 
ATOM     16  C   UNL     1      25.306   2.072  21.158  0.00  0.00    +0.001 C 
ATOM     17  C   UNL     1      25.427   3.585  21.164  0.00  0.00    +0.001 C 
ENDBRANCH  15  11
ENDBRANCH   6   5
BRANCH   8   1
ATOM      1  O   UNL     1      21.997   5.340  24.750  0.00  0.00    -0.387 OA
ATOM     25  H   UNL     1      22.312   4.524  24.327  0.00  0.00    +0.210 HD
ENDBRANCH   8   1
BRANCH  10   2
ATOM      2  O   UNL     1      19.801   6.982  24.902  0.00  0.00    -0.389 OA
ATOM     26  H   UNL     1      19.443   6.237  24.389  0.00  0.00    +0.210 HD
ENDBRANCH  10   2
TORSDOF 6
ENDMDL
MODEL 8
REMARK VINA RESULT:      -5.6     26.802     29.047
REMARK  Name = 75536053
REMARK  7 active torsions:
REMARK  status: ('A' for Active; 'I' for Inactive)
REMARK    1  A    between atoms: O_1  and  C_8
REMARK    2  A    between atoms: O_2  and  C_10
REMARK    3  A    between atoms: O_4  and  C_22
REMARK    4  A    between atoms: O_4  and  C_23
REMARK    5  A    between atoms: N_5  and  C_6
REMARK    6  A    between atoms: C_7  and  C_12
REMARK    7  A    between atoms: C_11  and  C_15
REMARK                            x       y       z     vdW  Elec       q    Type
REMARK                         _______ _______ _______ _____ _____    ______ ____
ROOT
ATOM      6  C   UNL     1      -4.727 -11.819  17.082  0.00  0.00    +0.111 C 
ATOM      7  C   UNL     1      -5.444 -10.468  17.308  0.00  0.00    +0.044 C 
ATOM      8  C   UNL     1      -4.325 -12.249  18.492  0.00  0.00    +0.164 C 
ATOM      9  C   UNL     1      -5.929 -10.489  18.780  0.00  0.00    +0.044 C 
ATOM     10  C   UNL     1      -5.534 -11.858  19.331  0.00  0.00    +0.145 C 
ENDROOT
BRANCH   7  12
ATOM     12  C   UNL     1      -6.536 -10.201  16.295  0.00  0.00    -0.042 A 
ATOM     18  C   UNL     1      -7.836  -9.936  16.724  0.00  0.00    +0.007 A 
ATOM     19  C   UNL     1      -6.242 -10.220  14.931  0.00  0.00    +0.007 A 
ATOM     20  C   UNL     1      -8.842  -9.690  15.789  0.00  0.00    +0.046 A 
ATOM     21  C   UNL     1      -7.247  -9.974  13.997  0.00  0.00    +0.046 A 
ATOM     22  C   UNL     1      -8.548  -9.709  14.426  0.00  0.00    +0.120 A 
BRANCH  22   4
ATOM      4  O   UNL     1      -9.530  -9.469  13.515  0.00  0.00    -0.495 OA
ATOM     23  C   UNL     1     -10.760  -8.942  14.010  0.00  0.00    +0.277 C 
ENDBRANCH  22   4
ENDBRANCH   7  12
BRANCH   6   5
ATOM      3  O   UNL     1      -4.006 -13.522  14.843  0.00  0.00    -0.276 OA
ATOM      5  N   UNL     1      -3.585 -11.687  16.213  0.00  0.00    -0.309 N 
ATOM     15  C   UNL     1      -3.322 -12.554  15.163  0.00  0.00    +0.216 C 
ATOM     24  H   UNL     1      -2.985 -10.878  16.342  0.00  0.00    +0.149 HD
BRANCH  15  11
ATOM     11  C   UNL     1      -2.086 -12.175  14.405  0.00  0.00    +0.075 C 
ATOM     13  C   UNL     1      -2.007 -10.652  14.246  0.00  0.00    +0.013 C 
ATOM     14  C   UNL     1      -2.123 -12.752  12.989  0.00  0.00    +0.013 C 
ATOM     16  C   UNL     1      -1.899 -10.396  12.747  0.00  0.00    +0.001 C 
ATOM     17  C   UNL     1      -2.582 -11.594  12.114  0.00  0.00    +0.001 C 
ENDBRANCH  15  11
ENDBRANCH   6   5
BRANCH   8   1
ATOM      1  O   UNL     1      -4.070 -13.638  18.577  0.00  0.00    -0.387 OA
ATOM     25  H   UNL     1      -4.656 -14.082  17.941  0.00  0.00    +0.210 HD
ENDBRANCH   8   1
BRANCH  10   2
ATOM      2  O   UNL     1      -6.615 -12.762  19.121  0.00  0.00    -0.389 OA
ATOM     26  H   UNL     1      -6.507 -13.498  19.749  0.00  0.00    +0.210 HD
ENDBRANCH  10   2
TORSDOF 6
ENDMDL
MODEL 9
REMARK VINA RESULT:      -5.6     28.402     30.870
REMARK  Name = 75536053
REMARK  7 active torsions:
REMARK  status: ('A' for Active; 'I' for Inactive)
REMARK    1  A    between atoms: O_1  and  C_8
REMARK    2  A    between atoms: O_2  and  C_10
REMARK    3  A    between atoms: O_4  and  C_22
REMARK    4  A    between atoms: O_4  and  C_23
REMARK    5  A    between atoms: N_5  and  C_6
REMARK    6  A    between atoms: C_7  and  C_12
REMARK    7  A    between atoms: C_11  and  C_15
REMARK                            x       y       z     vdW  Elec       q    Type
REMARK                         _______ _______ _______ _____ _____    ______ ____
ROOT
ATOM      6  C   UNL     1      -9.884 -10.978  19.119  0.00  0.00    +0.111 C 
ATOM      7  C   UNL     1     -10.761  -9.716  19.281  0.00  0.00    +0.044 C 
ATOM      8  C   UNL     1     -10.391 -11.908  20.220  0.00  0.00    +0.164 C 
ATOM      9  C   UNL     1     -12.048 -10.186  20.007  0.00  0.00    +0.044 C 
ATOM     10  C   UNL     1     -11.899 -11.696  20.185  0.00  0.00    +0.145 C 
ENDROOT
BRANCH   7  12
ATOM     12  C   UNL     1     -11.011  -8.996  17.973  0.00  0.00    -0.042 A 
ATOM     18  C   UNL     1     -10.051  -8.122  17.464  0.00  0.00    +0.007 A 
ATOM     19  C   UNL     1     -12.201  -9.208  17.277  0.00  0.00    +0.007 A 
ATOM     20  C   UNL     1     -10.282  -7.459  16.258  0.00  0.00    +0.046 A 
ATOM     21  C   UNL     1     -12.431  -8.545  16.071  0.00  0.00    +0.046 A 
ATOM     22  C   UNL     1     -11.472  -7.671  15.562  0.00  0.00    +0.120 A 
BRANCH  22   4
ATOM      4  O   UNL     1     -11.696  -7.024  14.386  0.00  0.00    -0.495 OA
ATOM     23  C   UNL     1     -11.984  -5.628  14.457  0.00  0.00    +0.277 C 
ENDBRANCH  22   4
ENDBRANCH   7  12
BRANCH   6   5
ATOM      3  O   UNL     1      -7.809 -11.212  17.100  0.00  0.00    -0.276 OA
ATOM      5  N   UNL     1      -8.481 -10.684  19.267  0.00  0.00    -0.309 N 
ATOM     15  C   UNL     1      -7.560 -10.827  18.239  0.00  0.00    +0.216 C 
ATOM     24  H   UNL     1      -8.171 -10.290  20.150  0.00  0.00    +0.149 HD
BRANCH  15  11
ATOM     11  C   UNL     1      -6.176 -10.430  18.653  0.00  0.00    +0.075 C 
ATOM     13  C   UNL     1      -5.232 -10.456  17.446  0.00  0.00    +0.013 C 
ATOM     14  C   UNL     1      -5.608 -11.429  19.663  0.00  0.00    +0.013 C 
ATOM     16  C   UNL     1      -4.091 -11.391  17.831  0.00  0.00    +0.001 C 
ATOM     17  C   UNL     1      -4.713 -12.342  18.838  0.00  0.00    +0.001 C 
ENDBRANCH  15  11
ENDBRANCH   6   5
BRANCH   8   1
ATOM      1  O   UNL     1     -10.058 -13.261  19.975  0.00  0.00    -0.387 OA
ATOM     25  H   UNL     1      -9.763 -13.326  19.051  0.00  0.00    +0.210 HD
ENDBRANCH   8   1
BRANCH  10   2
ATOM      2  O   UNL     1     -12.479 -12.346  19.058  0.00  0.00    -0.389 OA
ATOM     26  H   UNL     1     -13.304 -11.878  18.843  0.00  0.00    +0.210 HD
ENDBRANCH  10   2
TORSDOF 6
ENDMDL
MODEL 10
REMARK VINA RESULT:      -5.6     26.904     28.925
REMARK  Name = 75536053
REMARK  7 active torsions:
REMARK  status: ('A' for Active; 'I' for Inactive)
REMARK    1  A    between atoms: O_1  and  C_8
REMARK    2  A    between atoms: O_2  and  C_10
REMARK    3  A    between atoms: O_4  and  C_22
REMARK    4  A    between atoms: O_4  and  C_23
REMARK    5  A    between atoms: N_5  and  C_6
REMARK    6  A    between atoms: C_7  and  C_12
REMARK    7  A    between atoms: C_11  and  C_15
REMARK                            x       y       z     vdW  Elec       q    Type
REMARK                         _______ _______ _______ _____ _____    ______ ____
ROOT
ATOM      6  C   UNL     1      -7.820 -10.700  17.877  0.00  0.00    +0.111 C 
ATOM      7  C   UNL     1      -7.008 -11.891  17.318  0.00  0.00    +0.044 C 
ATOM      8  C   UNL     1      -8.528 -11.292  19.095  0.00  0.00    +0.164 C 
ATOM      9  C   UNL     1      -6.814 -12.865  18.508  0.00  0.00    +0.044 C 
ATOM     10  C   UNL     1      -7.461 -12.186  19.714  0.00  0.00    +0.145 C 
ENDROOT
BRANCH   7  12
ATOM     12  C   UNL     1      -5.722 -11.465  16.644  0.00  0.00    -0.042 A 
ATOM     18  C   UNL     1      -4.536 -11.407  17.377  0.00  0.00    +0.007 A 
ATOM     19  C   UNL     1      -5.721 -11.130  15.290  0.00  0.00    +0.007 A 
ATOM     20  C   UNL     1      -3.351 -11.014  16.755  0.00  0.00    +0.046 A 
ATOM     21  C   UNL     1      -4.536 -10.738  14.668  0.00  0.00    +0.046 A 
ATOM     22  C   UNL     1      -3.351 -10.680  15.401  0.00  0.00    +0.120 A 
BRANCH  22   4
ATOM      4  O   UNL     1      -2.194 -10.297  14.795  0.00  0.00    -0.495 OA
ATOM     23  C   UNL     1      -1.008 -10.317  15.588  0.00  0.00    +0.277 C 
ENDBRANCH  22   4
ENDBRANCH   7  12
BRANCH   6   5
ATOM      3  O   UNL     1      -9.042  -8.065  17.839  0.00  0.00    -0.276 OA
ATOM      5  N   UNL     1      -8.756 -10.182  16.911  0.00  0.00    -0.309 N 
ATOM     15  C   UNL     1      -9.288  -8.903  16.975  0.00  0.00    +0.216 C 
ATOM     24  H   UNL     1      -8.979 -10.765  16.109  0.00  0.00    +0.149 HD
BRANCH  15  11
ATOM     11  C   UNL     1     -10.214  -8.612  15.834  0.00  0.00    +0.075 C 
ATOM     13  C   UNL     1     -10.436  -7.101  15.702  0.00  0.00    +0.013 C 
ATOM     14  C   UNL     1     -11.592  -9.226  16.087  0.00  0.00    +0.013 C 
ATOM     16  C   UNL     1     -11.944  -6.893  15.780  0.00  0.00    +0.001 C 
ATOM     17  C   UNL     1     -12.439  -8.071  16.600  0.00  0.00    +0.001 C 
ENDBRANCH  15  11
ENDBRANCH   6   5
BRANCH   8   1
ATOM      1  O   UNL     1      -8.952 -10.296  20.006  0.00  0.00    -0.387 OA
ATOM     25  H   UNL     1      -9.525 -10.727  20.663  0.00  0.00    +0.210 HD
ENDBRANCH   8   1
BRANCH  10   2
ATOM      2  O   UNL     1      -6.472 -11.411  20.384  0.00  0.00    -0.389 OA
ATOM     26  H   UNL     1      -6.860 -10.537  20.567  0.00  0.00    +0.210 HD
ENDBRANCH  10   2
TORSDOF 6
ENDMDL
