MODEL 1
REMARK VINA RESULT:      -6.9      0.000      0.000
REMARK  Name = 44716212
REMARK  6 active torsions:
REMARK  status: ('A' for Active; 'I' for Inactive)
REMARK    1  A    between atoms: N_3  and  C_15
REMARK    2  A    between atoms: N_4  and  C_18
REMARK    3  A    between atoms: N_4  and  C_19
REMARK    4  A    between atoms: C_9  and  C_16
REMARK    5  A    between atoms: C_10  and  C_15
REMARK    6  A    between atoms: C_20  and  C_21
REMARK                            x       y       z     vdW  Elec       q    Type
REMARK                         _______ _______ _______ _____ _____    ______ ____
ROOT
ATOM      2  N   UNL     1      13.261   8.021  21.580  0.00  0.00    -0.297 NA
ATOM      8  C   UNL     1      11.894   9.559  19.987  0.00  0.00    +0.005 C 
ATOM      9  C   UNL     1      12.535  10.367  21.132  0.00  0.00    +0.092 C 
ATOM     10  C   UNL     1      13.913   8.086  20.243  0.00  0.00    +0.078 C 
ATOM     11  C   UNL     1      13.034   8.857  19.229  0.00  0.00    +0.025 C 
ATOM     12  C   UNL     1      11.011   8.444  20.578  0.00  0.00    +0.020 C 
ATOM     13  C   UNL     1      13.193   9.398  22.133  0.00  0.00    +0.097 C 
ATOM     14  C   UNL     1      11.872   7.523  21.457  0.00  0.00    +0.085 C 
ENDROOT
BRANCH   9  16
ATOM      1  O   UNL     1      10.808  10.781  22.689  0.00  0.00    -0.275 OA
ATOM      4  N   UNL     1      11.492  12.584  21.392  0.00  0.00    -0.307 N 
ATOM     16  C   UNL     1      11.534  11.254  21.811  0.00  0.00    +0.220 C 
ATOM     18  C   UNL     1      12.371  13.103  20.348  0.00  0.00    +0.131 C 
ATOM     19  C   UNL     1      10.567  13.553  21.966  0.00  0.00    +0.131 C 
ENDBRANCH   9  16
BRANCH  10  15
ATOM     15  C   UNL     1      14.299   6.701  19.720  0.00  0.00    +0.164 C 
BRANCH  15   3
ATOM      3  N   UNL     1      15.784   6.480  19.787  0.00  0.00    -0.250 N 
ATOM      5  N   UNL     1      16.435   5.889  18.771  0.00  0.00    -0.065 NA
ATOM      6  N   UNL     1      17.718   5.828  19.108  0.00  0.00    -0.128 NA
ATOM     17  C   UNL     1      16.631   6.812  20.800  0.00  0.00    +0.140 A 
ATOM     20  C   UNL     1      17.855   6.388  20.347  0.00  0.00    +0.131 A 
BRANCH  20  21
ATOM      7  N   UNL     1      19.099   7.405  22.066  0.00  0.00    -0.253 NA
ATOM     21  C   UNL     1      19.090   6.510  21.053  0.00  0.00    +0.092 A 
ATOM     22  C   UNL     1      20.183   5.740  20.687  0.00  0.00    +0.030 A 
ATOM     23  C   UNL     1      21.360   5.899  21.409  0.00  0.00    +0.004 A 
ATOM     24  C   UNL     1      20.262   7.532  22.744  0.00  0.00    +0.111 A 
ATOM     25  C   UNL     1      21.410   6.810  22.458  0.00  0.00    +0.020 A 
ENDBRANCH  20  21
ENDBRANCH  15   3
ENDBRANCH  10  15
TORSDOF 4
ENDMDL
MODEL 2
REMARK VINA RESULT:      -6.2      4.150      5.911
REMARK  Name = 44716212
REMARK  6 active torsions:
REMARK  status: ('A' for Active; 'I' for Inactive)
REMARK    1  A    between atoms: N_3  and  C_15
REMARK    2  A    between atoms: N_4  and  C_18
REMARK    3  A    between atoms: N_4  and  C_19
REMARK    4  A    between atoms: C_9  and  C_16
REMARK    5  A    between atoms: C_10  and  C_15
REMARK    6  A    between atoms: C_20  and  C_21
REMARK                            x       y       z     vdW  Elec       q    Type
REMARK                         _______ _______ _______ _____ _____    ______ ____
ROOT
ATOM      2  N   UNL     1      13.690   9.135  21.172  0.00  0.00    -0.297 NA
ATOM      8  C   UNL     1      11.110   9.465  21.244  0.00  0.00    +0.005 C 
ATOM      9  C   UNL     1      11.849  10.696  21.806  0.00  0.00    +0.092 C 
ATOM     10  C   UNL     1      13.145   9.232  19.790  0.00  0.00    +0.078 C 
ATOM     11  C   UNL     1      11.598   9.260  19.799  0.00  0.00    +0.025 C 
ATOM     12  C   UNL     1      11.533   8.211  22.030  0.00  0.00    +0.020 C 
ATOM     13  C   UNL     1      13.356  10.390  21.894  0.00  0.00    +0.097 C 
ATOM     14  C   UNL     1      13.052   8.018  21.905  0.00  0.00    +0.085 C 
ENDROOT
BRANCH   9  16
ATOM      1  O   UNL     1      11.284  10.294  24.063  0.00  0.00    -0.275 OA
ATOM      4  N   UNL     1      10.830  12.420  23.242  0.00  0.00    -0.307 N 
ATOM     16  C   UNL     1      11.298  11.110  23.138  0.00  0.00    +0.220 C 
ATOM     18  C   UNL     1      10.866  13.355  22.120  0.00  0.00    +0.131 C 
ATOM     19  C   UNL     1      10.269  12.952  24.478  0.00  0.00    +0.131 C 
ENDBRANCH   9  16
BRANCH  10  15
ATOM     15  C   UNL     1      13.686   8.130  18.877  0.00  0.00    +0.164 C 
BRANCH  15   3
ATOM      3  N   UNL     1      13.898   8.627  17.475  0.00  0.00    -0.250 N 
ATOM      5  N   UNL     1      13.619   7.843  16.421  0.00  0.00    -0.065 NA
ATOM      6  N   UNL     1      13.902   8.540  15.326  0.00  0.00    -0.128 NA
ATOM     17  C   UNL     1      14.365   9.845  17.086  0.00  0.00    +0.140 A 
ATOM     20  C   UNL     1      14.360   9.768  15.715  0.00  0.00    +0.131 A 
BRANCH  20  21
ATOM      7  N   UNL     1      13.772  11.424  14.151  0.00  0.00    -0.253 NA
ATOM     21  C   UNL     1      14.768  10.805  14.822  0.00  0.00    +0.092 A 
ATOM     22  C   UNL     1      16.110  11.121  14.686  0.00  0.00    +0.030 A 
ATOM     23  C   UNL     1      16.451  12.140  13.803  0.00  0.00    +0.004 A 
ATOM     24  C   UNL     1      14.141  12.408  13.301  0.00  0.00    +0.111 A 
ATOM     25  C   UNL     1      15.454  12.800  13.093  0.00  0.00    +0.020 A 
ENDBRANCH  20  21
ENDBRANCH  15   3
ENDBRANCH  10  15
TORSDOF 4
ENDMDL
MODEL 3
REMARK VINA RESULT:      -6.2      4.263     10.148
REMARK  Name = 44716212
REMARK  6 active torsions:
REMARK  status: ('A' for Active; 'I' for Inactive)
REMARK    1  A    between atoms: N_3  and  C_15
REMARK    2  A    between atoms: N_4  and  C_18
REMARK    3  A    between atoms: N_4  and  C_19
REMARK    4  A    between atoms: C_9  and  C_16
REMARK    5  A    between atoms: C_10  and  C_15
REMARK    6  A    between atoms: C_20  and  C_21
REMARK                            x       y       z     vdW  Elec       q    Type
REMARK                         _______ _______ _______ _____ _____    ______ ____
ROOT
ATOM      2  N   UNL     1      21.059   5.371  22.603  0.00  0.00    -0.297 NA
ATOM      8  C   UNL     1      23.153   5.937  21.165  0.00  0.00    +0.005 C 
ATOM      9  C   UNL     1      23.007   4.416  21.369  0.00  0.00    +0.092 C 
ATOM     10  C   UNL     1      20.643   5.931  21.288  0.00  0.00    +0.078 C 
ATOM     11  C   UNL     1      21.865   6.431  20.481  0.00  0.00    +0.025 C 
ATOM     12  C   UNL     1      23.213   6.635  22.537  0.00  0.00    +0.020 C 
ATOM     13  C   UNL     1      21.857   4.142  22.356  0.00  0.00    +0.097 C 
ATOM     14  C   UNL     1      21.930   6.327  23.323  0.00  0.00    +0.085 C 
ENDROOT
BRANCH   9  16
ATOM      1  O   UNL     1      24.505   3.710  23.054  0.00  0.00    -0.275 OA
ATOM      4  N   UNL     1      25.171   3.353  20.856  0.00  0.00    -0.307 N 
ATOM     16  C   UNL     1      24.290   3.798  21.842  0.00  0.00    +0.220 C 
ATOM     18  C   UNL     1      24.875   3.475  19.431  0.00  0.00    +0.131 C 
ATOM     19  C   UNL     1      26.450   2.734  21.176  0.00  0.00    +0.131 C 
ENDBRANCH   9  16
BRANCH  10  15
ATOM     15  C   UNL     1      19.577   7.018  21.434  0.00  0.00    +0.164 C 
BRANCH  15   3
ATOM      3  N   UNL     1      18.375   6.732  20.580  0.00  0.00    -0.250 N 
ATOM      5  N   UNL     1      18.424   5.795  19.620  0.00  0.00    -0.065 NA
ATOM      6  N   UNL     1      17.231   5.765  19.037  0.00  0.00    -0.128 NA
ATOM     17  C   UNL     1      17.152   7.327  20.639  0.00  0.00    +0.140 A 
ATOM     20  C   UNL     1      16.440   6.697  19.648  0.00  0.00    +0.131 A 
BRANCH  20  21
ATOM      7  N   UNL     1      14.171   6.724  20.272  0.00  0.00    -0.253 NA
ATOM     21  C   UNL     1      15.081   6.964  19.302  0.00  0.00    +0.092 A 
ATOM     22  C   UNL     1      14.763   7.440  18.040  0.00  0.00    +0.030 A 
ATOM     23  C   UNL     1      13.423   7.683  17.756  0.00  0.00    +0.004 A 
ATOM     24  C   UNL     1      12.880   6.972  19.960  0.00  0.00    +0.111 A 
ATOM     25  C   UNL     1      12.458   7.447  18.728  0.00  0.00    +0.020 A 
ENDBRANCH  20  21
ENDBRANCH  15   3
ENDBRANCH  10  15
TORSDOF 4
ENDMDL
MODEL 4
REMARK VINA RESULT:      -6.1      3.446      9.115
REMARK  Name = 44716212
REMARK  6 active torsions:
REMARK  status: ('A' for Active; 'I' for Inactive)
REMARK    1  A    between atoms: N_3  and  C_15
REMARK    2  A    between atoms: N_4  and  C_18
REMARK    3  A    between atoms: N_4  and  C_19
REMARK    4  A    between atoms: C_9  and  C_16
REMARK    5  A    between atoms: C_10  and  C_15
REMARK    6  A    between atoms: C_20  and  C_21
REMARK                            x       y       z     vdW  Elec       q    Type
REMARK                         _______ _______ _______ _____ _____    ______ ____
ROOT
ATOM      2  N   UNL     1      19.820   7.934  22.541  0.00  0.00    -0.297 NA
ATOM      8  C   UNL     1      20.892   6.295  20.827  0.00  0.00    +0.005 C 
ATOM      9  C   UNL     1      20.952   5.727  22.259  0.00  0.00    +0.092 C 
ATOM     10  C   UNL     1      18.777   7.389  21.629  0.00  0.00    +0.078 C 
ATOM     11  C   UNL     1      19.409   6.544  20.497  0.00  0.00    +0.025 C 
ATOM     12  C   UNL     1      21.584   7.669  20.791  0.00  0.00    +0.020 C 
ATOM     13  C   UNL     1      20.458   6.796  23.252  0.00  0.00    +0.097 C 
ATOM     14  C   UNL     1      20.879   8.622  21.767  0.00  0.00    +0.085 C 
ENDROOT
BRANCH   9  16
ATOM      1  O   UNL     1      23.066   5.985  23.281  0.00  0.00    -0.275 OA
ATOM      4  N   UNL     1      22.700   3.994  22.138  0.00  0.00    -0.307 N 
ATOM     16  C   UNL     1      22.333   5.255  22.608  0.00  0.00    +0.220 C 
ATOM     18  C   UNL     1      21.800   3.163  21.344  0.00  0.00    +0.131 C 
ATOM     19  C   UNL     1      24.011   3.416  22.404  0.00  0.00    +0.131 C 
ENDBRANCH   9  16
BRANCH  10  15
ATOM     15  C   UNL     1      17.865   8.485  21.075  0.00  0.00    +0.164 C 
BRANCH  15   3
ATOM      3  N   UNL     1      16.455   7.995  20.903  0.00  0.00    -0.250 N 
ATOM      5  N   UNL     1      16.151   7.107  19.943  0.00  0.00    -0.065 NA
ATOM      6  N   UNL     1      14.848   6.864  20.029  0.00  0.00    -0.128 NA
ATOM     17  C   UNL     1      15.357   8.345  21.629  0.00  0.00    +0.140 A 
ATOM     20  C   UNL     1      14.346   7.614  21.056  0.00  0.00    +0.131 A 
BRANCH  20  21
ATOM      7  N   UNL     1      12.552   8.767  22.050  0.00  0.00    -0.253 NA
ATOM     21  C   UNL     1      12.978   7.627  21.463  0.00  0.00    +0.092 A 
ATOM     22  C   UNL     1      12.176   6.517  21.249  0.00  0.00    +0.030 A 
ATOM     23  C   UNL     1      10.851   6.584  21.665  0.00  0.00    +0.004 A 
ATOM     24  C   UNL     1      11.259   8.795  22.441  0.00  0.00    +0.111 A 
ATOM     25  C   UNL     1      10.375   7.740  22.274  0.00  0.00    +0.020 A 
ENDBRANCH  20  21
ENDBRANCH  15   3
ENDBRANCH  10  15
TORSDOF 4
ENDMDL
MODEL 5
REMARK VINA RESULT:      -6.1     27.566     29.296
REMARK  Name = 44716212
REMARK  6 active torsions:
REMARK  status: ('A' for Active; 'I' for Inactive)
REMARK    1  A    between atoms: N_3  and  C_15
REMARK    2  A    between atoms: N_4  and  C_18
REMARK    3  A    between atoms: N_4  and  C_19
REMARK    4  A    between atoms: C_9  and  C_16
REMARK    5  A    between atoms: C_10  and  C_15
REMARK    6  A    between atoms: C_20  and  C_21
REMARK                            x       y       z     vdW  Elec       q    Type
REMARK                         _______ _______ _______ _____ _____    ______ ____
ROOT
ATOM      2  N   UNL     1      -5.020 -11.157  10.877  0.00  0.00    -0.297 NA
ATOM      8  C   UNL     1      -4.871  -9.543   8.842  0.00  0.00    +0.005 C 
ATOM      9  C   UNL     1      -6.289  -9.552   9.447  0.00  0.00    +0.092 C 
ATOM     10  C   UNL     1      -4.142  -9.999  11.202  0.00  0.00    +0.078 C 
ATOM     11  C   UNL     1      -3.901  -9.112   9.957  0.00  0.00    +0.025 C 
ATOM     12  C   UNL     1      -4.473 -10.976   8.446  0.00  0.00    +0.020 C 
ATOM     13  C   UNL     1      -6.370 -10.637  10.538  0.00  0.00    +0.097 C 
ATOM     14  C   UNL     1      -4.511 -11.878   9.689  0.00  0.00    +0.085 C 
ENDROOT
BRANCH   9  16
ATOM      1  O   UNL     1      -7.567 -10.900   7.989  0.00  0.00    -0.275 OA
ATOM      4  N   UNL     1      -7.996  -8.617   7.936  0.00  0.00    -0.307 N 
ATOM     16  C   UNL     1      -7.337  -9.758   8.394  0.00  0.00    +0.220 C 
ATOM     18  C   UNL     1      -7.693  -7.282   8.445  0.00  0.00    +0.131 C 
ATOM     19  C   UNL     1      -9.035  -8.675   6.916  0.00  0.00    +0.131 C 
ENDBRANCH   9  16
BRANCH  10  15
ATOM     15  C   UNL     1      -2.826 -10.436  11.849  0.00  0.00    +0.164 C 
BRANCH  15   3
ATOM      3  N   UNL     1      -2.940 -10.502  13.346  0.00  0.00    -0.250 N 
ATOM      5  N   UNL     1      -1.842 -10.477  14.118  0.00  0.00    -0.065 NA
ATOM      6  N   UNL     1      -2.247 -10.549  15.381  0.00  0.00    -0.128 NA
ATOM     17  C   UNL     1      -4.076 -10.590  14.091  0.00  0.00    +0.140 A 
ATOM     20  C   UNL     1      -3.612 -10.618  15.382  0.00  0.00    +0.131 A 
BRANCH  20  21
ATOM      7  N   UNL     1      -5.631 -10.108  16.478  0.00  0.00    -0.253 NA
ATOM     21  C   UNL     1      -4.422 -10.707  16.555  0.00  0.00    +0.092 A 
ATOM     22  C   UNL     1      -3.956 -11.374  17.677  0.00  0.00    +0.030 A 
ATOM     23  C   UNL     1      -4.786 -11.429  18.791  0.00  0.00    +0.004 A 
ATOM     24  C   UNL     1      -6.409 -10.182  17.580  0.00  0.00    +0.111 A 
ATOM     25  C   UNL     1      -6.037 -10.824  18.750  0.00  0.00    +0.020 A 
ENDBRANCH  20  21
ENDBRANCH  15   3
ENDBRANCH  10  15
TORSDOF 4
ENDMDL
MODEL 6
REMARK VINA RESULT:      -6.0     27.051     29.353
REMARK  Name = 44716212
REMARK  6 active torsions:
REMARK  status: ('A' for Active; 'I' for Inactive)
REMARK    1  A    between atoms: N_3  and  C_15
REMARK    2  A    between atoms: N_4  and  C_18
REMARK    3  A    between atoms: N_4  and  C_19
REMARK    4  A    between atoms: C_9  and  C_16
REMARK    5  A    between atoms: C_10  and  C_15
REMARK    6  A    between atoms: C_20  and  C_21
REMARK                            x       y       z     vdW  Elec       q    Type
REMARK                         _______ _______ _______ _____ _____    ______ ____
ROOT
ATOM      2  N   UNL     1      -2.236 -11.413  14.416  0.00  0.00    -0.297 NA
ATOM      8  C   UNL     1      -4.810 -11.520  14.783  0.00  0.00    +0.005 C 
ATOM      9  C   UNL     1      -4.139 -10.570  15.795  0.00  0.00    +0.092 C 
ATOM     10  C   UNL     1      -2.946 -10.796  13.262  0.00  0.00    +0.078 C 
ATOM     11  C   UNL     1      -4.477 -10.996  13.374  0.00  0.00    +0.025 C 
ATOM     12  C   UNL     1      -4.174 -12.917  14.891  0.00  0.00    +0.020 C 
ATOM     13  C   UNL     1      -2.609 -10.666  15.646  0.00  0.00    +0.097 C 
ATOM     14  C   UNL     1      -2.669 -12.817  14.603  0.00  0.00    +0.085 C 
ENDROOT
BRANCH   9  16
ATOM      1  O   UNL     1      -3.823 -11.523  17.933  0.00  0.00    -0.275 OA
ATOM      4  N   UNL     1      -5.813 -10.373  17.593  0.00  0.00    -0.307 N 
ATOM     16  C   UNL     1      -4.569 -10.869  17.201  0.00  0.00    +0.220 C 
ATOM     18  C   UNL     1      -6.666  -9.600  16.693  0.00  0.00    +0.131 C 
ATOM     19  C   UNL     1      -6.352 -10.590  18.929  0.00  0.00    +0.131 C 
ENDBRANCH   9  16
BRANCH  10  15
ATOM     15  C   UNL     1      -2.407 -11.294  11.920  0.00  0.00    +0.164 C 
BRANCH  15   3
ATOM      3  N   UNL     1      -3.084 -10.612  10.765  0.00  0.00    -0.250 N 
ATOM      5  N   UNL     1      -2.913  -9.298  10.550  0.00  0.00    -0.065 NA
ATOM      6  N   UNL     1      -3.623  -8.978   9.475  0.00  0.00    -0.128 NA
ATOM     17  C   UNL     1      -3.907 -11.170   9.835  0.00  0.00    +0.140 A 
ATOM     20  C   UNL     1      -4.239 -10.112   9.024  0.00  0.00    +0.131 A 
BRANCH  20  21
ATOM      7  N   UNL     1      -6.101  -9.276   7.854  0.00  0.00    -0.253 NA
ATOM     21  C   UNL     1      -5.093 -10.177   7.882  0.00  0.00    +0.092 A 
ATOM     22  C   UNL     1      -4.865 -11.118   6.891  0.00  0.00    +0.030 A 
ATOM     23  C   UNL     1      -5.729 -11.136   5.802  0.00  0.00    +0.004 A 
ATOM     24  C   UNL     1      -6.919  -9.324   6.780  0.00  0.00    +0.111 A 
ATOM     25  C   UNL     1      -6.778 -10.226   5.737  0.00  0.00    +0.020 A 
ENDBRANCH  20  21
ENDBRANCH  15   3
ENDBRANCH  10  15
TORSDOF 4
ENDMDL
MODEL 7
REMARK VINA RESULT:      -6.0     27.689     29.209
REMARK  Name = 44716212
REMARK  6 active torsions:
REMARK  status: ('A' for Active; 'I' for Inactive)
REMARK    1  A    between atoms: N_3  and  C_15
REMARK    2  A    between atoms: N_4  and  C_18
REMARK    3  A    between atoms: N_4  and  C_19
REMARK    4  A    between atoms: C_9  and  C_16
REMARK    5  A    between atoms: C_10  and  C_15
REMARK    6  A    between atoms: C_20  and  C_21
REMARK                            x       y       z     vdW  Elec       q    Type
REMARK                         _______ _______ _______ _____ _____    ______ ____
ROOT
ATOM      2  N   UNL     1      -4.436 -10.644  17.297  0.00  0.00    -0.297 NA
ATOM      8  C   UNL     1      -6.080 -12.615  17.726  0.00  0.00    +0.005 C 
ATOM      9  C   UNL     1      -6.818 -11.262  17.715  0.00  0.00    +0.092 C 
ATOM     10  C   UNL     1      -4.545 -11.497  16.081  0.00  0.00    +0.078 C 
ATOM     11  C   UNL     1      -5.384 -12.767  16.362  0.00  0.00    +0.025 C 
ATOM     12  C   UNL     1      -4.963 -12.581  18.785  0.00  0.00    +0.020 C 
ATOM     13  C   UNL     1      -5.788 -10.120  17.622  0.00  0.00    +0.097 C 
ATOM     14  C   UNL     1      -3.981 -11.446  18.455  0.00  0.00    +0.085 C 
ENDROOT
BRANCH   9  16
ATOM      1  O   UNL     1      -7.192 -10.793  19.999  0.00  0.00    -0.275 OA
ATOM      4  N   UNL     1      -9.064 -11.323  18.728  0.00  0.00    -0.307 N 
ATOM     16  C   UNL     1      -7.700 -11.103  18.919  0.00  0.00    +0.220 C 
ATOM     18  C   UNL     1      -9.623 -11.688  17.429  0.00  0.00    +0.131 C 
ATOM     19  C   UNL     1     -10.031 -11.203  19.811  0.00  0.00    +0.131 C 
ENDBRANCH   9  16
BRANCH  10  15
ATOM     15  C   UNL     1      -3.176 -11.841  15.492  0.00  0.00    +0.164 C 
BRANCH  15   3
ATOM      3  N   UNL     1      -3.001 -11.253  14.120  0.00  0.00    -0.250 N 
ATOM      5  N   UNL     1      -1.872 -10.605  13.792  0.00  0.00    -0.065 NA
ATOM      6  N   UNL     1      -2.001 -10.200  12.534  0.00  0.00    -0.128 NA
ATOM     17  C   UNL     1      -3.883 -11.282  13.084  0.00  0.00    +0.140 A 
ATOM     20  C   UNL     1      -3.227 -10.606  12.085  0.00  0.00    +0.131 A 
BRANCH  20  21
ATOM      7  N   UNL     1      -4.104 -11.456  10.074  0.00  0.00    -0.253 NA
ATOM     21  C   UNL     1      -3.736 -10.360  10.774  0.00  0.00    +0.092 A 
ATOM     22  C   UNL     1      -3.829  -9.064  10.293  0.00  0.00    +0.030 A 
ATOM     23  C   UNL     1      -4.332  -8.882   9.010  0.00  0.00    +0.004 A 
ATOM     24  C   UNL     1      -4.588 -11.239   8.830  0.00  0.00    +0.111 A 
ATOM     25  C   UNL     1      -4.720  -9.985   8.257  0.00  0.00    +0.020 A 
ENDBRANCH  20  21
ENDBRANCH  15   3
ENDBRANCH  10  15
TORSDOF 4
ENDMDL
MODEL 8
REMARK VINA RESULT:      -5.8      6.050      8.652
REMARK  Name = 44716212
REMARK  6 active torsions:
REMARK  status: ('A' for Active; 'I' for Inactive)
REMARK    1  A    between atoms: N_3  and  C_15
REMARK    2  A    between atoms: N_4  and  C_18
REMARK    3  A    between atoms: N_4  and  C_19
REMARK    4  A    between atoms: C_9  and  C_16
REMARK    5  A    between atoms: C_10  and  C_15
REMARK    6  A    between atoms: C_20  and  C_21
REMARK                            x       y       z     vdW  Elec       q    Type
REMARK                         _______ _______ _______ _____ _____    ______ ____
ROOT
ATOM      2  N   UNL     1      15.625  12.488  15.985  0.00  0.00    -0.297 NA
ATOM      8  C   UNL     1      16.858  12.132  13.722  0.00  0.00    +0.005 C 
ATOM      9  C   UNL     1      17.848  12.144  14.903  0.00  0.00    +0.092 C 
ATOM     10  C   UNL     1      15.263  11.166  15.406  0.00  0.00    +0.078 C 
ATOM     11  C   UNL     1      15.849  10.999  13.983  0.00  0.00    +0.025 C 
ATOM     12  C   UNL     1      16.051  13.443  13.716  0.00  0.00    +0.020 C 
ATOM     13  C   UNL     1      17.096  12.519  16.194  0.00  0.00    +0.097 C 
ATOM     14  C   UNL     1      15.288  13.579  15.042  0.00  0.00    +0.085 C 
ENDROOT
BRANCH   9  16
ATOM      1  O   UNL     1      18.851  14.282  14.863  0.00  0.00    -0.275 OA
ATOM      4  N   UNL     1      20.179  12.499  14.185  0.00  0.00    -0.307 N 
ATOM     16  C   UNL     1      18.997  13.076  14.651  0.00  0.00    +0.220 C 
ATOM     18  C   UNL     1      20.309  11.064  13.949  0.00  0.00    +0.131 C 
ATOM     19  C   UNL     1      21.370  13.289  13.900  0.00  0.00    +0.131 C 
ENDBRANCH   9  16
BRANCH  10  15
ATOM     15  C   UNL     1      13.754  10.918  15.429  0.00  0.00    +0.164 C 
BRANCH  15   3
ATOM      3  N   UNL     1      13.395   9.775  16.335  0.00  0.00    -0.250 N 
ATOM      5  N   UNL     1      13.689   8.510  15.992  0.00  0.00    -0.065 NA
ATOM      6  N   UNL     1      13.257   7.725  16.972  0.00  0.00    -0.128 NA
ATOM     17  C   UNL     1      12.769   9.834  17.543  0.00  0.00    +0.140 A 
ATOM     20  C   UNL     1      12.692   8.519  17.930  0.00  0.00    +0.131 A 
BRANCH  20  21
ATOM      7  N   UNL     1      12.380   6.755  19.455  0.00  0.00    -0.253 NA
ATOM     21  C   UNL     1      12.112   8.043  19.145  0.00  0.00    +0.092 A 
ATOM     22  C   UNL     1      11.332   8.884  19.923  0.00  0.00    +0.030 A 
ATOM     23  C   UNL     1      10.792   8.368  21.096  0.00  0.00    +0.004 A 
ATOM     24  C   UNL     1      11.838   6.290  20.603  0.00  0.00    +0.111 A 
ATOM     25  C   UNL     1      11.044   7.047  21.449  0.00  0.00    +0.020 A 
ENDBRANCH  20  21
ENDBRANCH  15   3
ENDBRANCH  10  15
TORSDOF 4
ENDMDL
MODEL 9
REMARK VINA RESULT:      -5.7      3.015      4.345
REMARK  Name = 44716212
REMARK  6 active torsions:
REMARK  status: ('A' for Active; 'I' for Inactive)
REMARK    1  A    between atoms: N_3  and  C_15
REMARK    2  A    between atoms: N_4  and  C_18
REMARK    3  A    between atoms: N_4  and  C_19
REMARK    4  A    between atoms: C_9  and  C_16
REMARK    5  A    between atoms: C_10  and  C_15
REMARK    6  A    between atoms: C_20  and  C_21
REMARK                            x       y       z     vdW  Elec       q    Type
REMARK                         _______ _______ _______ _____ _____    ______ ____
ROOT
ATOM      2  N   UNL     1      15.853   8.408  21.073  0.00  0.00    -0.297 NA
ATOM      8  C   UNL     1      14.798   6.980  19.171  0.00  0.00    +0.005 C 
ATOM      9  C   UNL     1      14.780   8.481  18.821  0.00  0.00    +0.092 C 
ATOM     10  C   UNL     1      16.895   7.564  20.426  0.00  0.00    +0.078 C 
ATOM     11  C   UNL     1      16.267   6.584  19.406  0.00  0.00    +0.025 C 
ATOM     12  C   UNL     1      14.067   6.756  20.507  0.00  0.00    +0.020 C 
ATOM     13  C   UNL     1      15.261   9.294  20.038  0.00  0.00    +0.097 C 
ATOM     14  C   UNL     1      14.762   7.564  21.612  0.00  0.00    +0.085 C 
ENDROOT
BRANCH   9  16
ATOM      1  O   UNL     1      12.600   9.301  19.215  0.00  0.00    -0.275 OA
ATOM      4  N   UNL     1      13.169   8.886  17.000  0.00  0.00    -0.307 N 
ATOM     16  C   UNL     1      13.419   8.926  18.372  0.00  0.00    +0.220 C 
ATOM     18  C   UNL     1      14.170   8.436  16.036  0.00  0.00    +0.131 C 
ATOM     19  C   UNL     1      11.891   9.290  16.429  0.00  0.00    +0.131 C 
ENDBRANCH   9  16
BRANCH  10  15
ATOM     15  C   UNL     1      17.766   6.834  21.450  0.00  0.00    +0.164 C 
BRANCH  15   3
ATOM      3  N   UNL     1      19.227   7.103  21.224  0.00  0.00    -0.250 N 
ATOM      5  N   UNL     1      19.702   8.359  21.231  0.00  0.00    -0.065 NA
ATOM      6  N   UNL     1      21.009   8.288  21.006  0.00  0.00    -0.128 NA
ATOM     17  C   UNL     1      20.215   6.195  20.995  0.00  0.00    +0.140 A 
ATOM     20  C   UNL     1      21.340   6.970  20.859  0.00  0.00    +0.131 A 
BRANCH  20  21
ATOM      7  N   UNL     1      22.785   5.141  20.542  0.00  0.00    -0.253 NA
ATOM     21  C   UNL     1      22.658   6.485  20.605  0.00  0.00    +0.092 A 
ATOM     22  C   UNL     1      23.709   7.373  20.440  0.00  0.00    +0.030 A 
ATOM     23  C   UNL     1      24.972   6.846  20.194  0.00  0.00    +0.004 A 
ATOM     24  C   UNL     1      24.028   4.666  20.302  0.00  0.00    +0.111 A 
ATOM     25  C   UNL     1      25.144   5.468  20.123  0.00  0.00    +0.020 A 
ENDBRANCH  20  21
ENDBRANCH  15   3
ENDBRANCH  10  15
TORSDOF 4
ENDMDL
MODEL 10
REMARK VINA RESULT:      -5.7      4.270      9.645
REMARK  Name = 44716212
REMARK  6 active torsions:
REMARK  status: ('A' for Active; 'I' for Inactive)
REMARK    1  A    between atoms: N_3  and  C_15
REMARK    2  A    between atoms: N_4  and  C_18
REMARK    3  A    between atoms: N_4  and  C_19
REMARK    4  A    between atoms: C_9  and  C_16
REMARK    5  A    between atoms: C_10  and  C_15
REMARK    6  A    between atoms: C_20  and  C_21
REMARK                            x       y       z     vdW  Elec       q    Type
REMARK                         _______ _______ _______ _____ _____    ______ ____
ROOT
ATOM      2  N   UNL     1      21.092   5.341  21.254  0.00  0.00    -0.297 NA
ATOM      8  C   UNL     1      22.595   7.431  21.634  0.00  0.00    +0.005 C 
ATOM      9  C   UNL     1      23.068   6.614  20.415  0.00  0.00    +0.092 C 
ATOM     10  C   UNL     1      20.318   6.585  20.989  0.00  0.00    +0.078 C 
ATOM     11  C   UNL     1      21.135   7.843  21.369  0.00  0.00    +0.025 C 
ATOM     12  C   UNL     1      22.573   6.526  22.879  0.00  0.00    +0.020 C 
ATOM     13  C   UNL     1      22.254   5.309  20.329  0.00  0.00    +0.097 C 
ATOM     14  C   UNL     1      21.624   5.343  22.635  0.00  0.00    +0.085 C 
ENDROOT
BRANCH   9  16
ATOM      1  O   UNL     1      24.936   5.298  21.013  0.00  0.00    -0.275 OA
ATOM      4  N   UNL     1      25.381   7.291  19.904  0.00  0.00    -0.307 N 
ATOM     16  C   UNL     1      24.540   6.336  20.475  0.00  0.00    +0.220 C 
ATOM     18  C   UNL     1      24.871   8.507  19.275  0.00  0.00    +0.131 C 
ATOM     19  C   UNL     1      26.832   7.146  19.893  0.00  0.00    +0.131 C 
ENDBRANCH   9  16
BRANCH  10  15
ATOM     15  C   UNL     1      18.950   6.571  21.673  0.00  0.00    +0.164 C 
BRANCH  15   3
ATOM      3  N   UNL     1      17.833   6.481  20.673  0.00  0.00    -0.250 N 
ATOM      5  N   UNL     1      17.952   5.709  19.580  0.00  0.00    -0.065 NA
ATOM      6  N   UNL     1      16.824   5.827  18.889  0.00  0.00    -0.128 NA
ATOM     17  C   UNL     1      16.627   7.113  20.712  0.00  0.00    +0.140 A 
ATOM     20  C   UNL     1      16.002   6.683  19.568  0.00  0.00    +0.131 A 
BRANCH  20  21
ATOM      7  N   UNL     1      14.608   7.565  17.890  0.00  0.00    -0.253 NA
ATOM     21  C   UNL     1      14.694   7.064  19.142  0.00  0.00    +0.092 A 
ATOM     22  C   UNL     1      13.610   6.911  19.993  0.00  0.00    +0.030 A 
ATOM     23  C   UNL     1      12.359   7.298  19.527  0.00  0.00    +0.004 A 
ATOM     24  C   UNL     1      13.376   7.931  17.472  0.00  0.00    +0.111 A 
ATOM     25  C   UNL     1      12.231   7.820  18.245  0.00  0.00    +0.020 A 
ENDBRANCH  20  21
ENDBRANCH  15   3
ENDBRANCH  10  15
TORSDOF 4
ENDMDL
