MODEL 1
REMARK VINA RESULT:      -6.0      0.000      0.000
REMARK  Name = 75536834
REMARK  8 active torsions:
REMARK  status: ('A' for Active; 'I' for Inactive)
REMARK    1  A    between atoms: O_3  and  C_9
REMARK    2  A    between atoms: N_5  and  C_8
REMARK    3  A    between atoms: N_5  and  C_11
REMARK    4  A    between atoms: N_6  and  C_15
REMARK    5  A    between atoms: N_7  and  C_17
REMARK    6  A    between atoms: C_10  and  C_15
REMARK    7  A    between atoms: C_17  and  C_18
REMARK    8  A    between atoms: C_17  and  C_19
REMARK                            x       y       z     vdW  Elec       q    Type
REMARK                         _______ _______ _______ _____ _____    ______ ____
ROOT
ATOM      1  O   UNL     1      10.514   7.515  20.889  0.00  0.00    -0.371 OA
ATOM      8  C   UNL     1      11.017   9.408  22.233  0.00  0.00    +0.111 C 
ATOM      9  C   UNL     1      11.911   9.420  21.007  0.00  0.00    +0.164 C 
ATOM     10  C   UNL     1      11.126   8.519  20.063  0.00  0.00    +0.165 C 
ATOM     12  C   UNL     1      10.558   7.960  22.257  0.00  0.00    +0.181 C 
ENDROOT
BRANCH   9   3
ATOM      3  O   UNL     1      12.088  10.717  20.472  0.00  0.00    -0.388 OA
ATOM     21  H   UNL     1      12.924  10.734  19.977  0.00  0.00    +0.210 HD
ENDBRANCH   9   3
BRANCH   8   5
ATOM      5  N   UNL     1      11.697   9.807  23.455  0.00  0.00    -0.302 NA
ATOM     20  H   UNL     1      11.420   9.197  24.223  0.00  0.00    +0.123 HD
BRANCH   5  11
ATOM      2  O   UNL     1      12.440  11.820  25.509  0.00  0.00    -0.377 OA
ATOM     11  C   UNL     1      11.463  11.235  23.704  0.00  0.00    +0.106 C 
ATOM     13  C   UNL     1      11.085  11.428  25.172  0.00  0.00    +0.180 C 
ATOM     14  C   UNL     1      12.782  11.898  24.101  0.00  0.00    +0.180 C 
ENDBRANCH   5  11
ENDBRANCH   8   5
BRANCH  10  15
ATOM     15  C   UNL     1      11.992   7.856  19.006  0.00  0.00    +0.140 C 
BRANCH  15   6
ATOM      4  O   UNL     1      14.787   8.300  18.441  0.00  0.00    -0.253 OA
ATOM      6  N   UNL     1      13.111   7.182  19.598  0.00  0.00    -0.297 N 
ATOM      7  N   UNL     1      15.325   6.658  19.990  0.00  0.00    -0.297 N 
ATOM     16  C   UNL     1      14.441   7.457  19.268  0.00  0.00    +0.300 C 
ATOM     22  H   UNL     1      12.926   6.455  20.284  0.00  0.00    +0.150 HD
ATOM     23  H   UNL     1      14.946   6.044  20.705  0.00  0.00    +0.150 HD
BRANCH   7  17
ATOM     17  C   UNL     1      16.758   6.741  19.838  0.00  0.00    +0.068 C 
ATOM     18  C   UNL     1      17.451   6.513  21.175  0.00  0.00    +0.027 C 
ATOM     19  C   UNL     1      17.239   5.746  18.790  0.00  0.00    +0.027 C 
ENDBRANCH   7  17
ENDBRANCH  15   6
ENDBRANCH  10  15
TORSDOF 6
ENDMDL
MODEL 2
REMARK VINA RESULT:      -6.0      3.045      5.177
REMARK  Name = 75536834
REMARK  8 active torsions:
REMARK  status: ('A' for Active; 'I' for Inactive)
REMARK    1  A    between atoms: O_3  and  C_9
REMARK    2  A    between atoms: N_5  and  C_8
REMARK    3  A    between atoms: N_5  and  C_11
REMARK    4  A    between atoms: N_6  and  C_15
REMARK    5  A    between atoms: N_7  and  C_17
REMARK    6  A    between atoms: C_10  and  C_15
REMARK    7  A    between atoms: C_17  and  C_18
REMARK    8  A    between atoms: C_17  and  C_19
REMARK                            x       y       z     vdW  Elec       q    Type
REMARK                         _______ _______ _______ _____ _____    ______ ____
ROOT
ATOM      1  O   UNL     1      12.168   8.704  21.205  0.00  0.00    -0.371 OA
ATOM      8  C   UNL     1      12.141   7.346  19.256  0.00  0.00    +0.111 C 
ATOM      9  C   UNL     1      13.563   7.431  19.781  0.00  0.00    +0.164 C 
ATOM     10  C   UNL     1      13.317   7.843  21.227  0.00  0.00    +0.165 C 
ATOM     12  C   UNL     1      11.494   8.537  19.944  0.00  0.00    +0.181 C 
ENDROOT
BRANCH   9   3
ATOM      3  O   UNL     1      14.252   6.200  19.693  0.00  0.00    -0.388 OA
ATOM     21  H   UNL     1      15.207   6.382  19.687  0.00  0.00    +0.210 HD
ENDBRANCH   9   3
BRANCH   8   5
ATOM      5  N   UNL     1      12.050   7.411  17.807  0.00  0.00    -0.302 NA
ATOM     20  H   UNL     1      12.861   6.959  17.386  0.00  0.00    +0.123 HD
BRANCH   5  11
ATOM      2  O   UNL     1      12.120   8.966  15.277  0.00  0.00    -0.377 OA
ATOM     11  C   UNL     1      11.852   8.804  17.388  0.00  0.00    +0.106 C 
ATOM     13  C   UNL     1      12.973   9.199  16.427  0.00  0.00    +0.180 C 
ATOM     14  C   UNL     1      10.964   8.833  16.144  0.00  0.00    +0.180 C 
ENDBRANCH   5  11
ENDBRANCH   8   5
BRANCH  10  15
ATOM     15  C   UNL     1      14.494   8.573  21.851  0.00  0.00    +0.140 C 
BRANCH  15   6
ATOM      4  O   UNL     1      17.166   9.053  20.875  0.00  0.00    -0.253 OA
ATOM      6  N   UNL     1      15.631   7.709  21.985  0.00  0.00    -0.297 N 
ATOM      7  N   UNL     1      17.817   7.005  21.751  0.00  0.00    -0.297 N 
ATOM     16  C   UNL     1      16.898   8.017  21.482  0.00  0.00    +0.300 C 
ATOM     22  H   UNL     1      15.505   6.819  22.459  0.00  0.00    +0.150 HD
ATOM     23  H   UNL     1      17.518   6.222  22.324  0.00  0.00    +0.150 HD
BRANCH   7  17
ATOM     17  C   UNL     1      19.199   7.073  21.339  0.00  0.00    +0.068 C 
ATOM     18  C   UNL     1      20.115   7.155  22.553  0.00  0.00    +0.027 C 
ATOM     19  C   UNL     1      19.550   5.878  20.463  0.00  0.00    +0.027 C 
ENDBRANCH   7  17
ENDBRANCH  15   6
ENDBRANCH  10  15
TORSDOF 6
ENDMDL
MODEL 3
REMARK VINA RESULT:      -5.9      1.712      6.305
REMARK  Name = 75536834
REMARK  8 active torsions:
REMARK  status: ('A' for Active; 'I' for Inactive)
REMARK    1  A    between atoms: O_3  and  C_9
REMARK    2  A    between atoms: N_5  and  C_8
REMARK    3  A    between atoms: N_5  and  C_11
REMARK    4  A    between atoms: N_6  and  C_15
REMARK    5  A    between atoms: N_7  and  C_17
REMARK    6  A    between atoms: C_10  and  C_15
REMARK    7  A    between atoms: C_17  and  C_18
REMARK    8  A    between atoms: C_17  and  C_19
REMARK                            x       y       z     vdW  Elec       q    Type
REMARK                         _______ _______ _______ _____ _____    ______ ____
ROOT
ATOM      1  O   UNL     1      12.118   8.757  20.044  0.00  0.00    -0.371 OA
ATOM      8  C   UNL     1      13.381   6.753  20.231  0.00  0.00    +0.111 C 
ATOM      9  C   UNL     1      12.362   6.803  21.355  0.00  0.00    +0.164 C 
ATOM     10  C   UNL     1      11.354   7.798  20.793  0.00  0.00    +0.165 C 
ATOM     12  C   UNL     1      13.428   8.210  19.802  0.00  0.00    +0.181 C 
ENDROOT
BRANCH   9   3
ATOM      3  O   UNL     1      11.772   5.545  21.614  0.00  0.00    -0.388 OA
ATOM     21  H   UNL     1      12.262   5.120  22.338  0.00  0.00    +0.210 HD
ENDBRANCH   9   3
BRANCH   8   5
ATOM      5  N   UNL     1      14.678   6.242  20.642  0.00  0.00    -0.302 NA
ATOM     20  H   UNL     1      14.706   6.136  21.655  0.00  0.00    +0.123 HD
BRANCH   5  11
ATOM      2  O   UNL     1      17.643   6.203  20.457  0.00  0.00    -0.377 OA
ATOM     11  C   UNL     1      15.739   7.098  20.096  0.00  0.00    +0.106 C 
ATOM     13  C   UNL     1      16.858   7.222  21.129  0.00  0.00    +0.180 C 
ATOM     14  C   UNL     1      16.736   6.232  19.326  0.00  0.00    +0.180 C 
ENDBRANCH   5  11
ENDBRANCH   8   5
BRANCH  10  15
ATOM     15  C   UNL     1      10.550   8.509  21.867  0.00  0.00    +0.140 C 
BRANCH  15   6
ATOM      4  O   UNL     1      10.978  11.325  22.328  0.00  0.00    -0.253 OA
ATOM      6  N   UNL     1      11.407   9.103  22.852  0.00  0.00    -0.297 N 
ATOM      7  N   UNL     1      12.449  10.786  24.039  0.00  0.00    -0.297 N 
ATOM     16  C   UNL     1      11.559  10.483  23.012  0.00  0.00    +0.300 C 
ATOM     22  H   UNL     1      11.943   8.487  23.457  0.00  0.00    +0.150 HD
ATOM     23  H   UNL     1      12.821  10.022  24.596  0.00  0.00    +0.150 HD
BRANCH   7  17
ATOM     17  C   UNL     1      12.785  12.141  24.411  0.00  0.00    +0.068 C 
ATOM     18  C   UNL     1      11.772  12.687  25.409  0.00  0.00    +0.027 C 
ATOM     19  C   UNL     1      14.199  12.201  24.971  0.00  0.00    +0.027 C 
ENDBRANCH   7  17
ENDBRANCH  15   6
ENDBRANCH  10  15
TORSDOF 6
ENDMDL
MODEL 4
REMARK VINA RESULT:      -5.8      2.579      3.475
REMARK  Name = 75536834
REMARK  8 active torsions:
REMARK  status: ('A' for Active; 'I' for Inactive)
REMARK    1  A    between atoms: O_3  and  C_9
REMARK    2  A    between atoms: N_5  and  C_8
REMARK    3  A    between atoms: N_5  and  C_11
REMARK    4  A    between atoms: N_6  and  C_15
REMARK    5  A    between atoms: N_7  and  C_17
REMARK    6  A    between atoms: C_10  and  C_15
REMARK    7  A    between atoms: C_17  and  C_18
REMARK    8  A    between atoms: C_17  and  C_19
REMARK                            x       y       z     vdW  Elec       q    Type
REMARK                         _______ _______ _______ _____ _____    ______ ____
ROOT
ATOM      1  O   UNL     1      13.306   8.121  21.702  0.00  0.00    -0.371 OA
ATOM      8  C   UNL     1      11.374   9.065  22.710  0.00  0.00    +0.111 C 
ATOM      9  C   UNL     1      10.944   8.142  21.584  0.00  0.00    +0.164 C 
ATOM     10  C   UNL     1      12.182   7.267  21.435  0.00  0.00    +0.165 C 
ATOM     12  C   UNL     1      12.831   9.310  22.358  0.00  0.00    +0.181 C 
ENDROOT
BRANCH   9   3
ATOM      3  O   UNL     1       9.797   7.381  21.910  0.00  0.00    -0.388 OA
ATOM     21  H   UNL     1       9.265   7.268  21.104  0.00  0.00    +0.210 HD
ENDBRANCH   9   3
BRANCH   8   5
ATOM      5  N   UNL     1      10.596  10.291  22.787  0.00  0.00    -0.302 NA
ATOM     20  H   UNL     1      10.234  10.533  21.865  0.00  0.00    +0.123 HD
BRANCH   5  11
ATOM      2  O   UNL     1      10.174  12.520  24.705  0.00  0.00    -0.377 OA
ATOM     11  C   UNL     1      11.402  11.346  23.413  0.00  0.00    +0.106 C 
ATOM     13  C   UNL     1      10.637  12.667  23.338  0.00  0.00    +0.180 C 
ATOM     14  C   UNL     1      11.081  11.405  24.906  0.00  0.00    +0.180 C 
ENDBRANCH   5  11
ENDBRANCH   8   5
BRANCH  10  15
ATOM     15  C   UNL     1      12.320   6.654  20.052  0.00  0.00    +0.140 C 
BRANCH  15   6
ATOM      4  O   UNL     1      11.771   7.217  17.276  0.00  0.00    -0.253 OA
ATOM      6  N   UNL     1      13.073   7.505  19.177  0.00  0.00    -0.297 N 
ATOM      7  N   UNL     1      13.638   8.593  17.221  0.00  0.00    -0.297 N 
ATOM     16  C   UNL     1      12.740   7.726  17.838  0.00  0.00    +0.300 C 
ATOM     22  H   UNL     1      13.903   7.960  19.548  0.00  0.00    +0.150 HD
ATOM     23  H   UNL     1      14.363   9.022  17.791  0.00  0.00    +0.150 HD
BRANCH   7  17
ATOM     17  C   UNL     1      13.521   8.988  15.837  0.00  0.00    +0.068 C 
ATOM     18  C   UNL     1      12.146   9.582  15.566  0.00  0.00    +0.027 C 
ATOM     19  C   UNL     1      14.628   9.967  15.471  0.00  0.00    +0.027 C 
ENDBRANCH   7  17
ENDBRANCH  15   6
ENDBRANCH  10  15
TORSDOF 6
ENDMDL
MODEL 5
REMARK VINA RESULT:      -5.5      2.367      4.651
REMARK  Name = 75536834
REMARK  8 active torsions:
REMARK  status: ('A' for Active; 'I' for Inactive)
REMARK    1  A    between atoms: O_3  and  C_9
REMARK    2  A    between atoms: N_5  and  C_8
REMARK    3  A    between atoms: N_5  and  C_11
REMARK    4  A    between atoms: N_6  and  C_15
REMARK    5  A    between atoms: N_7  and  C_17
REMARK    6  A    between atoms: C_10  and  C_15
REMARK    7  A    between atoms: C_17  and  C_18
REMARK    8  A    between atoms: C_17  and  C_19
REMARK                            x       y       z     vdW  Elec       q    Type
REMARK                         _______ _______ _______ _____ _____    ______ ____
ROOT
ATOM      1  O   UNL     1      13.552  11.499  21.076  0.00  0.00    -0.371 OA
ATOM      8  C   UNL     1      11.797   9.949  20.677  0.00  0.00    +0.111 C 
ATOM      9  C   UNL     1      12.641   9.453  21.837  0.00  0.00    +0.164 C 
ATOM     10  C   UNL     1      13.322  10.743  22.276  0.00  0.00    +0.165 C 
ATOM     12  C   UNL     1      12.738  10.948  20.025  0.00  0.00    +0.181 C 
ENDROOT
BRANCH   9   3
ATOM      3  O   UNL     1      11.864   8.888  22.875  0.00  0.00    -0.388 OA
ATOM     21  H   UNL     1      12.358   8.143  23.256  0.00  0.00    +0.210 HD
ENDBRANCH   9   3
BRANCH   8   5
ATOM      5  N   UNL     1      11.374   8.894  19.771  0.00  0.00    -0.302 NA
ATOM     20  H   UNL     1      11.307   8.009  20.273  0.00  0.00    +0.123 HD
BRANCH   5  11
ATOM      2  O   UNL     1      11.800   7.169  17.390  0.00  0.00    -0.377 OA
ATOM     11  C   UNL     1      12.268   8.859  18.607  0.00  0.00    +0.106 C 
ATOM     13  C   UNL     1      12.787   7.433  18.421  0.00  0.00    +0.180 C 
ATOM     14  C   UNL     1      11.446   8.575  17.350  0.00  0.00    +0.180 C 
ENDBRANCH   5  11
ENDBRANCH   8   5
BRANCH  10  15
ATOM     15  C   UNL     1      14.638  10.511  22.998  0.00  0.00    +0.140 C 
BRANCH  15   6
ATOM      4  O   UNL     1      16.644   9.980  20.994  0.00  0.00    -0.253 OA
ATOM      6  N   UNL     1      15.202   9.238  22.657  0.00  0.00    -0.297 N 
ATOM      7  N   UNL     1      16.546   7.727  21.542  0.00  0.00    -0.297 N 
ATOM     16  C   UNL     1      16.175   9.064  21.669  0.00  0.00    +0.300 C 
ATOM     22  H   UNL     1      14.865   8.416  23.150  0.00  0.00    +0.150 HD
ATOM     23  H   UNL     1      16.156   7.055  22.197  0.00  0.00    +0.150 HD
BRANCH   7  17
ATOM     17  C   UNL     1      17.534   7.275  20.593  0.00  0.00    +0.068 C 
ATOM     18  C   UNL     1      18.705   6.618  21.312  0.00  0.00    +0.027 C 
ATOM     19  C   UNL     1      16.903   6.325  19.583  0.00  0.00    +0.027 C 
ENDBRANCH   7  17
ENDBRANCH  15   6
ENDBRANCH  10  15
TORSDOF 6
ENDMDL
MODEL 6
REMARK VINA RESULT:      -5.4     25.661     27.687
REMARK  Name = 75536834
REMARK  8 active torsions:
REMARK  status: ('A' for Active; 'I' for Inactive)
REMARK    1  A    between atoms: O_3  and  C_9
REMARK    2  A    between atoms: N_5  and  C_8
REMARK    3  A    between atoms: N_5  and  C_11
REMARK    4  A    between atoms: N_6  and  C_15
REMARK    5  A    between atoms: N_7  and  C_17
REMARK    6  A    between atoms: C_10  and  C_15
REMARK    7  A    between atoms: C_17  and  C_18
REMARK    8  A    between atoms: C_17  and  C_19
REMARK                            x       y       z     vdW  Elec       q    Type
REMARK                         _______ _______ _______ _____ _____    ______ ____
ROOT
ATOM      1  O   UNL     1      -8.632 -11.080  18.741  0.00  0.00    -0.371 OA
ATOM      8  C   UNL     1      -9.247  -9.180  17.454  0.00  0.00    +0.111 C 
ATOM      9  C   UNL     1      -7.734  -9.304  17.462  0.00  0.00    +0.164 C 
ATOM     10  C   UNL     1      -7.563 -10.771  17.832  0.00  0.00    +0.165 C 
ATOM     12  C   UNL     1      -9.626 -10.043  18.646  0.00  0.00    +0.181 C 
ENDROOT
BRANCH   9   3
ATOM      3  O   UNL     1      -7.156  -9.006  16.207  0.00  0.00    -0.388 OA
ATOM     21  H   UNL     1      -7.608  -9.534  15.527  0.00  0.00    +0.210 HD
ENDBRANCH   9   3
BRANCH   8   5
ATOM      5  N   UNL     1      -9.721  -7.811  17.573  0.00  0.00    -0.302 NA
ATOM     20  H   UNL     1      -9.871  -7.578  18.554  0.00  0.00    +0.123 HD
BRANCH   5  11
ATOM      2  O   UNL     1     -10.522  -6.088  15.289  0.00  0.00    -0.377 OA
ATOM     11  C   UNL     1     -10.902  -7.623  16.722  0.00  0.00    +0.106 C 
ATOM     13  C   UNL     1     -11.182  -6.127  16.581  0.00  0.00    +0.180 C 
ATOM     14  C   UNL     1     -10.461  -7.537  15.261  0.00  0.00    +0.180 C 
ENDBRANCH   5  11
ENDBRANCH   8   5
BRANCH  10  15
ATOM     15  C   UNL     1      -6.227 -11.072  18.490  0.00  0.00    +0.140 C 
BRANCH  15   6
ATOM      4  O   UNL     1      -4.429 -12.356  16.635  0.00  0.00    -0.253 OA
ATOM      6  N   UNL     1      -5.145 -10.462  17.774  0.00  0.00    -0.297 N 
ATOM      7  N   UNL     1      -3.348 -10.326  16.332  0.00  0.00    -0.297 N 
ATOM     16  C   UNL     1      -4.316 -11.157  16.889  0.00  0.00    +0.300 C 
ATOM     22  H   UNL     1      -4.962  -9.475  17.930  0.00  0.00    +0.150 HD
ATOM     23  H   UNL     1      -3.383  -9.333  16.546  0.00  0.00    +0.150 HD
BRANCH   7  17
ATOM     17  C   UNL     1      -2.364 -10.794  15.385  0.00  0.00    +0.068 C 
ATOM     18  C   UNL     1      -2.854 -10.587  13.958  0.00  0.00    +0.027 C 
ATOM     19  C   UNL     1      -1.030 -10.096  15.617  0.00  0.00    +0.027 C 
ENDBRANCH   7  17
ENDBRANCH  15   6
ENDBRANCH  10  15
TORSDOF 6
ENDMDL
MODEL 7
REMARK VINA RESULT:      -5.3      3.078      4.059
REMARK  Name = 75536834
REMARK  8 active torsions:
REMARK  status: ('A' for Active; 'I' for Inactive)
REMARK    1  A    between atoms: O_3  and  C_9
REMARK    2  A    between atoms: N_5  and  C_8
REMARK    3  A    between atoms: N_5  and  C_11
REMARK    4  A    between atoms: N_6  and  C_15
REMARK    5  A    between atoms: N_7  and  C_17
REMARK    6  A    between atoms: C_10  and  C_15
REMARK    7  A    between atoms: C_17  and  C_18
REMARK    8  A    between atoms: C_17  and  C_19
REMARK                            x       y       z     vdW  Elec       q    Type
REMARK                         _______ _______ _______ _____ _____    ______ ____
ROOT
ATOM      1  O   UNL     1      13.245   9.305  20.138  0.00  0.00    -0.371 OA
ATOM      8  C   UNL     1      11.638   9.280  21.887  0.00  0.00    +0.111 C 
ATOM      9  C   UNL     1      11.012   8.701  20.631  0.00  0.00    +0.164 C 
ATOM     10  C   UNL     1      12.253   8.310  19.839  0.00  0.00    +0.165 C 
ATOM     12  C   UNL     1      12.830  10.026  21.313  0.00  0.00    +0.181 C 
ENDROOT
BRANCH   9   3
ATOM      3  O   UNL     1      10.184   7.586  20.898  0.00  0.00    -0.388 OA
ATOM     21  H   UNL     1       9.397   7.896  21.377  0.00  0.00    +0.210 HD
ENDBRANCH   9   3
BRANCH   8   5
ATOM      5  N   UNL     1      10.741  10.140  22.642  0.00  0.00    -0.302 NA
ATOM     20  H   UNL     1      10.023  10.520  22.026  0.00  0.00    +0.123 HD
BRANCH   5  11
ATOM      2  O   UNL     1      10.229  12.321  24.593  0.00  0.00    -0.377 OA
ATOM     11  C   UNL     1      11.522  11.158  23.356  0.00  0.00    +0.106 C 
ATOM     13  C   UNL     1      10.792  12.498  23.267  0.00  0.00    +0.180 C 
ATOM     14  C   UNL     1      11.094  11.180  24.823  0.00  0.00    +0.180 C 
ENDBRANCH   5  11
ENDBRANCH   8   5
BRANCH  10  15
ATOM     15  C   UNL     1      12.016   8.255  18.340  0.00  0.00    +0.140 C 
BRANCH  15   6
ATOM      4  O   UNL     1      13.589   8.473  15.932  0.00  0.00    -0.253 OA
ATOM      6  N   UNL     1      12.452   9.462  17.699  0.00  0.00    -0.297 N 
ATOM      7  N   UNL     1      13.501  10.783  16.123  0.00  0.00    -0.297 N 
ATOM     16  C   UNL     1      13.216   9.481  16.529  0.00  0.00    +0.300 C 
ATOM     22  H   UNL     1      12.205  10.349  18.128  0.00  0.00    +0.150 HD
ATOM     23  H   UNL     1      13.083  11.551  16.641  0.00  0.00    +0.150 HD
BRANCH   7  17
ATOM     17  C   UNL     1      14.275  11.084  14.943  0.00  0.00    +0.068 C 
ATOM     18  C   UNL     1      13.628  12.215  14.153  0.00  0.00    +0.027 C 
ATOM     19  C   UNL     1      15.709  11.426  15.323  0.00  0.00    +0.027 C 
ENDBRANCH   7  17
ENDBRANCH  15   6
ENDBRANCH  10  15
TORSDOF 6
ENDMDL
MODEL 8
REMARK VINA RESULT:      -5.3      4.418      7.439
REMARK  Name = 75536834
REMARK  8 active torsions:
REMARK  status: ('A' for Active; 'I' for Inactive)
REMARK    1  A    between atoms: O_3  and  C_9
REMARK    2  A    between atoms: N_5  and  C_8
REMARK    3  A    between atoms: N_5  and  C_11
REMARK    4  A    between atoms: N_6  and  C_15
REMARK    5  A    between atoms: N_7  and  C_17
REMARK    6  A    between atoms: C_10  and  C_15
REMARK    7  A    between atoms: C_17  and  C_18
REMARK    8  A    between atoms: C_17  and  C_19
REMARK                            x       y       z     vdW  Elec       q    Type
REMARK                         _______ _______ _______ _____ _____    ______ ____
ROOT
ATOM      1  O   UNL     1      17.267   7.354  21.515  0.00  0.00    -0.371 OA
ATOM      8  C   UNL     1      16.187   6.265  19.701  0.00  0.00    +0.111 C 
ATOM      9  C   UNL     1      17.687   6.242  19.469  0.00  0.00    +0.164 C 
ATOM     10  C   UNL     1      18.205   6.467  20.884  0.00  0.00    +0.165 C 
ATOM     12  C   UNL     1      16.058   7.372  20.734  0.00  0.00    +0.181 C 
ENDROOT
BRANCH   9   3
ATOM      3  O   UNL     1      18.138   5.015  18.932  0.00  0.00    -0.388 OA
ATOM     21  H   UNL     1      18.986   4.790  19.349  0.00  0.00    +0.210 HD
ENDBRANCH   9   3
BRANCH   8   5
ATOM      5  N   UNL     1      15.414   6.521  18.497  0.00  0.00    -0.302 NA
ATOM     20  H   UNL     1      16.039   6.630  17.699  0.00  0.00    +0.123 HD
BRANCH   5  11
ATOM      2  O   UNL     1      12.852   7.542  17.394  0.00  0.00    -0.377 OA
ATOM     11  C   UNL     1      14.519   7.663  18.721  0.00  0.00    +0.106 C 
ATOM     13  C   UNL     1      14.117   8.253  17.369  0.00  0.00    +0.180 C 
ATOM     14  C   UNL     1      13.075   7.166  18.777  0.00  0.00    +0.180 C 
ENDBRANCH   5  11
ENDBRANCH   8   5
BRANCH  10  15
ATOM     15  C   UNL     1      19.595   7.076  20.924  0.00  0.00    +0.140 C 
BRANCH  15   6
ATOM      4  O   UNL     1      20.797   4.520  20.336  0.00  0.00    -0.253 OA
ATOM      6  N   UNL     1      20.472   6.319  21.769  0.00  0.00    -0.297 N 
ATOM      7  N   UNL     1      21.831   4.567  22.413  0.00  0.00    -0.297 N 
ATOM     16  C   UNL     1      21.015   5.082  21.409  0.00  0.00    +0.300 C 
ATOM     22  H   UNL     1      20.700   6.695  22.685  0.00  0.00    +0.150 HD
ATOM     23  H   UNL     1      22.009   5.142  23.232  0.00  0.00    +0.150 HD
BRANCH   7  17
ATOM     17  C   UNL     1      22.514   3.301  22.294  0.00  0.00    +0.068 C 
ATOM     18  C   UNL     1      23.894   3.494  21.679  0.00  0.00    +0.027 C 
ATOM     19  C   UNL     1      22.605   2.619  23.653  0.00  0.00    +0.027 C 
ENDBRANCH   7  17
ENDBRANCH  15   6
ENDBRANCH  10  15
TORSDOF 6
ENDMDL
MODEL 9
REMARK VINA RESULT:      -5.3     14.678     16.930
REMARK  Name = 75536834
REMARK  8 active torsions:
REMARK  status: ('A' for Active; 'I' for Inactive)
REMARK    1  A    between atoms: O_3  and  C_9
REMARK    2  A    between atoms: N_5  and  C_8
REMARK    3  A    between atoms: N_5  and  C_11
REMARK    4  A    between atoms: N_6  and  C_15
REMARK    5  A    between atoms: N_7  and  C_17
REMARK    6  A    between atoms: C_10  and  C_15
REMARK    7  A    between atoms: C_17  and  C_18
REMARK    8  A    between atoms: C_17  and  C_19
REMARK                            x       y       z     vdW  Elec       q    Type
REMARK                         _______ _______ _______ _____ _____    ______ ____
ROOT
ATOM      1  O   UNL     1       8.960   7.591   5.354  0.00  0.00    -0.371 OA
ATOM      8  C   UNL     1      10.423   7.080   7.154  0.00  0.00    +0.111 C 
ATOM      9  C   UNL     1      10.877   6.325   5.918  0.00  0.00    +0.164 C 
ATOM     10  C   UNL     1      10.214   7.142   4.816  0.00  0.00    +0.165 C 
ATOM     12  C   UNL     1       8.992   7.431   6.784  0.00  0.00    +0.181 C 
ENDROOT
BRANCH   9   3
ATOM      3  O   UNL     1      12.284   6.298   5.780  0.00  0.00    -0.388 OA
ATOM     21  H   UNL     1      12.546   5.411   5.481  0.00  0.00    +0.210 HD
ENDBRANCH   9   3
BRANCH   8   5
ATOM      5  N   UNL     1      10.517   6.303   8.379  0.00  0.00    -0.302 NA
ATOM     20  H   UNL     1      11.404   5.800   8.406  0.00  0.00    +0.123 HD
BRANCH   5  11
ATOM      2  O   UNL     1       9.772   3.804   9.801  0.00  0.00    -0.377 OA
ATOM     11  C   UNL     1       9.334   5.444   8.509  0.00  0.00    +0.106 C 
ATOM     13  C   UNL     1       9.760   3.984   8.361  0.00  0.00    +0.180 C 
ATOM     14  C   UNL     1       9.128   5.091   9.981  0.00  0.00    +0.180 C 
ENDBRANCH   5  11
ENDBRANCH   8   5
BRANCH  10  15
ATOM     15  C   UNL     1       9.973   6.349   3.544  0.00  0.00    +0.140 C 
BRANCH  15   6
ATOM      4  O   UNL     1      11.737   6.222   1.264  0.00  0.00    -0.253 OA
ATOM      6  N   UNL     1      11.022   5.399   3.315  0.00  0.00    -0.297 N 
ATOM      7  N   UNL     1      12.772   4.375   2.211  0.00  0.00    -0.297 N 
ATOM     16  C   UNL     1      11.836   5.406   2.179  0.00  0.00    +0.300 C 
ATOM     22  H   UNL     1      11.172   4.673   4.010  0.00  0.00    +0.150 HD
ATOM     23  H   UNL     1      12.825   3.798   3.046  0.00  0.00    +0.150 HD
BRANCH   7  17
ATOM     17  C   UNL     1      13.735   4.158   1.158  0.00  0.00    +0.068 C 
ATOM     18  C   UNL     1      14.991   3.495   1.709  0.00  0.00    +0.027 C 
ATOM     19  C   UNL     1      13.119   3.328   0.040  0.00  0.00    +0.027 C 
ENDBRANCH   7  17
ENDBRANCH  15   6
ENDBRANCH  10  15
TORSDOF 6
ENDMDL
MODEL 10
REMARK VINA RESULT:      -5.2      2.687      3.346
REMARK  Name = 75536834
REMARK  8 active torsions:
REMARK  status: ('A' for Active; 'I' for Inactive)
REMARK    1  A    between atoms: O_3  and  C_9
REMARK    2  A    between atoms: N_5  and  C_8
REMARK    3  A    between atoms: N_5  and  C_11
REMARK    4  A    between atoms: N_6  and  C_15
REMARK    5  A    between atoms: N_7  and  C_17
REMARK    6  A    between atoms: C_10  and  C_15
REMARK    7  A    between atoms: C_17  and  C_18
REMARK    8  A    between atoms: C_17  and  C_19
REMARK                            x       y       z     vdW  Elec       q    Type
REMARK                         _______ _______ _______ _____ _____    ______ ____
ROOT
ATOM      1  O   UNL     1      10.559   7.665  20.723  0.00  0.00    -0.371 OA
ATOM      8  C   UNL     1      11.099   9.508  22.121  0.00  0.00    +0.111 C 
ATOM      9  C   UNL     1      12.039   9.499  20.929  0.00  0.00    +0.164 C 
ATOM     10  C   UNL     1      11.248   8.652  19.939  0.00  0.00    +0.165 C 
ATOM     12  C   UNL     1      10.572   8.082  22.100  0.00  0.00    +0.181 C 
ENDROOT
BRANCH   9   3
ATOM      3  O   UNL     1      12.296  10.795  20.426  0.00  0.00    -0.388 OA
ATOM     21  H   UNL     1      11.917  10.858  19.533  0.00  0.00    +0.210 HD
ENDBRANCH   9   3
BRANCH   8   5
ATOM      5  N   UNL     1      11.750   9.852  23.374  0.00  0.00    -0.302 NA
ATOM     20  H   UNL     1      11.426   9.235  24.117  0.00  0.00    +0.123 HD
BRANCH   5  11
ATOM      2  O   UNL     1      12.423  11.771  25.540  0.00  0.00    -0.377 OA
ATOM     11  C   UNL     1      11.559  11.281  23.651  0.00  0.00    +0.106 C 
ATOM     13  C   UNL     1      11.080  11.448  25.093  0.00  0.00    +0.180 C 
ATOM     14  C   UNL     1      12.871  11.874  24.165  0.00  0.00    +0.180 C 
ENDBRANCH   5  11
ENDBRANCH   8   5
BRANCH  10  15
ATOM     15  C   UNL     1      12.122   7.968  18.903  0.00  0.00    +0.140 C 
BRANCH  15   6
ATOM      4  O   UNL     1      12.007   9.406  16.404  0.00  0.00    -0.253 OA
ATOM      6  N   UNL     1      13.108   8.866  18.377  0.00  0.00    -0.297 N 
ATOM      7  N   UNL     1      14.077  10.337  16.885  0.00  0.00    -0.297 N 
ATOM     16  C   UNL     1      12.976   9.527  17.153  0.00  0.00    +0.300 C 
ATOM     22  H   UNL     1      13.955   9.019  18.918  0.00  0.00    +0.150 HD
ATOM     23  H   UNL     1      14.793  10.429  17.599  0.00  0.00    +0.150 HD
BRANCH   7  17
ATOM     17  C   UNL     1      14.192  11.129  15.683  0.00  0.00    +0.068 C 
ATOM     18  C   UNL     1      14.366  12.602  16.029  0.00  0.00    +0.027 C 
ATOM     19  C   UNL     1      15.344  10.624  14.824  0.00  0.00    +0.027 C 
ENDBRANCH   7  17
ENDBRANCH  15   6
ENDBRANCH  10  15
TORSDOF 6
ENDMDL
