MODEL 1
REMARK VINA RESULT:      -5.7      0.000      0.000
REMARK  Name = 75536810
REMARK  6 active torsions:
REMARK  status: ('A' for Active; 'I' for Inactive)
REMARK    1  A    between atoms: O_3  and  C_8
REMARK    2  A    between atoms: N_5  and  C_7
REMARK    3  A    between atoms: N_5  and  C_14
REMARK    4  A    between atoms: N_6  and  C_15
REMARK    5  A    between atoms: C_9  and  C_15
REMARK    6  A    between atoms: C_10  and  C_16
REMARK                            x       y       z     vdW  Elec       q    Type
REMARK                         _______ _______ _______ _____ _____    ______ ____
ROOT
ATOM      1  O   UNL     1      12.318   7.949  21.547  0.00  0.00    -0.371 OA
ATOM      7  C   UNL     1      12.430   6.873  19.433  0.00  0.00    +0.111 C 
ATOM      8  C   UNL     1      13.836   7.225  19.885  0.00  0.00    +0.164 C 
ATOM      9  C   UNL     1      13.630   7.385  21.384  0.00  0.00    +0.165 C 
ATOM     13  C   UNL     1      11.594   7.785  20.315  0.00  0.00    +0.181 C 
ENDROOT
BRANCH   8   3
ATOM      3  O   UNL     1      14.775   6.209  19.587  0.00  0.00    -0.388 OA
ATOM     21  H   UNL     1      15.027   5.773  20.418  0.00  0.00    +0.210 HD
ENDBRANCH   8   3
BRANCH   7   5
ATOM      5  N   UNL     1      12.202   7.093  18.014  0.00  0.00    -0.302 NA
ATOM     19  H   UNL     1      13.010   6.777  17.478  0.00  0.00    +0.123 HD
BRANCH   5  14
ATOM      2  O   UNL     1      11.722   8.879  15.689  0.00  0.00    -0.377 OA
ATOM     14  C   UNL     1      11.841   8.498  17.787  0.00  0.00    +0.106 C 
ATOM     17  C   UNL     1      12.748   9.073  16.697  0.00  0.00    +0.180 C 
ATOM     18  C   UNL     1      10.748   8.570  16.720  0.00  0.00    +0.180 C 
ENDBRANCH   5  14
ENDBRANCH   7   5
BRANCH   9  15
ATOM     15  C   UNL     1      14.661   8.287  22.039  0.00  0.00    +0.138 C 
BRANCH  15   6
ATOM      4  O   UNL     1      16.778   9.584  20.527  0.00  0.00    -0.276 OA
ATOM      6  N   UNL     1      15.994   7.807  21.814  0.00  0.00    -0.313 N 
ATOM     16  C   UNL     1      16.942   8.500  21.073  0.00  0.00    +0.216 C 
ATOM     20  H   UNL     1      16.253   6.919  22.233  0.00  0.00    +0.149 HD
BRANCH  16  10
ATOM     10  C   UNL     1      18.263   7.813  20.969  0.00  0.00    +0.075 C 
ATOM     11  C   UNL     1      18.466   6.539  21.718  0.00  0.00    +0.013 C 
ATOM     12  C   UNL     1      18.338   6.522  20.224  0.00  0.00    +0.013 C 
ENDBRANCH  16  10
ENDBRANCH  15   6
ENDBRANCH   9  15
TORSDOF 6
ENDMDL
MODEL 2
REMARK VINA RESULT:      -5.4      3.836      6.018
REMARK  Name = 75536810
REMARK  6 active torsions:
REMARK  status: ('A' for Active; 'I' for Inactive)
REMARK    1  A    between atoms: O_3  and  C_8
REMARK    2  A    between atoms: N_5  and  C_7
REMARK    3  A    between atoms: N_5  and  C_14
REMARK    4  A    between atoms: N_6  and  C_15
REMARK    5  A    between atoms: C_9  and  C_15
REMARK    6  A    between atoms: C_10  and  C_16
REMARK                            x       y       z     vdW  Elec       q    Type
REMARK                         _______ _______ _______ _____ _____    ______ ____
ROOT
ATOM      1  O   UNL     1      11.944   9.831  20.984  0.00  0.00    -0.371 OA
ATOM      7  C   UNL     1      12.332   7.643  20.146  0.00  0.00    +0.111 C 
ATOM      8  C   UNL     1      11.575   7.544  21.458  0.00  0.00    +0.164 C 
ATOM      9  C   UNL     1      10.973   8.938  21.555  0.00  0.00    +0.165 C 
ATOM     13  C   UNL     1      12.888   9.055  20.225  0.00  0.00    +0.181 C 
ENDROOT
BRANCH   8   3
ATOM      3  O   UNL     1      10.579   6.540  21.439  0.00  0.00    -0.388 OA
ATOM     21  H   UNL     1       9.722   6.962  21.261  0.00  0.00    +0.210 HD
ENDBRANCH   8   3
BRANCH   7   5
ATOM      5  N   UNL     1      13.367   6.634  19.992  0.00  0.00    -0.302 NA
ATOM     19  H   UNL     1      13.281   5.931  20.726  0.00  0.00    +0.123 HD
BRANCH   5  14
ATOM      2  O   UNL     1      16.135   5.904  19.199  0.00  0.00    -0.377 OA
ATOM     14  C   UNL     1      14.682   7.285  19.934  0.00  0.00    +0.106 C 
ATOM     17  C   UNL     1      15.730   6.339  20.523  0.00  0.00    +0.180 C 
ATOM     18  C   UNL     1      15.344   6.960  18.595  0.00  0.00    +0.180 C 
ENDBRANCH   5  14
ENDBRANCH   7   5
BRANCH   9  15
ATOM     15  C   UNL     1      10.664   9.362  22.980  0.00  0.00    +0.138 C 
BRANCH  15   6
ATOM      4  O   UNL     1      11.206  11.033  25.296  0.00  0.00    -0.276 OA
ATOM      6  N   UNL     1      10.523  10.786  23.083  0.00  0.00    -0.313 N 
ATOM     16  C   UNL     1      10.807  11.501  24.237  0.00  0.00    +0.216 C 
ATOM     20  H   UNL     1      10.211  11.290  22.258  0.00  0.00    +0.149 HD
BRANCH  16  10
ATOM     10  C   UNL     1      10.590  12.974  24.118  0.00  0.00    +0.075 C 
ATOM     11  C   UNL     1      11.698  13.817  23.583  0.00  0.00    +0.013 C 
ATOM     12  C   UNL     1      10.474  13.568  22.754  0.00  0.00    +0.013 C 
ENDBRANCH  16  10
ENDBRANCH  15   6
ENDBRANCH   9  15
TORSDOF 6
ENDMDL
MODEL 3
REMARK VINA RESULT:      -5.3     12.656     16.130
REMARK  Name = 75536810
REMARK  6 active torsions:
REMARK  status: ('A' for Active; 'I' for Inactive)
REMARK    1  A    between atoms: O_3  and  C_8
REMARK    2  A    between atoms: N_5  and  C_7
REMARK    3  A    between atoms: N_5  and  C_14
REMARK    4  A    between atoms: N_6  and  C_15
REMARK    5  A    between atoms: C_9  and  C_15
REMARK    6  A    between atoms: C_10  and  C_16
REMARK                            x       y       z     vdW  Elec       q    Type
REMARK                         _______ _______ _______ _____ _____    ______ ____
ROOT
ATOM      1  O   UNL     1       9.935   7.545   3.362  0.00  0.00    -0.371 OA
ATOM      7  C   UNL     1      11.476   5.781   2.970  0.00  0.00    +0.111 C 
ATOM      8  C   UNL     1      10.906   5.640   4.370  0.00  0.00    +0.164 C 
ATOM      9  C   UNL     1       9.629   6.458   4.251  0.00  0.00    +0.165 C 
ATOM     13  C   UNL     1      11.150   7.232   2.658  0.00  0.00    +0.181 C 
ENDROOT
BRANCH   8   3
ATOM      3  O   UNL     1      10.640   4.294   4.718  0.00  0.00    -0.388 OA
ATOM     21  H   UNL     1      10.248   4.281   5.607  0.00  0.00    +0.210 HD
ENDBRANCH   8   3
BRANCH   7   5
ATOM      5  N   UNL     1      12.897   5.489   2.886  0.00  0.00    -0.302 NA
ATOM     19  H   UNL     1      13.439   6.313   3.146  0.00  0.00    +0.123 HD
BRANCH   5  14
ATOM      2  O   UNL     1      13.600   2.864   1.688  0.00  0.00    -0.377 OA
ATOM     14  C   UNL     1      13.212   4.959   1.554  0.00  0.00    +0.106 C 
ATOM     17  C   UNL     1      14.437   4.049   1.658  0.00  0.00    +0.180 C 
ATOM     18  C   UNL     1      12.438   3.658   1.336  0.00  0.00    +0.180 C 
ENDBRANCH   5  14
ENDBRANCH   7   5
BRANCH   9  15
ATOM     15  C   UNL     1       9.140   7.005   5.580  0.00  0.00    +0.138 C 
BRANCH  15   6
ATOM      4  O   UNL     1       8.580   7.381   8.408  0.00  0.00    -0.276 OA
ATOM      6  N   UNL     1       9.604   6.205   6.677  0.00  0.00    -0.313 N 
ATOM     16  C   UNL     1       9.283   6.464   8.002  0.00  0.00    +0.216 C 
ATOM     20  H   UNL     1      10.186   5.402   6.462  0.00  0.00    +0.149 HD
BRANCH  16  10
ATOM     10  C   UNL     1       9.875   5.501   8.978  0.00  0.00    +0.075 C 
ATOM     11  C   UNL     1       8.961   4.771   9.904  0.00  0.00    +0.013 C 
ATOM     12  C   UNL     1       9.631   4.043   8.778  0.00  0.00    +0.013 C 
ENDBRANCH  16  10
ENDBRANCH  15   6
ENDBRANCH   9  15
TORSDOF 6
ENDMDL
MODEL 4
REMARK VINA RESULT:      -5.1     30.710     31.799
REMARK  Name = 75536810
REMARK  6 active torsions:
REMARK  status: ('A' for Active; 'I' for Inactive)
REMARK    1  A    between atoms: O_3  and  C_8
REMARK    2  A    between atoms: N_5  and  C_7
REMARK    3  A    between atoms: N_5  and  C_14
REMARK    4  A    between atoms: N_6  and  C_15
REMARK    5  A    between atoms: C_9  and  C_15
REMARK    6  A    between atoms: C_10  and  C_16
REMARK                            x       y       z     vdW  Elec       q    Type
REMARK                         _______ _______ _______ _____ _____    ______ ____
ROOT
ATOM      1  O   UNL     1     -15.048   4.731  32.289  0.00  0.00    -0.371 OA
ATOM      7  C   UNL     1     -14.589   2.443  31.848  0.00  0.00    +0.111 C 
ATOM      8  C   UNL     1     -14.423   2.704  33.334  0.00  0.00    +0.164 C 
ATOM      9  C   UNL     1     -15.236   3.980  33.500  0.00  0.00    +0.165 C 
ATOM     13  C   UNL     1     -14.511   3.852  31.285  0.00  0.00    +0.181 C 
ENDROOT
BRANCH   8   3
ATOM      3  O   UNL     1     -14.927   1.651  34.134  0.00  0.00    -0.388 OA
ATOM     21  H   UNL     1     -14.711   1.841  35.062  0.00  0.00    +0.210 HD
ENDBRANCH   8   3
BRANCH   7   5
ATOM      5  N   UNL     1     -13.578   1.555  31.296  0.00  0.00    -0.302 NA
ATOM     19  H   UNL     1     -12.669   2.017  31.297  0.00  0.00    +0.123 HD
BRANCH   5  14
ATOM      2  O   UNL     1     -14.988  -0.807  30.175  0.00  0.00    -0.377 OA
ATOM     14  C   UNL     1     -14.011   1.081  29.976  0.00  0.00    +0.106 C 
ATOM     17  C   UNL     1     -13.640  -0.396  29.833  0.00  0.00    +0.180 C 
ATOM     18  C   UNL     1     -15.447   0.566  30.073  0.00  0.00    +0.180 C 
ENDBRANCH   5  14
ENDBRANCH   7   5
BRANCH   9  15
ATOM     15  C   UNL     1     -14.806   4.816  34.693  0.00  0.00    +0.138 C 
BRANCH  15   6
ATOM      4  O   UNL     1     -13.020   6.548  36.196  0.00  0.00    -0.276 OA
ATOM      6  N   UNL     1     -14.253   6.073  34.278  0.00  0.00    -0.313 N 
ATOM     16  C   UNL     1     -13.404   6.834  35.069  0.00  0.00    +0.216 C 
ATOM     20  H   UNL     1     -14.490   6.409  33.349  0.00  0.00    +0.149 HD
BRANCH  16  10
ATOM     10  C   UNL     1     -12.948   8.107  34.436  0.00  0.00    +0.075 C 
ATOM     11  C   UNL     1     -12.688   8.119  32.966  0.00  0.00    +0.013 C 
ATOM     12  C   UNL     1     -13.887   8.825  33.525  0.00  0.00    +0.013 C 
ENDBRANCH  16  10
ENDBRANCH  15   6
ENDBRANCH   9  15
TORSDOF 6
ENDMDL
MODEL 5
REMARK VINA RESULT:      -5.0     25.349     27.263
REMARK  Name = 75536810
REMARK  6 active torsions:
REMARK  status: ('A' for Active; 'I' for Inactive)
REMARK    1  A    between atoms: O_3  and  C_8
REMARK    2  A    between atoms: N_5  and  C_7
REMARK    3  A    between atoms: N_5  and  C_14
REMARK    4  A    between atoms: N_6  and  C_15
REMARK    5  A    between atoms: C_9  and  C_15
REMARK    6  A    between atoms: C_10  and  C_16
REMARK                            x       y       z     vdW  Elec       q    Type
REMARK                         _______ _______ _______ _____ _____    ______ ____
ROOT
ATOM      1  O   UNL     1      -5.520 -11.135  18.161  0.00  0.00    -0.371 OA
ATOM      7  C   UNL     1      -7.371  -9.942  17.271  0.00  0.00    +0.111 C 
ATOM      8  C   UNL     1      -6.133  -9.616  16.456  0.00  0.00    +0.164 C 
ATOM      9  C   UNL     1      -5.240 -10.801  16.792  0.00  0.00    +0.165 C 
ATOM     13  C   UNL     1      -6.755 -10.503  18.542  0.00  0.00    +0.181 C 
ENDROOT
BRANCH   8   3
ATOM      3  O   UNL     1      -6.399  -9.531  15.069  0.00  0.00    -0.388 OA
ATOM     21  H   UNL     1      -5.820  -8.850  14.688  0.00  0.00    +0.210 HD
ENDBRANCH   8   3
BRANCH   7   5
ATOM      5  N   UNL     1      -8.228  -8.794  17.516  0.00  0.00    -0.302 NA
ATOM     19  H   UNL     1      -8.370  -8.671  18.518  0.00  0.00    +0.123 HD
BRANCH   5  14
ATOM      2  O   UNL     1     -10.764  -7.289  17.158  0.00  0.00    -0.377 OA
ATOM     14  C   UNL     1      -9.470  -8.936  16.745  0.00  0.00    +0.106 C 
ATOM     17  C   UNL     1     -10.659  -8.645  17.662  0.00  0.00    +0.180 C 
ATOM     18  C   UNL     1      -9.817  -7.594  16.101  0.00  0.00    +0.180 C 
ENDBRANCH   5  14
ENDBRANCH   7   5
BRANCH   9  15
ATOM     15  C   UNL     1      -3.760 -10.503  16.629  0.00  0.00    +0.138 C 
BRANCH  15   6
ATOM      4  O   UNL     1      -1.158 -10.968  15.418  0.00  0.00    -0.276 OA
ATOM      6  N   UNL     1      -3.402 -10.368  15.246  0.00  0.00    -0.313 N 
ATOM     16  C   UNL     1      -2.127 -10.613  14.758  0.00  0.00    +0.216 C 
ATOM     20  H   UNL     1      -4.132 -10.092  14.596  0.00  0.00    +0.149 HD
BRANCH  16  10
ATOM     10  C   UNL     1      -1.982 -10.411  13.286  0.00  0.00    +0.075 C 
ATOM     11  C   UNL     1      -2.176 -11.582  12.382  0.00  0.00    +0.013 C 
ATOM     12  C   UNL     1      -3.203 -10.492  12.433  0.00  0.00    +0.013 C 
ENDBRANCH  16  10
ENDBRANCH  15   6
ENDBRANCH   9  15
TORSDOF 6
ENDMDL
MODEL 6
REMARK VINA RESULT:      -4.9     30.625     31.704
REMARK  Name = 75536810
REMARK  6 active torsions:
REMARK  status: ('A' for Active; 'I' for Inactive)
REMARK    1  A    between atoms: O_3  and  C_8
REMARK    2  A    between atoms: N_5  and  C_7
REMARK    3  A    between atoms: N_5  and  C_14
REMARK    4  A    between atoms: N_6  and  C_15
REMARK    5  A    between atoms: C_9  and  C_15
REMARK    6  A    between atoms: C_10  and  C_16
REMARK                            x       y       z     vdW  Elec       q    Type
REMARK                         _______ _______ _______ _____ _____    ______ ____
ROOT
ATOM      1  O   UNL     1     -14.901   0.744  32.768  0.00  0.00    -0.371 OA
ATOM      7  C   UNL     1     -13.910   1.360  30.700  0.00  0.00    +0.111 C 
ATOM      8  C   UNL     1     -13.856   2.544  31.648  0.00  0.00    +0.164 C 
ATOM      9  C   UNL     1     -14.013   1.851  32.993  0.00  0.00    +0.165 C 
ATOM     13  C   UNL     1     -14.980   0.501  31.353  0.00  0.00    +0.181 C 
ENDROOT
BRANCH   8   3
ATOM      3  O   UNL     1     -12.638   3.258  31.561  0.00  0.00    -0.388 OA
ATOM     21  H   UNL     1     -12.172   2.971  30.758  0.00  0.00    +0.210 HD
ENDBRANCH   8   3
BRANCH   7   5
ATOM      5  N   UNL     1     -14.232   1.723  29.330  0.00  0.00    -0.302 NA
ATOM     19  H   UNL     1     -13.574   2.424  28.991  0.00  0.00    +0.123 HD
BRANCH   5  14
ATOM      2  O   UNL     1     -16.043   2.947  27.318  0.00  0.00    -0.377 OA
ATOM     14  C   UNL     1     -15.641   2.131  29.249  0.00  0.00    +0.106 C 
ATOM     17  C   UNL     1     -15.720   3.519  28.611  0.00  0.00    +0.180 C 
ATOM     18  C   UNL     1     -16.230   1.642  27.926  0.00  0.00    +0.180 C 
ENDBRANCH   5  14
ENDBRANCH   7   5
BRANCH   9  15
ATOM     15  C   UNL     1     -14.583   2.754  34.072  0.00  0.00    +0.138 C 
BRANCH  15   6
ATOM      4  O   UNL     1     -13.835   5.161  35.522  0.00  0.00    -0.276 OA
ATOM      6  N   UNL     1     -14.678   4.113  33.620  0.00  0.00    -0.313 N 
ATOM     16  C   UNL     1     -14.294   5.204  34.388  0.00  0.00    +0.216 C 
ATOM     20  H   UNL     1     -15.032   4.274  32.682  0.00  0.00    +0.149 HD
BRANCH  16  10
ATOM     10  C   UNL     1     -14.479   6.524  33.716  0.00  0.00    +0.075 C 
ATOM     11  C   UNL     1     -13.360   7.070  32.894  0.00  0.00    +0.013 C 
ATOM     12  C   UNL     1     -14.601   6.556  32.230  0.00  0.00    +0.013 C 
ENDBRANCH  16  10
ENDBRANCH  15   6
ENDBRANCH   9  15
TORSDOF 6
ENDMDL
MODEL 7
REMARK VINA RESULT:      -4.9     26.253     27.312
REMARK  Name = 75536810
REMARK  6 active torsions:
REMARK  status: ('A' for Active; 'I' for Inactive)
REMARK    1  A    between atoms: O_3  and  C_8
REMARK    2  A    between atoms: N_5  and  C_7
REMARK    3  A    between atoms: N_5  and  C_14
REMARK    4  A    between atoms: N_6  and  C_15
REMARK    5  A    between atoms: C_9  and  C_15
REMARK    6  A    between atoms: C_10  and  C_16
REMARK                            x       y       z     vdW  Elec       q    Type
REMARK                         _______ _______ _______ _____ _____    ______ ____
ROOT
ATOM      1  O   UNL     1      -5.267  -9.949  14.705  0.00  0.00    -0.371 OA
ATOM      7  C   UNL     1      -4.398 -10.476  16.852  0.00  0.00    +0.111 C 
ATOM      8  C   UNL     1      -3.747 -11.378  15.818  0.00  0.00    +0.164 C 
ATOM      9  C   UNL     1      -3.988 -10.584  14.543  0.00  0.00    +0.165 C 
ATOM     13  C   UNL     1      -5.625  -9.992  16.098  0.00  0.00    +0.181 C 
ENDROOT
BRANCH   8   3
ATOM      3  O   UNL     1      -2.368 -11.580  16.061  0.00  0.00    -0.388 OA
ATOM     21  H   UNL     1      -2.215 -12.533  16.178  0.00  0.00    +0.210 HD
ENDBRANCH   8   3
BRANCH   7   5
ATOM      5  N   UNL     1      -4.727 -11.155  18.094  0.00  0.00    -0.302 NA
ATOM     19  H   UNL     1      -4.372 -12.111  18.074  0.00  0.00    +0.123 HD
BRANCH   5  14
ATOM      2  O   UNL     1      -6.598 -11.634  20.350  0.00  0.00    -0.377 OA
ATOM     14  C   UNL     1      -6.171 -11.055  18.341  0.00  0.00    +0.106 C 
ATOM     17  C   UNL     1      -6.639 -12.315  19.070  0.00  0.00    +0.180 C 
ATOM     18  C   UNL     1      -6.403 -10.360  19.682  0.00  0.00    +0.180 C 
ENDBRANCH   5  14
ENDBRANCH   7   5
BRANCH   9  15
ATOM     15  C   UNL     1      -3.998 -11.445  13.292  0.00  0.00    +0.138 C 
BRANCH  15   6
ATOM      4  O   UNL     1      -1.707 -10.409  11.832  0.00  0.00    -0.276 OA
ATOM      6  N   UNL     1      -4.010 -10.640  12.104  0.00  0.00    -0.313 N 
ATOM     16  C   UNL     1      -2.858 -10.189  11.474  0.00  0.00    +0.216 C 
ATOM     20  H   UNL     1      -4.912 -10.404  11.703  0.00  0.00    +0.149 HD
BRANCH  16  10
ATOM     10  C   UNL     1      -3.106  -9.367  10.252  0.00  0.00    +0.075 C 
ATOM     11  C   UNL     1      -4.112  -9.849   9.261  0.00  0.00    +0.013 C 
ATOM     12  C   UNL     1      -4.414  -8.661  10.123  0.00  0.00    +0.013 C 
ENDBRANCH  16  10
ENDBRANCH  15   6
ENDBRANCH   9  15
TORSDOF 6
ENDMDL
MODEL 8
REMARK VINA RESULT:      -4.9     13.530     17.181
REMARK  Name = 75536810
REMARK  6 active torsions:
REMARK  status: ('A' for Active; 'I' for Inactive)
REMARK    1  A    between atoms: O_3  and  C_8
REMARK    2  A    between atoms: N_5  and  C_7
REMARK    3  A    between atoms: N_5  and  C_14
REMARK    4  A    between atoms: N_6  and  C_15
REMARK    5  A    between atoms: C_9  and  C_15
REMARK    6  A    between atoms: C_10  and  C_16
REMARK                            x       y       z     vdW  Elec       q    Type
REMARK                         _______ _______ _______ _____ _____    ______ ____
ROOT
ATOM      1  O   UNL     1       8.965   7.144   3.591  0.00  0.00    -0.371 OA
ATOM      7  C   UNL     1      10.349   6.226   5.288  0.00  0.00    +0.111 C 
ATOM      8  C   UNL     1      10.981   5.957   3.934  0.00  0.00    +0.164 C 
ATOM      9  C   UNL     1      10.302   7.017   3.078  0.00  0.00    +0.165 C 
ATOM     13  C   UNL     1       8.915   6.537   4.894  0.00  0.00    +0.181 C 
ENDROOT
BRANCH   8   3
ATOM      3  O   UNL     1      12.387   6.112   3.947  0.00  0.00    -0.388 OA
ATOM     21  H   UNL     1      12.790   5.269   3.678  0.00  0.00    +0.210 HD
ENDBRANCH   8   3
BRANCH   7   5
ATOM      5  N   UNL     1      10.453   5.108   6.211  0.00  0.00    -0.302 NA
ATOM     19  H   UNL     1      10.312   4.229   5.713  0.00  0.00    +0.123 HD
BRANCH   5  14
ATOM      2  O   UNL     1      10.609   5.173   9.177  0.00  0.00    -0.377 OA
ATOM     14  C   UNL     1       9.534   5.315   7.337  0.00  0.00    +0.106 C 
ATOM     17  C   UNL     1       9.804   4.249   8.401  0.00  0.00    +0.180 C 
ATOM     18  C   UNL     1      10.176   6.276   8.338  0.00  0.00    +0.180 C 
ENDBRANCH   5  14
ENDBRANCH   7   5
BRANCH   9  15
ATOM     15  C   UNL     1      10.253   6.658   1.603  0.00  0.00    +0.138 C 
BRANCH  15   6
ATOM      4  O   UNL     1       9.995   4.008   0.438  0.00  0.00    -0.276 OA
ATOM      6  N   UNL     1      11.308   5.751   1.251  0.00  0.00    -0.313 N 
ATOM     16  C   UNL     1      11.087   4.499   0.697  0.00  0.00    +0.216 C 
ATOM     20  H   UNL     1      12.264   6.056   1.407  0.00  0.00    +0.149 HD
BRANCH  16  10
ATOM     10  C   UNL     1      12.330   3.724   0.409  0.00  0.00    +0.075 C 
ATOM     11  C   UNL     1      13.639   4.286   0.855  0.00  0.00    +0.013 C 
ATOM     12  C   UNL     1      13.055   3.093   1.550  0.00  0.00    +0.013 C 
ENDBRANCH  16  10
ENDBRANCH  15   6
ENDBRANCH   9  15
TORSDOF 6
ENDMDL
MODEL 9
REMARK VINA RESULT:      -4.8     29.579     31.559
REMARK  Name = 75536810
REMARK  6 active torsions:
REMARK  status: ('A' for Active; 'I' for Inactive)
REMARK    1  A    between atoms: O_3  and  C_8
REMARK    2  A    between atoms: N_5  and  C_7
REMARK    3  A    between atoms: N_5  and  C_14
REMARK    4  A    between atoms: N_6  and  C_15
REMARK    5  A    between atoms: C_9  and  C_15
REMARK    6  A    between atoms: C_10  and  C_16
REMARK                            x       y       z     vdW  Elec       q    Type
REMARK                         _______ _______ _______ _____ _____    ______ ____
ROOT
ATOM      1  O   UNL     1     -16.344   0.629  27.825  0.00  0.00    -0.371 OA
ATOM      7  C   UNL     1     -15.361   2.219  29.289  0.00  0.00    +0.111 C 
ATOM      8  C   UNL     1     -15.632   2.879  27.949  0.00  0.00    +0.164 C 
ATOM      9  C   UNL     1     -16.687   1.948  27.370  0.00  0.00    +0.165 C 
ATOM     13  C   UNL     1     -15.412   0.748  28.914  0.00  0.00    +0.181 C 
ENDROOT
BRANCH   8   3
ATOM      3  O   UNL     1     -16.112   4.204  28.079  0.00  0.00    -0.388 OA
ATOM     21  H   UNL     1     -15.449   4.808  27.706  0.00  0.00    +0.210 HD
ENDBRANCH   8   3
BRANCH   7   5
ATOM      5  N   UNL     1     -14.094   2.609  29.885  0.00  0.00    -0.302 NA
ATOM     19  H   UNL     1     -13.511   1.786  30.033  0.00  0.00    +0.123 HD
BRANCH   5  14
ATOM      2  O   UNL     1     -13.845   2.236  32.822  0.00  0.00    -0.377 OA
ATOM     14  C   UNL     1     -14.346   3.395  31.100  0.00  0.00    +0.106 C 
ATOM     17  C   UNL     1     -15.081   2.518  32.115  0.00  0.00    +0.180 C 
ATOM     18  C   UNL     1     -13.154   3.250  32.047  0.00  0.00    +0.180 C 
ENDBRANCH   5  14
ENDBRANCH   7   5
BRANCH   9  15
ATOM     15  C   UNL     1     -16.742   1.970  25.853  0.00  0.00    +0.138 C 
BRANCH  15   6
ATOM      4  O   UNL     1     -16.338   2.664  23.059  0.00  0.00    -0.276 OA
ATOM      6  N   UNL     1     -16.154   3.168  25.326  0.00  0.00    -0.313 N 
ATOM     16  C   UNL     1     -16.002   3.413  23.969  0.00  0.00    +0.216 C 
ATOM     20  H   UNL     1     -15.848   3.874  25.989  0.00  0.00    +0.149 HD
BRANCH  16  10
ATOM     10  C   UNL     1     -15.366   4.725  23.647  0.00  0.00    +0.075 C 
ATOM     11  C   UNL     1     -13.880   4.786  23.528  0.00  0.00    +0.013 C 
ATOM     12  C   UNL     1     -14.739   4.902  22.305  0.00  0.00    +0.013 C 
ENDBRANCH  16  10
ENDBRANCH  15   6
ENDBRANCH   9  15
TORSDOF 6
ENDMDL
MODEL 10
REMARK VINA RESULT:      -4.7     25.288     27.117
REMARK  Name = 75536810
REMARK  6 active torsions:
REMARK  status: ('A' for Active; 'I' for Inactive)
REMARK    1  A    between atoms: O_3  and  C_8
REMARK    2  A    between atoms: N_5  and  C_7
REMARK    3  A    between atoms: N_5  and  C_14
REMARK    4  A    between atoms: N_6  and  C_15
REMARK    5  A    between atoms: C_9  and  C_15
REMARK    6  A    between atoms: C_10  and  C_16
REMARK                            x       y       z     vdW  Elec       q    Type
REMARK                         _______ _______ _______ _____ _____    ______ ____
ROOT
ATOM      1  O   UNL     1      -1.340 -11.161  14.904  0.00  0.00    -0.371 OA
ATOM      7  C   UNL     1      -3.494 -10.920  15.875  0.00  0.00    +0.111 C 
ATOM      8  C   UNL     1      -3.606 -10.744  14.372  0.00  0.00    +0.164 C 
ATOM      9  C   UNL     1      -2.333 -11.431  13.900  0.00  0.00    +0.165 C 
ATOM     13  C   UNL     1      -2.006 -10.701  16.093  0.00  0.00    +0.181 C 
ENDROOT
BRANCH   8   3
ATOM      3  O   UNL     1      -4.764 -11.354  13.835  0.00  0.00    -0.388 OA
ATOM     21  H   UNL     1      -5.473 -11.298  14.498  0.00  0.00    +0.210 HD
ENDBRANCH   8   3
BRANCH   7   5
ATOM      5  N   UNL     1      -4.319  -9.994  16.634  0.00  0.00    -0.302 NA
ATOM     19  H   UNL     1      -3.754  -9.518  17.336  0.00  0.00    +0.123 HD
BRANCH   5  14
ATOM      2  O   UNL     1      -4.909 -11.777  18.936  0.00  0.00    -0.377 OA
ATOM     14  C   UNL     1      -5.481 -10.708  17.179  0.00  0.00    +0.106 C 
ATOM     17  C   UNL     1      -5.064 -12.135  17.538  0.00  0.00    +0.180 C 
ATOM     18  C   UNL     1      -5.539 -10.492  18.691  0.00  0.00    +0.180 C 
ENDBRANCH   5  14
ENDBRANCH   7   5
BRANCH   9  15
ATOM     15  C   UNL     1      -1.846 -10.935  12.551  0.00  0.00    +0.138 C 
BRANCH  15   6
ATOM      4  O   UNL     1      -3.331 -12.011  10.296  0.00  0.00    -0.276 OA
ATOM      6  N   UNL     1      -2.902 -10.299  11.816  0.00  0.00    -0.313 N 
ATOM     16  C   UNL     1      -3.556 -10.895  10.747  0.00  0.00    +0.216 C 
ATOM     20  H   UNL     1      -3.187  -9.370  12.109  0.00  0.00    +0.149 HD
BRANCH  16  10
ATOM     10  C   UNL     1      -4.623 -10.052  10.131  0.00  0.00    +0.075 C 
ATOM     11  C   UNL     1      -4.865  -8.689  10.688  0.00  0.00    +0.013 C 
ATOM     12  C   UNL     1      -4.215  -8.849   9.346  0.00  0.00    +0.013 C 
ENDBRANCH  16  10
ENDBRANCH  15   6
ENDBRANCH   9  15
TORSDOF 6
ENDMDL
