MODEL 1
REMARK VINA RESULT:      -7.3      0.000      0.000
REMARK  Name = 24148473
REMARK  12 active torsions:
REMARK  status: ('A' for Active; 'I' for Inactive)
REMARK    1  A    between atoms: S_3  and  C_26
REMARK    2  A    between atoms: S_3  and  C_29
REMARK    3  A    between atoms: O_4  and  C_12
REMARK    4  A    between atoms: N_9  and  C_27
REMARK    5  A    between atoms: N_9  and  C_28
REMARK    6  A    between atoms: C_10  and  C_18
REMARK    7  A    between atoms: C_13  and  C_19
REMARK    8  A    between atoms: C_15  and  C_22
REMARK    9  A    between atoms: C_19  and  C_23
REMARK   10  A    between atoms: C_19  and  C_24
REMARK   11  A    between atoms: C_25  and  C_26
REMARK   12  A    between atoms: C_27  and  C_30
REMARK                            x       y       z     vdW  Elec       q    Type
REMARK                         _______ _______ _______ _____ _____    ______ ____
ROOT
ATOM      2  S   UNL     1      20.504   5.987  20.672  0.00  0.00    -0.075 S 
ATOM      8  N   UNL     1      20.173   8.161  22.031  0.00  0.00    -0.247 NA
ATOM     10  C   UNL     1      16.513   6.899  20.275  0.00  0.00    -0.022 C 
ATOM     11  C   UNL     1      16.688   8.462  20.426  0.00  0.00    +0.033 C 
ATOM     12  C   UNL     1      15.324   9.161  20.691  0.00  0.00    +0.123 C 
ATOM     13  C   UNL     1      14.243   8.774  19.658  0.00  0.00    +0.029 C 
ATOM     14  C   UNL     1      15.433   6.597  19.209  0.00  0.00    +0.008 C 
ATOM     15  C   UNL     1      17.802   8.833  21.488  0.00  0.00    +0.042 C 
ATOM     16  C   UNL     1      14.096   7.261  19.507  0.00  0.00    +0.007 C 
ATOM     17  C   UNL     1      17.849   6.264  19.777  0.00  0.00    +0.051 C 
ATOM     18  C   UNL     1      16.104   6.227  21.611  0.00  0.00    +0.012 C 
ATOM     20  C   UNL     1      18.998   7.921  21.341  0.00  0.00    +0.055 A 
ATOM     21  C   UNL     1      18.996   6.771  20.578  0.00  0.00    +0.014 A 
ATOM     22  C   UNL     1      18.251  10.299  21.410  0.00  0.00    +0.014 C 
ATOM     25  C   UNL     1      21.039   7.213  21.746  0.00  0.00    +0.100 A 
ENDROOT
BRANCH  12   4
ATOM      4  O   UNL     1      15.495  10.576  20.613  0.00  0.00    -0.391 OA
ATOM     37  H   UNL     1      14.652  10.966  20.321  0.00  0.00    +0.210 HD
ENDBRANCH  12   4
BRANCH  13  19
ATOM     19  C   UNL     1      12.882   9.391  20.000  0.00  0.00    +0.078 C 
ATOM     23  C   UNL     1      12.547   9.102  21.463  0.00  0.00    +0.017 C 
BRANCH  19  24
ATOM      5  O   UNL     1      10.895   8.119  19.573  0.00  0.00    -0.275 OA
ATOM      9  N   UNL     1      11.855   9.130  17.727  0.00  0.00    -0.301 N 
ATOM     24  C   UNL     1      11.784   8.830  19.090  0.00  0.00    +0.219 C 
ATOM     28  C   UNL     1      10.842   8.590  16.825  0.00  0.00    +0.132 C 
BRANCH   9  27
ATOM     27  C   UNL     1      12.849   9.987  17.083  0.00  0.00    +0.134 C 
BRANCH  27  30
ATOM     30  C   UNL     1      13.297   9.343  15.812  0.00  0.00    -0.016 C 
ATOM     33  C   UNL     1      14.374   8.557  15.715  0.00  0.00    +0.005 C 
ENDBRANCH  27  30
ENDBRANCH   9  27
ENDBRANCH  19  24
ENDBRANCH  13  19
BRANCH  25  26
ATOM     26  C   UNL     1      22.413   7.144  22.289  0.00  0.00    +0.234 C 
BRANCH  26   3
ATOM      3  S   UNL     1      22.396   6.098  23.715  0.00  0.00    +0.003 S 
ATOM      6  O   UNL     1      21.015   5.866  24.102  0.00  0.00    -0.169 OA
ATOM      7  O   UNL     1      23.345   6.642  24.671  0.00  0.00    -0.169 OA
BRANCH   3  29
ATOM      1 CL   UNL     1      24.664   0.637  21.610  0.00  0.00    -0.084 Cl
ATOM     29  C   UNL     1      23.035   4.561  23.123  0.00  0.00    +0.089 A 
ATOM     31  C   UNL     1      23.713   4.511  21.906  0.00  0.00    +0.028 A 
ATOM     32  C   UNL     1      22.861   3.398  23.874  0.00  0.00    +0.028 A 
ATOM     34  C   UNL     1      24.217   3.297  21.438  0.00  0.00    +0.022 A 
ATOM     35  C   UNL     1      23.365   2.185  23.406  0.00  0.00    +0.022 A 
ATOM     36  C   UNL     1      24.043   2.134  22.188  0.00  0.00    +0.041 A 
ENDBRANCH   3  29
ENDBRANCH  26   3
ENDBRANCH  25  26
TORSDOF 8
ENDMDL
MODEL 2
REMARK VINA RESULT:      -7.3      4.325     10.794
REMARK  Name = 24148473
REMARK  12 active torsions:
REMARK  status: ('A' for Active; 'I' for Inactive)
REMARK    1  A    between atoms: S_3  and  C_26
REMARK    2  A    between atoms: S_3  and  C_29
REMARK    3  A    between atoms: O_4  and  C_12
REMARK    4  A    between atoms: N_9  and  C_27
REMARK    5  A    between atoms: N_9  and  C_28
REMARK    6  A    between atoms: C_10  and  C_18
REMARK    7  A    between atoms: C_13  and  C_19
REMARK    8  A    between atoms: C_15  and  C_22
REMARK    9  A    between atoms: C_19  and  C_23
REMARK   10  A    between atoms: C_19  and  C_24
REMARK   11  A    between atoms: C_25  and  C_26
REMARK   12  A    between atoms: C_27  and  C_30
REMARK                            x       y       z     vdW  Elec       q    Type
REMARK                         _______ _______ _______ _____ _____    ______ ____
ROOT
ATOM      2  S   UNL     1      16.571   9.691  20.738  0.00  0.00    -0.075 S 
ATOM      8  N   UNL     1      16.211   7.216  20.088  0.00  0.00    -0.247 NA
ATOM     10  C   UNL     1      20.071   7.795  21.772  0.00  0.00    -0.022 C 
ATOM     11  C   UNL     1      19.976   6.666  20.671  0.00  0.00    +0.033 C 
ATOM     12  C   UNL     1      20.966   5.503  20.964  0.00  0.00    +0.123 C 
ATOM     13  C   UNL     1      22.411   5.993  21.199  0.00  0.00    +0.029 C 
ATOM     14  C   UNL     1      21.543   8.246  21.928  0.00  0.00    +0.008 C 
ATOM     15  C   UNL     1      18.485   6.182  20.447  0.00  0.00    +0.042 C 
ATOM     16  C   UNL     1      22.489   7.097  22.253  0.00  0.00    +0.007 C 
ATOM     17  C   UNL     1      19.248   9.042  21.322  0.00  0.00    +0.051 C 
ATOM     18  C   UNL     1      19.543   7.312  23.147  0.00  0.00    +0.012 C 
ATOM     20  C   UNL     1      17.540   7.360  20.446  0.00  0.00    +0.055 A 
ATOM     21  C   UNL     1      17.898   8.630  20.850  0.00  0.00    +0.014 A 
ATOM     22  C   UNL     1      18.299   5.361  19.163  0.00  0.00    +0.014 C 
ATOM     25  C   UNL     1      15.608   8.379  20.193  0.00  0.00    +0.100 A 
ENDROOT
BRANCH  12   4
ATOM      4  O   UNL     1      20.998   4.615  19.848  0.00  0.00    -0.391 OA
ATOM     37  H   UNL     1      20.313   3.937  19.981  0.00  0.00    +0.210 HD
ENDBRANCH  12   4
BRANCH  13  19
ATOM     19  C   UNL     1      23.347   4.843  21.591  0.00  0.00    +0.078 C 
ATOM     23  C   UNL     1      23.940   5.120  22.972  0.00  0.00    +0.017 C 
BRANCH  19  24
ATOM      5  O   UNL     1      25.110   5.669  20.192  0.00  0.00    -0.275 OA
ATOM      9  N   UNL     1      24.704   3.395  20.057  0.00  0.00    -0.301 N 
ATOM     24  C   UNL     1      24.469   4.678  20.561  0.00  0.00    +0.219 C 
ATOM     28  C   UNL     1      25.746   3.204  19.054  0.00  0.00    +0.132 C 
BRANCH   9  27
ATOM     27  C   UNL     1      24.018   2.170  20.464  0.00  0.00    +0.134 C 
BRANCH  27  30
ATOM     30  C   UNL     1      24.869   1.438  21.448  0.00  0.00    -0.016 C 
ATOM     33  C   UNL     1      24.443   1.039  22.651  0.00  0.00    +0.005 C 
ENDBRANCH  27  30
ENDBRANCH   9  27
ENDBRANCH  19  24
ENDBRANCH  13  19
BRANCH  25  26
ATOM     26  C   UNL     1      14.182   8.615  19.881  0.00  0.00    +0.234 C 
BRANCH  26   3
ATOM      3  S   UNL     1      13.218   8.120  21.278  0.00  0.00    +0.003 S 
ATOM      6  O   UNL     1      14.118   7.703  22.338  0.00  0.00    -0.169 OA
ATOM      7  O   UNL     1      12.180   7.224  20.801  0.00  0.00    -0.169 OA
BRANCH   3  29
ATOM      1 CL   UNL     1      10.470  13.435  23.174  0.00  0.00    -0.084 Cl
ATOM     29  C   UNL     1      12.445   9.616  21.813  0.00  0.00    +0.089 A 
ATOM     31  C   UNL     1      11.398   9.570  22.733  0.00  0.00    +0.028 A 
ATOM     32  C   UNL     1      12.880  10.843  21.312  0.00  0.00    +0.028 A 
ATOM     34  C   UNL     1      10.788  10.751  23.155  0.00  0.00    +0.022 A 
ATOM     35  C   UNL     1      12.270  12.025  21.733  0.00  0.00    +0.022 A 
ATOM     36  C   UNL     1      11.223  11.979  22.654  0.00  0.00    +0.041 A 
ENDBRANCH   3  29
ENDBRANCH  26   3
ENDBRANCH  25  26
TORSDOF 8
ENDMDL
MODEL 3
REMARK VINA RESULT:      -6.8     29.279     32.623
REMARK  Name = 24148473
REMARK  12 active torsions:
REMARK  status: ('A' for Active; 'I' for Inactive)
REMARK    1  A    between atoms: S_3  and  C_26
REMARK    2  A    between atoms: S_3  and  C_29
REMARK    3  A    between atoms: O_4  and  C_12
REMARK    4  A    between atoms: N_9  and  C_27
REMARK    5  A    between atoms: N_9  and  C_28
REMARK    6  A    between atoms: C_10  and  C_18
REMARK    7  A    between atoms: C_13  and  C_19
REMARK    8  A    between atoms: C_15  and  C_22
REMARK    9  A    between atoms: C_19  and  C_23
REMARK   10  A    between atoms: C_19  and  C_24
REMARK   11  A    between atoms: C_25  and  C_26
REMARK   12  A    between atoms: C_27  and  C_30
REMARK                            x       y       z     vdW  Elec       q    Type
REMARK                         _______ _______ _______ _____ _____    ______ ____
ROOT
ATOM      2  S   UNL     1      -6.309  -9.583   6.929  0.00  0.00    -0.075 S 
ATOM      8  N   UNL     1      -7.374  -8.239   8.863  0.00  0.00    -0.247 NA
ATOM     10  C   UNL     1      -4.145 -10.619  10.269  0.00  0.00    -0.022 C 
ATOM     11  C   UNL     1      -5.322 -10.397  11.300  0.00  0.00    +0.033 C 
ATOM     12  C   UNL     1      -4.792 -10.346  12.761  0.00  0.00    +0.123 C 
ATOM     13  C   UNL     1      -3.900 -11.555  13.117  0.00  0.00    +0.029 C 
ATOM     14  C   UNL     1      -3.318 -11.859  10.683  0.00  0.00    +0.008 C 
ATOM     15  C   UNL     1      -6.221  -9.153  10.912  0.00  0.00    +0.042 C 
ATOM     16  C   UNL     1      -2.777 -11.771  12.104  0.00  0.00    +0.007 C 
ATOM     17  C   UNL     1      -4.732 -10.903   8.851  0.00  0.00    +0.051 C 
ATOM     18  C   UNL     1      -3.204  -9.390  10.187  0.00  0.00    +0.012 C 
ATOM     20  C   UNL     1      -6.469  -9.122   9.423  0.00  0.00    +0.055 A 
ATOM     21  C   UNL     1      -5.785  -9.906   8.516  0.00  0.00    +0.014 A 
ATOM     22  C   UNL     1      -7.559  -9.113  11.665  0.00  0.00    +0.014 C 
ATOM     25  C   UNL     1      -7.382  -8.400   7.558  0.00  0.00    +0.100 A 
ENDROOT
BRANCH  12   4
ATOM      4  O   UNL     1      -5.896 -10.355  13.666  0.00  0.00    -0.391 OA
ATOM     37  H   UNL     1      -6.373 -11.195  13.551  0.00  0.00    +0.210 HD
ENDBRANCH  12   4
BRANCH  13  19
ATOM     19  C   UNL     1      -3.304 -11.430  14.524  0.00  0.00    +0.078 C 
ATOM     23  C   UNL     1      -1.788 -11.604  14.450  0.00  0.00    +0.017 C 
BRANCH  19  24
ATOM      5  O   UNL     1      -3.841 -13.675  15.172  0.00  0.00    -0.275 OA
ATOM      9  N   UNL     1      -4.538 -12.017  16.628  0.00  0.00    -0.301 N 
ATOM     24  C   UNL     1      -3.907 -12.476  15.468  0.00  0.00    +0.219 C 
ATOM     28  C   UNL     1      -5.148 -12.983  17.536  0.00  0.00    +0.132 C 
BRANCH   9  27
ATOM     27  C   UNL     1      -4.630 -10.626  17.067  0.00  0.00    +0.134 C 
BRANCH  27  30
ATOM     30  C   UNL     1      -6.011 -10.364  17.570  0.00  0.00    -0.016 C 
ATOM     33  C   UNL     1      -6.903  -9.596  16.935  0.00  0.00    +0.005 C 
ENDBRANCH  27  30
ENDBRANCH   9  27
ENDBRANCH  19  24
ENDBRANCH  13  19
BRANCH  25  26
ATOM     26  C   UNL     1      -8.238  -7.636   6.625  0.00  0.00    +0.234 C 
BRANCH  26   3
ATOM      3  S   UNL     1      -9.924  -8.074   6.930  0.00  0.00    +0.003 S 
ATOM      6  O   UNL     1      -9.951  -9.326   7.664  0.00  0.00    -0.169 OA
ATOM      7  O   UNL     1     -10.647  -7.940   5.678  0.00  0.00    -0.169 OA
BRANCH   3  29
ATOM      1 CL   UNL     1     -11.964  -3.602  10.834  0.00  0.00    -0.084 Cl
ATOM     29  C   UNL     1     -10.498  -6.815   8.030  0.00  0.00    +0.089 A 
ATOM     31  C   UNL     1     -11.618  -7.044   8.827  0.00  0.00    +0.028 A 
ATOM     32  C   UNL     1      -9.830  -5.592   8.099  0.00  0.00    +0.028 A 
ATOM     34  C   UNL     1     -12.072  -6.050   9.695  0.00  0.00    +0.022 A 
ATOM     35  C   UNL     1     -10.283  -4.598   8.966  0.00  0.00    +0.022 A 
ATOM     36  C   UNL     1     -11.404  -4.827   9.764  0.00  0.00    +0.041 A 
ENDBRANCH   3  29
ENDBRANCH  26   3
ENDBRANCH  25  26
TORSDOF 8
ENDMDL
MODEL 4
REMARK VINA RESULT:      -6.5      2.489      3.635
REMARK  Name = 24148473
REMARK  12 active torsions:
REMARK  status: ('A' for Active; 'I' for Inactive)
REMARK    1  A    between atoms: S_3  and  C_26
REMARK    2  A    between atoms: S_3  and  C_29
REMARK    3  A    between atoms: O_4  and  C_12
REMARK    4  A    between atoms: N_9  and  C_27
REMARK    5  A    between atoms: N_9  and  C_28
REMARK    6  A    between atoms: C_10  and  C_18
REMARK    7  A    between atoms: C_13  and  C_19
REMARK    8  A    between atoms: C_15  and  C_22
REMARK    9  A    between atoms: C_19  and  C_23
REMARK   10  A    between atoms: C_19  and  C_24
REMARK   11  A    between atoms: C_25  and  C_26
REMARK   12  A    between atoms: C_27  and  C_30
REMARK                            x       y       z     vdW  Elec       q    Type
REMARK                         _______ _______ _______ _____ _____    ______ ____
ROOT
ATOM      2  S   UNL     1      21.523   7.911  22.089  0.00  0.00    -0.075 S 
ATOM      8  N   UNL     1      19.948   6.539  20.567  0.00  0.00    -0.247 NA
ATOM     10  C   UNL     1      18.097  10.167  21.786  0.00  0.00    -0.022 C 
ATOM     11  C   UNL     1      17.118   8.946  21.571  0.00  0.00    +0.033 C 
ATOM     12  C   UNL     1      15.731   9.418  21.049  0.00  0.00    +0.123 C 
ATOM     13  C   UNL     1      15.115  10.537  21.916  0.00  0.00    +0.029 C 
ATOM     14  C   UNL     1      17.416  11.229  22.681  0.00  0.00    +0.008 C 
ATOM     15  C   UNL     1      17.772   7.811  20.681  0.00  0.00    +0.042 C 
ATOM     16  C   UNL     1      16.078  11.704  22.132  0.00  0.00    +0.007 C 
ATOM     17  C   UNL     1      19.383   9.687  22.529  0.00  0.00    +0.051 C 
ATOM     18  C   UNL     1      18.508  10.826  20.444  0.00  0.00    +0.012 C 
ATOM     20  C   UNL     1      19.216   7.598  21.072  0.00  0.00    +0.055 A 
ATOM     21  C   UNL     1      19.922   8.454  21.892  0.00  0.00    +0.014 A 
ATOM     22  C   UNL     1      17.012   6.478  20.741  0.00  0.00    +0.014 C 
ATOM     25  C   UNL     1      21.172   6.597  21.043  0.00  0.00    +0.100 A 
ENDROOT
BRANCH  12   4
ATOM      4  O   UNL     1      14.819   8.320  21.069  0.00  0.00    -0.391 OA
ATOM     37  H   UNL     1      13.928   8.663  20.881  0.00  0.00    +0.210 HD
ENDBRANCH  12   4
BRANCH  13  19
ATOM     19  C   UNL     1      13.801  11.059  21.324  0.00  0.00    +0.078 C 
ATOM     23  C   UNL     1      13.950  12.543  20.988  0.00  0.00    +0.017 C 
BRANCH  19  24
ATOM      5  O   UNL     1      12.657  11.438  23.397  0.00  0.00    -0.275 OA
ATOM      9  N   UNL     1      11.613   9.989  21.925  0.00  0.00    -0.301 N 
ATOM     24  C   UNL     1      12.641  10.857  22.305  0.00  0.00    +0.219 C 
ATOM     28  C   UNL     1      10.507   9.751  22.846  0.00  0.00    +0.132 C 
BRANCH   9  27
ATOM     27  C   UNL     1      11.501   9.293  20.645  0.00  0.00    +0.134 C 
BRANCH  27  30
ATOM     30  C   UNL     1      10.902   7.944  20.874  0.00  0.00    -0.016 C 
ATOM     33  C   UNL     1      11.620   6.840  21.108  0.00  0.00    +0.005 C 
ENDBRANCH  27  30
ENDBRANCH   9  27
ENDBRANCH  19  24
ENDBRANCH  13  19
BRANCH  25  26
ATOM     26  C   UNL     1      22.238   5.620  20.732  0.00  0.00    +0.234 C 
BRANCH  26   3
ATOM      3  S   UNL     1      21.930   4.146  21.659  0.00  0.00    +0.003 S 
ATOM      6  O   UNL     1      21.094   3.265  20.862  0.00  0.00    -0.169 OA
ATOM      7  O   UNL     1      21.517   4.542  22.993  0.00  0.00    -0.169 OA
BRANCH   3  29
ATOM      1 CL   UNL     1      27.572   1.430  22.102  0.00  0.00    -0.084 Cl
ATOM     29  C   UNL     1      23.519   3.381  21.782  0.00  0.00    +0.089 A 
ATOM     31  C   UNL     1      23.716   2.097  21.277  0.00  0.00    +0.028 A 
ATOM     32  C   UNL     1      24.575   4.063  22.387  0.00  0.00    +0.028 A 
ATOM     34  C   UNL     1      24.969   1.493  21.376  0.00  0.00    +0.022 A 
ATOM     35  C   UNL     1      25.829   3.460  22.485  0.00  0.00    +0.022 A 
ATOM     36  C   UNL     1      26.026   2.175  21.980  0.00  0.00    +0.041 A 
ENDBRANCH   3  29
ENDBRANCH  26   3
ENDBRANCH  25  26
TORSDOF 8
ENDMDL
MODEL 5
REMARK VINA RESULT:      -6.4     28.864     32.125
REMARK  Name = 24148473
REMARK  12 active torsions:
REMARK  status: ('A' for Active; 'I' for Inactive)
REMARK    1  A    between atoms: S_3  and  C_26
REMARK    2  A    between atoms: S_3  and  C_29
REMARK    3  A    between atoms: O_4  and  C_12
REMARK    4  A    between atoms: N_9  and  C_27
REMARK    5  A    between atoms: N_9  and  C_28
REMARK    6  A    between atoms: C_10  and  C_18
REMARK    7  A    between atoms: C_13  and  C_19
REMARK    8  A    between atoms: C_15  and  C_22
REMARK    9  A    between atoms: C_19  and  C_23
REMARK   10  A    between atoms: C_19  and  C_24
REMARK   11  A    between atoms: C_25  and  C_26
REMARK   12  A    between atoms: C_27  and  C_30
REMARK                            x       y       z     vdW  Elec       q    Type
REMARK                         _______ _______ _______ _____ _____    ______ ____
ROOT
ATOM      2  S   UNL     1      -4.485 -11.926   8.110  0.00  0.00    -0.075 S 
ATOM      8  N   UNL     1      -5.525  -9.698   8.906  0.00  0.00    -0.247 NA
ATOM     10  C   UNL     1      -3.631 -11.723  12.128  0.00  0.00    -0.022 C 
ATOM     11  C   UNL     1      -4.897 -10.863  12.520  0.00  0.00    +0.033 C 
ATOM     12  C   UNL     1      -4.752 -10.258  13.945  0.00  0.00    +0.123 C 
ATOM     13  C   UNL     1      -4.391 -11.317  15.010  0.00  0.00    +0.029 C 
ATOM     14  C   UNL     1      -3.353 -12.771  13.232  0.00  0.00    +0.008 C 
ATOM     15  C   UNL     1      -5.248  -9.787  11.412  0.00  0.00    +0.042 C 
ATOM     16  C   UNL     1      -3.177 -12.154  14.612  0.00  0.00    +0.007 C 
ATOM     17  C   UNL     1      -3.911 -12.502  10.805  0.00  0.00    +0.051 C 
ATOM     18  C   UNL     1      -2.368 -10.845  11.937  0.00  0.00    +0.012 C 
ATOM     20  C   UNL     1      -5.101 -10.381  10.031  0.00  0.00    +0.055 A 
ATOM     21  C   UNL     1      -4.491 -11.593   9.779  0.00  0.00    +0.014 A 
ATOM     22  C   UNL     1      -6.650  -9.183  11.575  0.00  0.00    +0.014 C 
ATOM     25  C   UNL     1      -5.262 -10.420   7.839  0.00  0.00    +0.100 A 
ENDROOT
BRANCH  12   4
ATOM      4  O   UNL     1      -5.992  -9.670  14.338  0.00  0.00    -0.391 OA
ATOM     37  H   UNL     1      -6.111  -8.849  13.830  0.00  0.00    +0.210 HD
ENDBRANCH  12   4
BRANCH  13  19
ATOM     19  C   UNL     1      -4.150 -10.683  16.385  0.00  0.00    +0.078 C 
ATOM     23  C   UNL     1      -2.650 -10.672  16.682  0.00  0.00    +0.017 C 
BRANCH  19  24
ATOM      5  O   UNL     1      -4.455 -12.540  17.870  0.00  0.00    -0.275 OA
ATOM      9  N   UNL     1      -6.076 -10.892  17.978  0.00  0.00    -0.301 N 
ATOM     24  C   UNL     1      -4.896 -11.453  17.480  0.00  0.00    +0.219 C 
ATOM     28  C   UNL     1      -6.827 -11.611  19.002  0.00  0.00    +0.132 C 
BRANCH   9  27
ATOM     27  C   UNL     1      -6.645  -9.601  17.598  0.00  0.00    +0.134 C 
BRANCH  27  30
ATOM     30  C   UNL     1      -8.088  -9.785  17.260  0.00  0.00    -0.016 C 
ATOM     33  C   UNL     1      -8.950  -8.775  17.099  0.00  0.00    +0.005 C 
ENDBRANCH  27  30
ENDBRANCH   9  27
ENDBRANCH  19  24
ENDBRANCH  13  19
BRANCH  25  26
ATOM     26  C   UNL     1      -5.585 -10.016   6.454  0.00  0.00    +0.234 C 
BRANCH  26   3
ATOM      3  S   UNL     1      -7.309 -10.300   6.180  0.00  0.00    +0.003 S 
ATOM      6  O   UNL     1      -7.709 -11.478   6.929  0.00  0.00    -0.169 OA
ATOM      7  O   UNL     1      -7.545 -10.224   4.749  0.00  0.00    -0.169 OA
BRANCH   3  29
ATOM      1 CL   UNL     1     -10.103  -5.365   8.871  0.00  0.00    -0.084 Cl
ATOM     29  C   UNL     1      -8.095  -8.910   6.938  0.00  0.00    +0.089 A 
ATOM     31  C   UNL     1      -8.836  -9.081   8.107  0.00  0.00    +0.028 A 
ATOM     32  C   UNL     1      -7.975  -7.644   6.365  0.00  0.00    +0.028 A 
ATOM     34  C   UNL     1      -9.457  -7.984   8.705  0.00  0.00    +0.022 A 
ATOM     35  C   UNL     1      -8.596  -6.547   6.963  0.00  0.00    +0.022 A 
ATOM     36  C   UNL     1      -9.337  -6.717   8.133  0.00  0.00    +0.041 A 
ENDBRANCH   3  29
ENDBRANCH  26   3
ENDBRANCH  25  26
TORSDOF 8
ENDMDL
MODEL 6
REMARK VINA RESULT:      -6.3      3.889     10.978
REMARK  Name = 24148473
REMARK  12 active torsions:
REMARK  status: ('A' for Active; 'I' for Inactive)
REMARK    1  A    between atoms: S_3  and  C_26
REMARK    2  A    between atoms: S_3  and  C_29
REMARK    3  A    between atoms: O_4  and  C_12
REMARK    4  A    between atoms: N_9  and  C_27
REMARK    5  A    between atoms: N_9  and  C_28
REMARK    6  A    between atoms: C_10  and  C_18
REMARK    7  A    between atoms: C_13  and  C_19
REMARK    8  A    between atoms: C_15  and  C_22
REMARK    9  A    between atoms: C_19  and  C_23
REMARK   10  A    between atoms: C_19  and  C_24
REMARK   11  A    between atoms: C_25  and  C_26
REMARK   12  A    between atoms: C_27  and  C_30
REMARK                            x       y       z     vdW  Elec       q    Type
REMARK                         _______ _______ _______ _____ _____    ______ ____
ROOT
ATOM      2  S   UNL     1      17.871   6.324  19.802  0.00  0.00    -0.075 S 
ATOM      8  N   UNL     1      18.690   7.862  21.711  0.00  0.00    -0.247 NA
ATOM     10  C   UNL     1      21.462   4.718  21.002  0.00  0.00    -0.022 C 
ATOM     11  C   UNL     1      21.370   5.214  22.499  0.00  0.00    +0.033 C 
ATOM     12  C   UNL     1      22.745   5.105  23.217  0.00  0.00    +0.123 C 
ATOM     13  C   UNL     1      23.379   3.703  23.086  0.00  0.00    +0.029 C 
ATOM     14  C   UNL     1      22.084   3.302  20.960  0.00  0.00    +0.008 C 
ATOM     15  C   UNL     1      20.715   6.651  22.606  0.00  0.00    +0.042 C 
ATOM     16  C   UNL     1      23.446   3.227  21.636  0.00  0.00    +0.007 C 
ATOM     17  C   UNL     1      20.030   4.615  20.390  0.00  0.00    +0.051 C 
ATOM     18  C   UNL     1      22.316   5.669  20.125  0.00  0.00    +0.012 C 
ATOM     20  C   UNL     1      19.537   6.768  21.668  0.00  0.00    +0.055 A 
ATOM     21  C   UNL     1      19.253   5.852  20.677  0.00  0.00    +0.014 A 
ATOM     22  C   UNL     1      20.284   7.017  24.034  0.00  0.00    +0.014 C 
ATOM     25  C   UNL     1      17.770   7.729  20.781  0.00  0.00    +0.100 A 
ENDROOT
BRANCH  12   4
ATOM      4  O   UNL     1      22.572   5.362  24.610  0.00  0.00    -0.391 OA
ATOM     37  H   UNL     1      22.452   6.320  24.729  0.00  0.00    +0.210 HD
ENDBRANCH  12   4
BRANCH  13  19
ATOM     19  C   UNL     1      24.779   3.650  23.709  0.00  0.00    +0.078 C 
ATOM     23  C   UNL     1      25.606   4.829  23.198  0.00  0.00    +0.017 C 
BRANCH  19  24
ATOM      5  O   UNL     1      26.273   2.287  22.422  0.00  0.00    -0.275 OA
ATOM      9  N   UNL     1      25.161   1.209  24.142  0.00  0.00    -0.301 N 
ATOM     24  C   UNL     1      25.478   2.330  23.369  0.00  0.00    +0.219 C 
ATOM     28  C   UNL     1      25.787  -0.071  23.828  0.00  0.00    +0.132 C 
BRANCH   9  27
ATOM     27  C   UNL     1      24.262   1.183  25.294  0.00  0.00    +0.134 C 
BRANCH  27  30
ATOM     30  C   UNL     1      23.077   0.336  24.969  0.00  0.00    -0.016 C 
ATOM     33  C   UNL     1      21.821   0.647  25.310  0.00  0.00    +0.005 C 
ENDBRANCH  27  30
ENDBRANCH   9  27
ENDBRANCH  19  24
ENDBRANCH  13  19
BRANCH  25  26
ATOM     26  C   UNL     1      16.682   8.700  20.536  0.00  0.00    +0.234 C 
BRANCH  26   3
ATOM      3  S   UNL     1      15.220   8.114  21.339  0.00  0.00    +0.003 S 
ATOM      6  O   UNL     1      14.859   9.054  22.387  0.00  0.00    -0.169 OA
ATOM      7  O   UNL     1      15.421   6.710  21.649  0.00  0.00    -0.169 OA
BRANCH   3  29
ATOM      1 CL   UNL     1      10.795   8.509  16.904  0.00  0.00    -0.084 Cl
ATOM     29  C   UNL     1      13.974   8.226  20.091  0.00  0.00    +0.089 A 
ATOM     31  C   UNL     1      12.670   8.578  20.436  0.00  0.00    +0.028 A 
ATOM     32  C   UNL     1      14.296   7.961  18.759  0.00  0.00    +0.028 A 
ATOM     34  C   UNL     1      11.687   8.666  19.451  0.00  0.00    +0.022 A 
ATOM     35  C   UNL     1      13.313   8.049  17.774  0.00  0.00    +0.022 A 
ATOM     36  C   UNL     1      12.008   8.401  18.119  0.00  0.00    +0.041 A 
ENDBRANCH   3  29
ENDBRANCH  26   3
ENDBRANCH  25  26
TORSDOF 8
ENDMDL
MODEL 7
REMARK VINA RESULT:      -6.3     29.565     32.250
REMARK  Name = 24148473
REMARK  12 active torsions:
REMARK  status: ('A' for Active; 'I' for Inactive)
REMARK    1  A    between atoms: S_3  and  C_26
REMARK    2  A    between atoms: S_3  and  C_29
REMARK    3  A    between atoms: O_4  and  C_12
REMARK    4  A    between atoms: N_9  and  C_27
REMARK    5  A    between atoms: N_9  and  C_28
REMARK    6  A    between atoms: C_10  and  C_18
REMARK    7  A    between atoms: C_13  and  C_19
REMARK    8  A    between atoms: C_15  and  C_22
REMARK    9  A    between atoms: C_19  and  C_23
REMARK   10  A    between atoms: C_19  and  C_24
REMARK   11  A    between atoms: C_25  and  C_26
REMARK   12  A    between atoms: C_27  and  C_30
REMARK                            x       y       z     vdW  Elec       q    Type
REMARK                         _______ _______ _______ _____ _____    ______ ____
ROOT
ATOM      2  S   UNL     1      -3.510 -12.034  11.471  0.00  0.00    -0.075 S 
ATOM      8  N   UNL     1      -5.172 -10.055  11.528  0.00  0.00    -0.247 NA
ATOM     10  C   UNL     1      -4.656 -11.713  15.408  0.00  0.00    -0.022 C 
ATOM     11  C   UNL     1      -6.088 -11.116  15.112  0.00  0.00    +0.033 C 
ATOM     12  C   UNL     1      -6.725 -10.510  16.395  0.00  0.00    +0.123 C 
ATOM     13  C   UNL     1      -6.717 -11.491  17.587  0.00  0.00    +0.029 C 
ATOM     14  C   UNL     1      -4.739 -12.701  16.596  0.00  0.00    +0.008 C 
ATOM     15  C   UNL     1      -6.070 -10.116  13.885  0.00  0.00    +0.042 C 
ATOM     16  C   UNL     1      -5.330 -12.076  17.852  0.00  0.00    +0.007 C 
ATOM     17  C   UNL     1      -4.153 -12.518  14.169  0.00  0.00    +0.051 C 
ATOM     18  C   UNL     1      -3.622 -10.608  15.743  0.00  0.00    +0.012 C 
ATOM     20  C   UNL     1      -5.202 -10.656  12.773  0.00  0.00    +0.055 A 
ATOM     21  C   UNL     1      -4.344 -11.726  12.923  0.00  0.00    +0.014 A 
ATOM     22  C   UNL     1      -7.471  -9.793  13.344  0.00  0.00    +0.014 C 
ATOM     25  C   UNL     1      -4.325 -10.702  10.758  0.00  0.00    +0.100 A 
ENDROOT
BRANCH  12   4
ATOM      4  O   UNL     1      -8.087 -10.174  16.134  0.00  0.00    -0.391 OA
ATOM     37  H   UNL     1      -8.244 -10.270  15.178  0.00  0.00    +0.210 HD
ENDBRANCH  12   4
BRANCH  13  19
ATOM     19  C   UNL     1      -7.251 -10.837  18.867  0.00  0.00    +0.078 C 
ATOM     23  C   UNL     1      -6.082 -10.507  19.794  0.00  0.00    +0.017 C 
BRANCH  19  24
ATOM      5  O   UNL     1      -7.830 -12.795  20.124  0.00  0.00    -0.275 OA
ATOM      9  N   UNL     1      -9.594 -11.406  19.562  0.00  0.00    -0.301 N 
ATOM     24  C   UNL     1      -8.242 -11.763  19.581  0.00  0.00    +0.219 C 
ATOM     28  C   UNL     1     -10.569 -12.278  20.207  0.00  0.00    +0.132 C 
BRANCH   9  27
ATOM     27  C   UNL     1     -10.157 -10.192  18.975  0.00  0.00    +0.134 C 
BRANCH  27  30
ATOM     30  C   UNL     1     -11.575 -10.049  19.417  0.00  0.00    -0.016 C 
ATOM     33  C   UNL     1     -12.574  -9.675  18.610  0.00  0.00    +0.005 C 
ENDBRANCH  27  30
ENDBRANCH   9  27
ENDBRANCH  19  24
ENDBRANCH  13  19
BRANCH  25  26
ATOM     26  C   UNL     1      -4.038 -10.353   9.350  0.00  0.00    +0.234 C 
BRANCH  26   3
ATOM      3  S   UNL     1      -5.085 -11.328   8.310  0.00  0.00    +0.003 S 
ATOM      6  O   UNL     1      -5.916 -12.171   9.151  0.00  0.00    -0.169 OA
ATOM      7  O   UNL     1      -4.253 -11.916   7.276  0.00  0.00    -0.169 OA
BRANCH   3  29
ATOM      1 CL   UNL     1      -8.869  -7.116   5.602  0.00  0.00    -0.084 Cl
ATOM     29  C   UNL     1      -6.151 -10.143   7.548  0.00  0.00    +0.089 A 
ATOM     31  C   UNL     1      -6.107  -9.953   6.167  0.00  0.00    +0.028 A 
ATOM     32  C   UNL     1      -7.035  -9.397   8.328  0.00  0.00    +0.028 A 
ATOM     34  C   UNL     1      -6.948  -9.017   5.565  0.00  0.00    +0.022 A 
ATOM     35  C   UNL     1      -7.876  -8.461   7.726  0.00  0.00    +0.022 A 
ATOM     36  C   UNL     1      -7.832  -8.270   6.345  0.00  0.00    +0.041 A 
ENDBRANCH   3  29
ENDBRANCH  26   3
ENDBRANCH  25  26
TORSDOF 8
ENDMDL
MODEL 8
REMARK VINA RESULT:      -6.1     29.226     33.352
REMARK  Name = 24148473
REMARK  12 active torsions:
REMARK  status: ('A' for Active; 'I' for Inactive)
REMARK    1  A    between atoms: S_3  and  C_26
REMARK    2  A    between atoms: S_3  and  C_29
REMARK    3  A    between atoms: O_4  and  C_12
REMARK    4  A    between atoms: N_9  and  C_27
REMARK    5  A    between atoms: N_9  and  C_28
REMARK    6  A    between atoms: C_10  and  C_18
REMARK    7  A    between atoms: C_13  and  C_19
REMARK    8  A    between atoms: C_15  and  C_22
REMARK    9  A    between atoms: C_19  and  C_23
REMARK   10  A    between atoms: C_19  and  C_24
REMARK   11  A    between atoms: C_25  and  C_26
REMARK   12  A    between atoms: C_27  and  C_30
REMARK                            x       y       z     vdW  Elec       q    Type
REMARK                         _______ _______ _______ _____ _____    ______ ____
ROOT
ATOM      2  S   UNL     1      -5.827  -9.979   6.466  0.00  0.00    -0.075 S 
ATOM      8  N   UNL     1      -7.257  -8.591   8.111  0.00  0.00    -0.247 NA
ATOM     10  C   UNL     1      -4.074 -10.542  10.144  0.00  0.00    -0.022 C 
ATOM     11  C   UNL     1      -5.397 -10.350  10.985  0.00  0.00    +0.033 C 
ATOM     12  C   UNL     1      -5.083 -10.134  12.493  0.00  0.00    +0.123 C 
ATOM     13  C   UNL     1      -4.155 -11.223  13.072  0.00  0.00    +0.029 C 
ATOM     14  C   UNL     1      -3.215 -11.663  10.774  0.00  0.00    +0.008 C 
ATOM     15  C   UNL     1      -6.332  -9.230  10.370  0.00  0.00    +0.042 C 
ATOM     16  C   UNL     1      -2.887 -11.413  12.240  0.00  0.00    +0.007 C 
ATOM     17  C   UNL     1      -4.432 -10.990   8.692  0.00  0.00    +0.051 C 
ATOM     18  C   UNL     1      -3.234  -9.241  10.075  0.00  0.00    +0.012 C 
ATOM     20  C   UNL     1      -6.370  -9.340   8.864  0.00  0.00    +0.055 A 
ATOM     21  C   UNL     1      -5.505 -10.126   8.131  0.00  0.00    +0.014 A 
ATOM     22  C   UNL     1      -7.761  -9.255  10.933  0.00  0.00    +0.014 C 
ATOM     25  C   UNL     1      -7.069  -8.855   6.837  0.00  0.00    +0.100 A 
ENDROOT
BRANCH  12   4
ATOM      4  O   UNL     1      -6.298 -10.174  13.240  0.00  0.00    -0.391 OA
ATOM     37  H   UNL     1      -6.133  -9.765  14.107  0.00  0.00    +0.210 HD
ENDBRANCH  12   4
BRANCH  13  19
ATOM     19  C   UNL     1      -3.774 -10.932  14.529  0.00  0.00    +0.078 C 
ATOM     23  C   UNL     1      -2.278 -10.631  14.611  0.00  0.00    +0.017 C 
BRANCH  19  24
ATOM      5  O   UNL     1      -3.996 -13.272  14.999  0.00  0.00    -0.275 OA
ATOM      9  N   UNL     1      -4.595 -11.842  16.717  0.00  0.00    -0.301 N 
ATOM     24  C   UNL     1      -4.121 -12.121  15.432  0.00  0.00    +0.219 C 
ATOM     28  C   UNL     1      -4.961 -12.948  17.595  0.00  0.00    +0.132 C 
BRANCH   9  27
ATOM     27  C   UNL     1      -4.738 -10.516  17.316  0.00  0.00    +0.134 C 
BRANCH  27  30
ATOM     30  C   UNL     1      -6.190 -10.213  17.487  0.00  0.00    -0.016 C 
ATOM     33  C   UNL     1      -6.917  -9.525  16.599  0.00  0.00    +0.005 C 
ENDBRANCH  27  30
ENDBRANCH   9  27
ENDBRANCH  19  24
ENDBRANCH  13  19
BRANCH  25  26
ATOM     26  C   UNL     1      -7.846  -8.250   5.734  0.00  0.00    +0.234 C 
BRANCH  26   3
ATOM      3  S   UNL     1      -9.314  -9.206   5.496  0.00  0.00    +0.003 S 
ATOM      6  O   UNL     1     -10.429  -8.501   6.104  0.00  0.00    -0.169 OA
ATOM      7  O   UNL     1      -9.015 -10.575   5.878  0.00  0.00    -0.169 OA
BRANCH   3  29
ATOM      1 CL   UNL     1     -10.215  -9.079  -0.715  0.00  0.00    -0.084 Cl
ATOM     29  C   UNL     1      -9.568  -9.169   3.748  0.00  0.00    +0.089 A 
ATOM     31  C   UNL     1     -10.861  -9.080   3.233  0.00  0.00    +0.028 A 
ATOM     32  C   UNL     1      -8.475  -9.231   2.883  0.00  0.00    +0.028 A 
ATOM     34  C   UNL     1     -11.061  -9.052   1.852  0.00  0.00    +0.022 A 
ATOM     35  C   UNL     1      -8.675  -9.203   1.503  0.00  0.00    +0.022 A 
ATOM     36  C   UNL     1      -9.968  -9.114   0.987  0.00  0.00    +0.041 A 
ENDBRANCH   3  29
ENDBRANCH  26   3
ENDBRANCH  25  26
TORSDOF 8
ENDMDL
MODEL 9
REMARK VINA RESULT:      -6.1     16.954     21.830
REMARK  Name = 24148473
REMARK  12 active torsions:
REMARK  status: ('A' for Active; 'I' for Inactive)
REMARK    1  A    between atoms: S_3  and  C_26
REMARK    2  A    between atoms: S_3  and  C_29
REMARK    3  A    between atoms: O_4  and  C_12
REMARK    4  A    between atoms: N_9  and  C_27
REMARK    5  A    between atoms: N_9  and  C_28
REMARK    6  A    between atoms: C_10  and  C_18
REMARK    7  A    between atoms: C_13  and  C_19
REMARK    8  A    between atoms: C_15  and  C_22
REMARK    9  A    between atoms: C_19  and  C_23
REMARK   10  A    between atoms: C_19  and  C_24
REMARK   11  A    between atoms: C_25  and  C_26
REMARK   12  A    between atoms: C_27  and  C_30
REMARK                            x       y       z     vdW  Elec       q    Type
REMARK                         _______ _______ _______ _____ _____    ______ ____
ROOT
ATOM      2  S   UNL     1      12.367   7.792   4.271  0.00  0.00    -0.075 S 
ATOM      8  N   UNL     1      10.473   8.556   2.687  0.00  0.00    -0.247 NA
ATOM     10  C   UNL     1      12.201   4.913   1.338  0.00  0.00    -0.022 C 
ATOM     11  C   UNL     1      11.668   5.871   0.201  0.00  0.00    +0.033 C 
ATOM     12  C   UNL     1      11.125   5.063  -1.012  0.00  0.00    +0.123 C 
ATOM     13  C   UNL     1      12.134   4.016  -1.532  0.00  0.00    +0.029 C 
ATOM     14  C   UNL     1      13.220   3.914   0.741  0.00  0.00    +0.008 C 
ATOM     15  C   UNL     1      10.637   6.936   0.759  0.00  0.00    +0.042 C 
ATOM     16  C   UNL     1      12.657   3.107  -0.420  0.00  0.00    +0.007 C 
ATOM     17  C   UNL     1      12.949   5.748   2.424  0.00  0.00    +0.051 C 
ATOM     18  C   UNL     1      11.055   4.119   2.016  0.00  0.00    +0.012 C 
ATOM     20  C   UNL     1      11.107   7.482   2.087  0.00  0.00    +0.055 A 
ATOM     21  C   UNL     1      12.137   6.931   2.821  0.00  0.00    +0.014 A 
ATOM     22  C   UNL     1      10.370   8.092  -0.216  0.00  0.00    +0.014 C 
ATOM     25  C   UNL     1      11.059   8.814   3.835  0.00  0.00    +0.100 A 
ENDROOT
BRANCH  12   4
ATOM      4  O   UNL     1      10.851   5.956  -2.091  0.00  0.00    -0.391 OA
ATOM     37  H   UNL     1       9.887   5.979  -2.226  0.00  0.00    +0.210 HD
ENDBRANCH  12   4
BRANCH  13  19
ATOM     19  C   UNL     1      11.539   3.160  -2.657  0.00  0.00    +0.078 C 
ATOM     23  C   UNL     1      11.714   1.681  -2.315  0.00  0.00    +0.017 C 
BRANCH  19  24
ATOM      5  O   UNL     1      13.398   3.830  -4.014  0.00  0.00    -0.275 OA
ATOM      9  N   UNL     1      11.439   3.364  -5.155  0.00  0.00    -0.301 N 
ATOM     24  C   UNL     1      12.214   3.473  -3.996  0.00  0.00    +0.219 C 
ATOM     28  C   UNL     1      12.041   3.681  -6.446  0.00  0.00    +0.132 C 
BRANCH   9  27
ATOM     27  C   UNL     1      10.049   2.918  -5.224  0.00  0.00    +0.134 C 
BRANCH  27  30
ATOM     30  C   UNL     1       9.160   4.110  -5.351  0.00  0.00    -0.016 C 
ATOM     33  C   UNL     1       8.514   4.671  -4.323  0.00  0.00    +0.005 C 
ENDBRANCH  27  30
ENDBRANCH   9  27
ENDBRANCH  19  24
ENDBRANCH  13  19
BRANCH  25  26
ATOM     26  C   UNL     1      10.662   9.904   4.751  0.00  0.00    +0.234 C 
BRANCH  26   3
ATOM      3  S   UNL     1       9.055   9.535   5.392  0.00  0.00    +0.003 S 
ATOM      6  O   UNL     1       8.150   9.321   4.277  0.00  0.00    -0.169 OA
ATOM      7  O   UNL     1       8.748  10.527   6.407  0.00  0.00    -0.169 OA
BRANCH   3  29
ATOM      1 CL   UNL     1       9.799   3.997   8.251  0.00  0.00    -0.084 Cl
ATOM     29  C   UNL     1       9.265   7.976   6.196  0.00  0.00    +0.089 A 
ATOM     31  C   UNL     1       8.923   6.798   5.534  0.00  0.00    +0.028 A 
ATOM     32  C   UNL     1       9.772   7.924   7.495  0.00  0.00    +0.028 A 
ATOM     34  C   UNL     1       9.089   5.567   6.169  0.00  0.00    +0.022 A 
ATOM     35  C   UNL     1       9.938   6.694   8.130  0.00  0.00    +0.022 A 
ATOM     36  C   UNL     1       9.596   5.515   7.468  0.00  0.00    +0.041 A 
ENDBRANCH   3  29
ENDBRANCH  26   3
ENDBRANCH  25  26
TORSDOF 8
ENDMDL
MODEL 10
REMARK VINA RESULT:      -6.1     30.475     34.564
REMARK  Name = 24148473
REMARK  12 active torsions:
REMARK  status: ('A' for Active; 'I' for Inactive)
REMARK    1  A    between atoms: S_3  and  C_26
REMARK    2  A    between atoms: S_3  and  C_29
REMARK    3  A    between atoms: O_4  and  C_12
REMARK    4  A    between atoms: N_9  and  C_27
REMARK    5  A    between atoms: N_9  and  C_28
REMARK    6  A    between atoms: C_10  and  C_18
REMARK    7  A    between atoms: C_13  and  C_19
REMARK    8  A    between atoms: C_15  and  C_22
REMARK    9  A    between atoms: C_19  and  C_23
REMARK   10  A    between atoms: C_19  and  C_24
REMARK   11  A    between atoms: C_25  and  C_26
REMARK   12  A    between atoms: C_27  and  C_30
REMARK                            x       y       z     vdW  Elec       q    Type
REMARK                         _______ _______ _______ _____ _____    ______ ____
ROOT
ATOM      2  S   UNL     1     -13.553  -7.135  10.705  0.00  0.00    -0.075 S 
ATOM      8  N   UNL     1     -12.445  -5.099   9.560  0.00  0.00    -0.247 NA
ATOM     10  C   UNL     1     -10.671  -8.731   8.243  0.00  0.00    -0.022 C 
ATOM     11  C   UNL     1      -9.701  -7.485   8.300  0.00  0.00    +0.033 C 
ATOM     12  C   UNL     1      -8.622  -7.556   7.182  0.00  0.00    +0.123 C 
ATOM     13  C   UNL     1      -7.869  -8.904   7.161  0.00  0.00    +0.029 C 
ATOM     14  C   UNL     1      -9.842 -10.037   8.249  0.00  0.00    +0.008 C 
ATOM     15  C   UNL     1     -10.496  -6.116   8.322  0.00  0.00    +0.042 C 
ATOM     16  C   UNL     1      -8.818 -10.101   7.124  0.00  0.00    +0.007 C 
ATOM     17  C   UNL     1     -11.580  -8.750   9.511  0.00  0.00    +0.051 C 
ATOM     18  C   UNL     1     -11.569  -8.711   6.979  0.00  0.00    +0.012 C 
ATOM     20  C   UNL     1     -11.697  -6.216   9.232  0.00  0.00    +0.055 A 
ATOM     21  C   UNL     1     -12.173  -7.405   9.746  0.00  0.00    +0.014 A 
ATOM     22  C   UNL     1      -9.629  -4.917   8.731  0.00  0.00    +0.014 C 
ATOM     25  C   UNL     1     -13.440  -5.462  10.340  0.00  0.00    +0.100 A 
ENDROOT
BRANCH  12   4
ATOM      4  O   UNL     1      -7.650  -6.533   7.397  0.00  0.00    -0.391 OA
ATOM     37  H   UNL     1      -7.920  -5.748   6.890  0.00  0.00    +0.210 HD
ENDBRANCH  12   4
BRANCH  13  19
ATOM     19  C   UNL     1      -6.887  -8.991   5.987  0.00  0.00    +0.078 C 
ATOM     23  C   UNL     1      -7.665  -8.956   4.672  0.00  0.00    +0.017 C 
BRANCH  19  24
ATOM      5  O   UNL     1      -6.136 -11.115   5.168  0.00  0.00    -0.275 OA
ATOM      9  N   UNL     1      -5.234 -10.443   7.191  0.00  0.00    -0.301 N 
ATOM     24  C   UNL     1      -6.050 -10.272   6.069  0.00  0.00    +0.219 C 
ATOM     28  C   UNL     1      -4.444 -11.664   7.316  0.00  0.00    +0.132 C 
BRANCH   9  27
ATOM     27  C   UNL     1      -5.050  -9.484   8.278  0.00  0.00    +0.134 C 
BRANCH  27  30
ATOM     30  C   UNL     1      -4.106 -10.060   9.282  0.00  0.00    -0.016 C 
ATOM     33  C   UNL     1      -3.311  -9.324  10.065  0.00  0.00    +0.005 C 
ENDBRANCH  27  30
ENDBRANCH   9  27
ENDBRANCH  19  24
ENDBRANCH  13  19
BRANCH  25  26
ATOM     26  C   UNL     1     -14.444  -4.533  10.902  0.00  0.00    +0.234 C 
BRANCH  26   3
ATOM      3  S   UNL     1     -13.717  -3.694  12.279  0.00  0.00    +0.003 S 
ATOM      6  O   UNL     1     -14.696  -2.772  12.828  0.00  0.00    -0.169 OA
ATOM      7  O   UNL     1     -12.411  -3.216  11.863  0.00  0.00    -0.169 OA
BRANCH   3  29
ATOM      1 CL   UNL     1     -12.864  -8.226  16.537  0.00  0.00    -0.084 Cl
ATOM     29  C   UNL     1     -13.477  -4.970  13.477  0.00  0.00    +0.089 A 
ATOM     31  C   UNL     1     -14.573  -5.670  13.979  0.00  0.00    +0.028 A 
ATOM     32  C   UNL     1     -12.190  -5.276  13.921  0.00  0.00    +0.028 A 
ATOM     34  C   UNL     1     -14.384  -6.677  14.925  0.00  0.00    +0.022 A 
ATOM     35  C   UNL     1     -12.001  -6.283  14.867  0.00  0.00    +0.022 A 
ATOM     36  C   UNL     1     -13.097  -6.984  15.370  0.00  0.00    +0.041 A 
ENDBRANCH   3  29
ENDBRANCH  26   3
ENDBRANCH  25  26
TORSDOF 8
ENDMDL
