MODEL 1
REMARK VINA RESULT:      -7.2      0.000      0.000
REMARK  Name = 7675150
REMARK  4 active torsions:
REMARK  status: ('A' for Active; 'I' for Inactive)
REMARK    1  A    between atoms: N_5  and  C_14
REMARK    2  A    between atoms: C_14  and  C_16
REMARK    3  A    between atoms: C_14  and  C_17
REMARK    4  A    between atoms: C_15  and  C_18
REMARK                            x       y       z     vdW  Elec       q    Type
REMARK                         _______ _______ _______ _____ _____    ______ ____
ROOT
ATOM      1  O   UNL     1      12.539  13.049  20.641  0.00  0.00    -0.273 OA
ATOM      2  O   UNL     1      10.237  12.096  24.519  0.00  0.00    -0.252 OA
ATOM      3  O   UNL     1      11.429   6.460  20.744  0.00  0.00    -0.270 OA
ATOM      4  N   UNL     1      11.382  10.760  22.975  0.00  0.00    -0.271 N 
ATOM      5  N   UNL     1      11.366  12.961  22.661  0.00  0.00    -0.217 N 
ATOM      6  N   UNL     1      11.289   8.748  21.057  0.00  0.00    -0.294 N 
ATOM      8  C   UNL     1      12.150  10.933  21.760  0.00  0.00    +0.181 C 
ATOM      9  C   UNL     1      11.519  10.142  20.624  0.00  0.00    +0.140 C 
ATOM     10  C   UNL     1      11.069   9.415  23.425  0.00  0.00    +0.129 C 
ATOM     11  C   UNL     1      10.467   8.613  22.270  0.00  0.00    +0.127 C 
ATOM     12  C   UNL     1      12.059  12.438  21.587  0.00  0.00    +0.246 C 
ATOM     13  C   UNL     1      10.920  11.962  23.511  0.00  0.00    +0.312 C 
ATOM     15  C   UNL     1      11.716   7.598  20.370  0.00  0.00    +0.248 C 
ENDROOT
BRANCH  15  18
ATOM      7  N   UNL     1      12.641   8.190  16.800  0.00  0.00    -0.263 NA
ATOM     18  C   UNL     1      12.533   7.796  19.177  0.00  0.00    +0.055 A 
ATOM     23  C   UNL     1      13.918   7.783  19.253  0.00  0.00    +0.016 A 
ATOM     24  C   UNL     1      11.944   8.001  17.943  0.00  0.00    +0.123 A 
ATOM     26  C   UNL     1      14.668   7.974  18.098  0.00  0.00    +0.020 A 
ATOM     27  C   UNL     1      13.988   8.172  16.908  0.00  0.00    +0.111 A 
ENDBRANCH  15  18
BRANCH   5  14
ATOM     14  C   UNL     1      11.092  14.373  22.836  0.00  0.00    +0.113 C 
ATOM     17  C   UNL     1      12.282  15.213  22.375  0.00  0.00    +0.034 C 
BRANCH  14  16
ATOM     16  C   UNL     1       9.802  14.771  22.152  0.00  0.00    -0.027 A 
ATOM     19  C   UNL     1       8.619  14.739  22.869  0.00  0.00    +0.005 A 
ATOM     20  C   UNL     1       9.833  15.159  20.823  0.00  0.00    +0.005 A 
ATOM     21  C   UNL     1       7.430  15.105  22.239  0.00  0.00    +0.000 A 
ATOM     22  C   UNL     1       8.645  15.525  20.193  0.00  0.00    +0.000 A 
ATOM     25  C   UNL     1       7.443  15.499  20.900  0.00  0.00    +0.000 A 
ENDBRANCH  14  16
ENDBRANCH   5  14
TORSDOF 3
ENDMDL
MODEL 2
REMARK VINA RESULT:      -7.1      1.502      2.789
REMARK  Name = 7675150
REMARK  4 active torsions:
REMARK  status: ('A' for Active; 'I' for Inactive)
REMARK    1  A    between atoms: N_5  and  C_14
REMARK    2  A    between atoms: C_14  and  C_16
REMARK    3  A    between atoms: C_14  and  C_17
REMARK    4  A    between atoms: C_15  and  C_18
REMARK                            x       y       z     vdW  Elec       q    Type
REMARK                         _______ _______ _______ _____ _____    ______ ____
ROOT
ATOM      1  O   UNL     1      12.876  12.595  20.746  0.00  0.00    -0.273 OA
ATOM      2  O   UNL     1      10.122  11.856  24.368  0.00  0.00    -0.252 OA
ATOM      3  O   UNL     1      11.385   6.081  20.833  0.00  0.00    -0.270 OA
ATOM      4  N   UNL     1      11.347  10.425  22.977  0.00  0.00    -0.271 N 
ATOM      5  N   UNL     1      11.491  12.616  22.629  0.00  0.00    -0.217 N 
ATOM      6  N   UNL     1      11.344   8.380  21.093  0.00  0.00    -0.294 N 
ATOM      8  C   UNL     1      12.249  10.529  21.850  0.00  0.00    +0.181 C 
ATOM      9  C   UNL     1      11.699   9.749  20.666  0.00  0.00    +0.140 C 
ATOM     10  C   UNL     1      10.911   9.109  23.412  0.00  0.00    +0.129 C 
ATOM     11  C   UNL     1      10.391   8.317  22.212  0.00  0.00    +0.127 C 
ATOM     12  C   UNL     1      12.264  12.033  21.645  0.00  0.00    +0.246 C 
ATOM     13  C   UNL     1      10.900  11.662  23.442  0.00  0.00    +0.312 C 
ATOM     15  C   UNL     1      11.775   7.194  20.475  0.00  0.00    +0.248 C 
ENDROOT
BRANCH  15  18
ATOM      7  N   UNL     1      13.115   7.748  17.032  0.00  0.00    -0.263 NA
ATOM     18  C   UNL     1      12.724   7.320  19.373  0.00  0.00    +0.055 A 
ATOM     23  C   UNL     1      14.084   7.143  19.583  0.00  0.00    +0.016 A 
ATOM     24  C   UNL     1      12.289   7.618  18.095  0.00  0.00    +0.123 A 
ATOM     26  C   UNL     1      14.964   7.269  18.514  0.00  0.00    +0.020 A 
ATOM     27  C   UNL     1      14.433   7.571  17.270  0.00  0.00    +0.111 A 
ENDBRANCH  15  18
BRANCH   5  14
ATOM     14  C   UNL     1      11.281  14.045  22.751  0.00  0.00    +0.113 C 
ATOM     17  C   UNL     1       9.827  14.402  22.451  0.00  0.00    +0.034 C 
BRANCH  14  16
ATOM     16  C   UNL     1      11.737  14.554  24.101  0.00  0.00    -0.027 A 
ATOM     19  C   UNL     1      13.073  14.452  24.447  0.00  0.00    +0.005 A 
ATOM     20  C   UNL     1      10.807  15.110  24.962  0.00  0.00    +0.005 A 
ATOM     21  C   UNL     1      13.493  14.920  25.691  0.00  0.00    +0.000 A 
ATOM     22  C   UNL     1      11.226  15.578  26.207  0.00  0.00    +0.000 A 
ATOM     25  C   UNL     1      12.569  15.484  26.572  0.00  0.00    +0.000 A 
ENDBRANCH  14  16
ENDBRANCH   5  14
TORSDOF 3
ENDMDL
MODEL 3
REMARK VINA RESULT:      -6.6      3.355      4.894
REMARK  Name = 7675150
REMARK  4 active torsions:
REMARK  status: ('A' for Active; 'I' for Inactive)
REMARK    1  A    between atoms: N_5  and  C_14
REMARK    2  A    between atoms: C_14  and  C_16
REMARK    3  A    between atoms: C_14  and  C_17
REMARK    4  A    between atoms: C_15  and  C_18
REMARK                            x       y       z     vdW  Elec       q    Type
REMARK                         _______ _______ _______ _____ _____    ______ ____
ROOT
ATOM      1  O   UNL     1      13.967  10.244  22.932  0.00  0.00    -0.273 OA
ATOM      2  O   UNL     1      10.521   8.677  20.301  0.00  0.00    -0.252 OA
ATOM      3  O   UNL     1      16.560   5.786  18.682  0.00  0.00    -0.270 OA
ATOM      4  N   UNL     1      12.702   7.919  20.691  0.00  0.00    -0.271 N 
ATOM      5  N   UNL     1      11.997   9.720  21.787  0.00  0.00    -0.217 N 
ATOM      6  N   UNL     1      15.244   7.401  19.688  0.00  0.00    -0.294 N 
ATOM      8  C   UNL     1      13.846   8.295  21.493  0.00  0.00    +0.181 C 
ATOM      9  C   UNL     1      15.052   8.547  20.600  0.00  0.00    +0.140 C 
ATOM     10  C   UNL     1      12.839   6.838  19.730  0.00  0.00    +0.129 C 
ATOM     11  C   UNL     1      14.072   7.079  18.858  0.00  0.00    +0.127 C 
ATOM     12  C   UNL     1      13.311   9.543  22.172  0.00  0.00    +0.246 C 
ATOM     13  C   UNL     1      11.604   8.761  20.867  0.00  0.00    +0.312 C 
ATOM     15  C   UNL     1      16.442   6.688  19.513  0.00  0.00    +0.248 C 
ENDROOT
BRANCH  15  18
ATOM      7  N   UNL     1      18.704   8.731  21.672  0.00  0.00    -0.263 NA
ATOM     18  C   UNL     1      17.567   7.050  20.369  0.00  0.00    +0.055 A 
ATOM     23  C   UNL     1      18.542   6.118  20.694  0.00  0.00    +0.016 A 
ATOM     24  C   UNL     1      17.688   8.331  20.875  0.00  0.00    +0.123 A 
ATOM     26  C   UNL     1      19.602   6.493  21.511  0.00  0.00    +0.020 A 
ATOM     27  C   UNL     1      19.636   7.800  21.970  0.00  0.00    +0.111 A 
ENDBRANCH  15  18
BRANCH   5  14
ATOM     14  C   UNL     1      11.160  10.811  22.247  0.00  0.00    +0.113 C 
ATOM     17  C   UNL     1      11.263  10.966  23.763  0.00  0.00    +0.034 C 
BRANCH  14  16
ATOM     16  C   UNL     1      11.477  12.094  21.510  0.00  0.00    -0.027 A 
ATOM     19  C   UNL     1      12.407  12.073  20.485  0.00  0.00    +0.005 A 
ATOM     20  C   UNL     1      10.831  13.261  21.878  0.00  0.00    +0.005 A 
ATOM     21  C   UNL     1      12.699  13.255  19.807  0.00  0.00    +0.000 A 
ATOM     22  C   UNL     1      11.123  14.444  21.199  0.00  0.00    +0.000 A 
ATOM     25  C   UNL     1      12.057  14.442  20.163  0.00  0.00    +0.000 A 
ENDBRANCH  14  16
ENDBRANCH   5  14
TORSDOF 3
ENDMDL
MODEL 4
REMARK VINA RESULT:      -6.6      5.622      8.472
REMARK  Name = 7675150
REMARK  4 active torsions:
REMARK  status: ('A' for Active; 'I' for Inactive)
REMARK    1  A    between atoms: N_5  and  C_14
REMARK    2  A    between atoms: C_14  and  C_16
REMARK    3  A    between atoms: C_14  and  C_17
REMARK    4  A    between atoms: C_15  and  C_18
REMARK                            x       y       z     vdW  Elec       q    Type
REMARK                         _______ _______ _______ _____ _____    ______ ____
ROOT
ATOM      1  O   UNL     1      16.340   5.581  19.315  0.00  0.00    -0.273 OA
ATOM      2  O   UNL     1      14.626   9.772  20.178  0.00  0.00    -0.252 OA
ATOM      3  O   UNL     1      20.938   8.946  22.807  0.00  0.00    -0.270 OA
ATOM      4  N   UNL     1      16.782   8.871  20.319  0.00  0.00    -0.271 N 
ATOM      5  N   UNL     1      15.138   7.569  19.581  0.00  0.00    -0.217 N 
ATOM      6  N   UNL     1      18.955   8.167  21.906  0.00  0.00    -0.294 N 
ATOM      8  C   UNL     1      17.442   7.610  20.059  0.00  0.00    +0.181 C 
ATOM      9  C   UNL     1      18.115   7.100  21.324  0.00  0.00    +0.140 C 
ATOM     10  C   UNL     1      17.535   9.945  20.945  0.00  0.00    +0.129 C 
ATOM     11  C   UNL     1      18.237   9.418  22.197  0.00  0.00    +0.127 C 
ATOM     12  C   UNL     1      16.263   6.768  19.606  0.00  0.00    +0.246 C 
ATOM     13  C   UNL     1      15.417   8.849  20.033  0.00  0.00    +0.312 C 
ATOM     15  C   UNL     1      20.310   8.041  22.256  0.00  0.00    +0.248 C 
ENDROOT
BRANCH  15  18
ATOM      7  N   UNL     1      21.729   4.611  22.673  0.00  0.00    -0.263 NA
ATOM     18  C   UNL     1      20.969   6.778  21.938  0.00  0.00    +0.055 A 
ATOM     23  C   UNL     1      21.450   6.530  20.660  0.00  0.00    +0.016 A 
ATOM     24  C   UNL     1      21.129   5.800  22.902  0.00  0.00    +0.123 A 
ATOM     26  C   UNL     1      22.073   5.317  20.387  0.00  0.00    +0.020 A 
ATOM     27  C   UNL     1      22.186   4.400  21.419  0.00  0.00    +0.111 A 
ENDBRANCH  15  18
BRANCH   5  14
ATOM     14  C   UNL     1      13.823   7.103  19.190  0.00  0.00    +0.113 C 
ATOM     17  C   UNL     1      12.865   7.135  20.379  0.00  0.00    +0.034 C 
BRANCH  14  16
ATOM     16  C   UNL     1      13.298   7.877  18.001  0.00  0.00    -0.027 A 
ATOM     19  C   UNL     1      11.979   8.297  17.996  0.00  0.00    +0.005 A 
ATOM     20  C   UNL     1      14.147   8.148  16.942  0.00  0.00    +0.005 A 
ATOM     21  C   UNL     1      11.495   9.010  16.900  0.00  0.00    +0.000 A 
ATOM     22  C   UNL     1      13.663   8.860  15.846  0.00  0.00    +0.000 A 
ATOM     25  C   UNL     1      12.337   9.292  15.824  0.00  0.00    +0.000 A 
ENDBRANCH  14  16
ENDBRANCH   5  14
TORSDOF 3
ENDMDL
MODEL 5
REMARK VINA RESULT:      -6.4     26.737     29.135
REMARK  Name = 7675150
REMARK  4 active torsions:
REMARK  status: ('A' for Active; 'I' for Inactive)
REMARK    1  A    between atoms: N_5  and  C_14
REMARK    2  A    between atoms: C_14  and  C_16
REMARK    3  A    between atoms: C_14  and  C_17
REMARK    4  A    between atoms: C_15  and  C_18
REMARK                            x       y       z     vdW  Elec       q    Type
REMARK                         _______ _______ _______ _____ _____    ______ ____
ROOT
ATOM      1  O   UNL     1      -6.171 -10.788  12.964  0.00  0.00    -0.273 OA
ATOM      2  O   UNL     1      -1.660 -10.652  12.026  0.00  0.00    -0.252 OA
ATOM      3  O   UNL     1      -2.901 -11.605  18.734  0.00  0.00    -0.270 OA
ATOM      4  N   UNL     1      -2.880 -11.358  13.896  0.00  0.00    -0.271 N 
ATOM      5  N   UNL     1      -3.998 -10.632  12.117  0.00  0.00    -0.217 N 
ATOM      6  N   UNL     1      -3.508 -11.009  16.583  0.00  0.00    -0.294 N 
ATOM      8  C   UNL     1      -4.265 -11.474  14.298  0.00  0.00    +0.181 C 
ATOM      9  C   UNL     1      -4.515 -10.661  15.559  0.00  0.00    +0.140 C 
ATOM     10  C   UNL     1      -1.838 -11.628  14.872  0.00  0.00    +0.129 C 
ATOM     11  C   UNL     1      -2.112 -10.835  16.150  0.00  0.00    +0.127 C 
ATOM     12  C   UNL     1      -4.959 -10.926  13.064  0.00  0.00    +0.246 C 
ATOM     13  C   UNL     1      -2.720 -10.862  12.602  0.00  0.00    +0.312 C 
ATOM     15  C   UNL     1      -3.787 -11.398  17.904  0.00  0.00    +0.248 C 
ENDROOT
BRANCH  15  18
ATOM      7  N   UNL     1      -7.179 -12.923  18.252  0.00  0.00    -0.263 NA
ATOM     18  C   UNL     1      -5.190 -11.559  18.272  0.00  0.00    +0.055 A 
ATOM     23  C   UNL     1      -5.863 -10.561  18.962  0.00  0.00    +0.016 A 
ATOM     24  C   UNL     1      -5.881 -12.710  17.942  0.00  0.00    +0.123 A 
ATOM     26  C   UNL     1      -7.200 -10.744  19.299  0.00  0.00    +0.020 A 
ATOM     27  C   UNL     1      -7.806 -11.932  18.924  0.00  0.00    +0.111 A 
ENDBRANCH  15  18
BRANCH   5  14
ATOM     14  C   UNL     1      -4.295 -10.094  10.804  0.00  0.00    +0.113 C 
ATOM     17  C   UNL     1      -3.320  -8.973  10.450  0.00  0.00    +0.034 C 
BRANCH  14  16
ATOM     16  C   UNL     1      -4.328 -11.185   9.757  0.00  0.00    -0.027 A 
ATOM     19  C   UNL     1      -4.180 -12.504  10.151  0.00  0.00    +0.005 A 
ATOM     20  C   UNL     1      -4.507 -10.842   8.428  0.00  0.00    +0.005 A 
ATOM     21  C   UNL     1      -4.210 -13.510   9.186  0.00  0.00    +0.000 A 
ATOM     22  C   UNL     1      -4.538 -11.848   7.463  0.00  0.00    +0.000 A 
ATOM     25  C   UNL     1      -4.390 -13.182   7.841  0.00  0.00    +0.000 A 
ENDBRANCH  14  16
ENDBRANCH   5  14
TORSDOF 3
ENDMDL
MODEL 6
REMARK VINA RESULT:      -6.4      5.009      8.143
REMARK  Name = 7675150
REMARK  4 active torsions:
REMARK  status: ('A' for Active; 'I' for Inactive)
REMARK    1  A    between atoms: N_5  and  C_14
REMARK    2  A    between atoms: C_14  and  C_16
REMARK    3  A    between atoms: C_14  and  C_17
REMARK    4  A    between atoms: C_15  and  C_18
REMARK                            x       y       z     vdW  Elec       q    Type
REMARK                         _______ _______ _______ _____ _____    ______ ____
ROOT
ATOM      1  O   UNL     1      13.571   8.776  15.443  0.00  0.00    -0.273 OA
ATOM      2  O   UNL     1      15.144   9.918  19.622  0.00  0.00    -0.252 OA
ATOM      3  O   UNL     1      16.872  14.554  14.831  0.00  0.00    -0.270 OA
ATOM      4  N   UNL     1      14.913  11.115  17.624  0.00  0.00    -0.271 N 
ATOM      5  N   UNL     1      14.224   9.001  17.676  0.00  0.00    -0.217 N 
ATOM      6  N   UNL     1      16.127  12.477  15.525  0.00  0.00    -0.294 N 
ATOM      8  C   UNL     1      14.421  10.887  16.281  0.00  0.00    +0.181 C 
ATOM      9  C   UNL     1      15.524  11.153  15.268  0.00  0.00    +0.140 C 
ATOM     10  C   UNL     1      15.571  12.374  17.929  0.00  0.00    +0.129 C 
ATOM     11  C   UNL     1      16.655  12.653  16.887  0.00  0.00    +0.127 C 
ATOM     12  C   UNL     1      14.014   9.428  16.380  0.00  0.00    +0.246 C 
ATOM     13  C   UNL     1      14.793   9.999  18.452  0.00  0.00    +0.312 C 
ATOM     15  C   UNL     1      16.294  13.497  14.573  0.00  0.00    +0.248 C 
ENDROOT
BRANCH  15  18
ATOM      7  N   UNL     1      13.855  13.376  11.746  0.00  0.00    -0.263 NA
ATOM     18  C   UNL     1      15.745  13.266  13.241  0.00  0.00    +0.055 A 
ATOM     23  C   UNL     1      16.534  12.740  12.228  0.00  0.00    +0.016 A 
ATOM     24  C   UNL     1      14.425  13.566  12.958  0.00  0.00    +0.123 A 
ATOM     26  C   UNL     1      15.982  12.531  10.969  0.00  0.00    +0.020 A 
ATOM     27  C   UNL     1      14.650  12.863  10.782  0.00  0.00    +0.111 A 
ENDBRANCH  15  18
BRANCH   5  14
ATOM     14  C   UNL     1      13.939   7.659  18.142  0.00  0.00    +0.113 C 
ATOM     17  C   UNL     1      15.226   6.950  18.559  0.00  0.00    +0.034 C 
BRANCH  14  16
ATOM     16  C   UNL     1      12.899   7.668  19.241  0.00  0.00    -0.027 A 
ATOM     19  C   UNL     1      11.762   8.441  19.089  0.00  0.00    +0.005 A 
ATOM     20  C   UNL     1      13.108   6.902  20.375  0.00  0.00    +0.005 A 
ATOM     21  C   UNL     1      10.804   8.450  20.103  0.00  0.00    +0.000 A 
ATOM     22  C   UNL     1      12.151   6.911  21.388  0.00  0.00    +0.000 A 
ATOM     25  C   UNL     1      10.998   7.684  21.253  0.00  0.00    +0.000 A 
ENDBRANCH  14  16
ENDBRANCH   5  14
TORSDOF 3
ENDMDL
MODEL 7
REMARK VINA RESULT:      -6.3     26.675     29.419
REMARK  Name = 7675150
REMARK  4 active torsions:
REMARK  status: ('A' for Active; 'I' for Inactive)
REMARK    1  A    between atoms: N_5  and  C_14
REMARK    2  A    between atoms: C_14  and  C_16
REMARK    3  A    between atoms: C_14  and  C_17
REMARK    4  A    between atoms: C_15  and  C_18
REMARK                            x       y       z     vdW  Elec       q    Type
REMARK                         _______ _______ _______ _____ _____    ______ ____
ROOT
ATOM      1  O   UNL     1      -7.024 -10.866  12.372  0.00  0.00    -0.273 OA
ATOM      2  O   UNL     1      -3.140  -9.984  10.050  0.00  0.00    -0.252 OA
ATOM      3  O   UNL     1      -1.973 -11.132  16.740  0.00  0.00    -0.270 OA
ATOM      4  N   UNL     1      -3.562 -10.882  12.170  0.00  0.00    -0.271 N 
ATOM      5  N   UNL     1      -5.295 -10.351  10.884  0.00  0.00    -0.217 N 
ATOM      6  N   UNL     1      -3.331 -10.644  14.932  0.00  0.00    -0.294 N 
ATOM      8  C   UNL     1      -4.705 -11.227  12.987  0.00  0.00    +0.181 C 
ATOM      9  C   UNL     1      -4.657 -10.467  14.304  0.00  0.00    +0.140 C 
ATOM     10  C   UNL     1      -2.231 -10.977  12.746  0.00  0.00    +0.129 C 
ATOM     11  C   UNL     1      -2.197 -10.241  14.086  0.00  0.00    +0.127 C 
ATOM     12  C   UNL     1      -5.838 -10.801  12.071  0.00  0.00    +0.246 C 
ATOM     13  C   UNL     1      -3.910 -10.367  10.922  0.00  0.00    +0.312 C 
ATOM     15  C   UNL     1      -3.102 -11.074  16.250  0.00  0.00    +0.248 C 
ENDROOT
BRANCH  15  18
ATOM      7  N   UNL     1      -5.845 -13.178  17.665  0.00  0.00    -0.263 NA
ATOM     18  C   UNL     1      -4.266 -11.466  17.038  0.00  0.00    +0.055 A 
ATOM     23  C   UNL     1      -4.893 -10.558  17.879  0.00  0.00    +0.016 A 
ATOM     24  C   UNL     1      -4.771 -12.751  16.964  0.00  0.00    +0.123 A 
ATOM     26  C   UNL     1      -6.000 -10.962  18.617  0.00  0.00    +0.020 A 
ATOM     27  C   UNL     1      -6.432 -12.270  18.476  0.00  0.00    +0.111 A 
ENDBRANCH  15  18
BRANCH   5  14
ATOM     14  C   UNL     1      -6.082  -9.869   9.767  0.00  0.00    +0.113 C 
ATOM     17  C   UNL     1      -5.787  -8.395   9.497  0.00  0.00    +0.034 C 
BRANCH  14  16
ATOM     16  C   UNL     1      -5.883 -10.733   8.541  0.00  0.00    -0.027 A 
ATOM     19  C   UNL     1      -6.213 -12.076   8.600  0.00  0.00    +0.005 A 
ATOM     20  C   UNL     1      -5.376 -10.162   7.387  0.00  0.00    +0.005 A 
ATOM     21  C   UNL     1      -6.029 -12.872   7.470  0.00  0.00    +0.000 A 
ATOM     22  C   UNL     1      -5.192 -10.959   6.257  0.00  0.00    +0.000 A 
ATOM     25  C   UNL     1      -5.519 -12.314   6.298  0.00  0.00    +0.000 A 
ENDBRANCH  14  16
ENDBRANCH   5  14
TORSDOF 3
ENDMDL
MODEL 8
REMARK VINA RESULT:      -6.2     14.794     19.627
REMARK  Name = 7675150
REMARK  4 active torsions:
REMARK  status: ('A' for Active; 'I' for Inactive)
REMARK    1  A    between atoms: N_5  and  C_14
REMARK    2  A    between atoms: C_14  and  C_16
REMARK    3  A    between atoms: C_14  and  C_17
REMARK    4  A    between atoms: C_15  and  C_18
REMARK                            x       y       z     vdW  Elec       q    Type
REMARK                         _______ _______ _______ _____ _____    ______ ____
ROOT
ATOM      1  O   UNL     1      12.411   7.646   2.297  0.00  0.00    -0.273 OA
ATOM      2  O   UNL     1      11.331   3.187   2.743  0.00  0.00    -0.252 OA
ATOM      3  O   UNL     1       8.944   6.983   7.971  0.00  0.00    -0.270 OA
ATOM      4  N   UNL     1      10.555   5.129   3.795  0.00  0.00    -0.271 N 
ATOM      5  N   UNL     1      12.086   5.333   2.197  0.00  0.00    -0.217 N 
ATOM      6  N   UNL     1      10.299   6.615   6.132  0.00  0.00    -0.294 N 
ATOM      8  C   UNL     1      10.786   6.557   3.730  0.00  0.00    +0.181 C 
ATOM      9  C   UNL     1      11.236   7.076   5.087  0.00  0.00    +0.140 C 
ATOM     10  C   UNL     1       9.690   4.602   4.837  0.00  0.00    +0.129 C 
ATOM     11  C   UNL     1      10.125   5.155   6.195  0.00  0.00    +0.127 C 
ATOM     12  C   UNL     1      11.862   6.614   2.661  0.00  0.00    +0.246 C 
ATOM     13  C   UNL     1      11.322   4.404   2.884  0.00  0.00    +0.312 C 
ATOM     15  C   UNL     1       9.659   7.437   7.076  0.00  0.00    +0.248 C 
ENDROOT
BRANCH  15  18
ATOM      7  N   UNL     1      11.138  10.830   7.582  0.00  0.00    -0.263 NA
ATOM     18  C   UNL     1       9.866   8.876   6.960  0.00  0.00    +0.055 A 
ATOM     23  C   UNL     1       9.039   9.651   6.160  0.00  0.00    +0.016 A 
ATOM     24  C   UNL     1      10.891   9.502   7.645  0.00  0.00    +0.123 A 
ATOM     26  C   UNL     1       9.261  11.021   6.070  0.00  0.00    +0.020 A 
ATOM     27  C   UNL     1      10.315  11.556   6.794  0.00  0.00    +0.111 A 
ENDBRANCH  15  18
BRANCH   5  14
ATOM     14  C   UNL     1      13.046   5.005   1.162  0.00  0.00    +0.113 C 
ATOM     17  C   UNL     1      14.149   4.106   1.717  0.00  0.00    +0.034 C 
BRANCH  14  16
ATOM     16  C   UNL     1      12.365   4.407  -0.050  0.00  0.00    -0.027 A 
ATOM     19  C   UNL     1      12.864   3.239  -0.598  0.00  0.00    +0.005 A 
ATOM     20  C   UNL     1      11.257   5.042  -0.584  0.00  0.00    +0.005 A 
ATOM     21  C   UNL     1      12.237   2.688  -1.715  0.00  0.00    +0.000 A 
ATOM     22  C   UNL     1      10.630   4.492  -1.701  0.00  0.00    +0.000 A 
ATOM     25  C   UNL     1      11.119   3.314  -2.267  0.00  0.00    +0.000 A 
ENDBRANCH  14  16
ENDBRANCH   5  14
TORSDOF 3
ENDMDL
MODEL 9
REMARK VINA RESULT:      -6.2     27.373     29.583
REMARK  Name = 7675150
REMARK  4 active torsions:
REMARK  status: ('A' for Active; 'I' for Inactive)
REMARK    1  A    between atoms: N_5  and  C_14
REMARK    2  A    between atoms: C_14  and  C_16
REMARK    3  A    between atoms: C_14  and  C_17
REMARK    4  A    between atoms: C_15  and  C_18
REMARK                            x       y       z     vdW  Elec       q    Type
REMARK                         _______ _______ _______ _____ _____    ______ ____
ROOT
ATOM      1  O   UNL     1      -5.817 -12.599  12.626  0.00  0.00    -0.273 OA
ATOM      2  O   UNL     1      -1.688 -11.857  14.537  0.00  0.00    -0.252 OA
ATOM      3  O   UNL     1      -6.854  -9.902  18.651  0.00  0.00    -0.270 OA
ATOM      4  N   UNL     1      -3.863 -11.894  15.403  0.00  0.00    -0.271 N 
ATOM      5  N   UNL     1      -3.577 -12.344  13.244  0.00  0.00    -0.217 N 
ATOM      6  N   UNL     1      -5.955 -10.515  16.610  0.00  0.00    -0.294 N 
ATOM      8  C   UNL     1      -5.208 -12.134  14.927  0.00  0.00    +0.181 C 
ATOM      9  C   UNL     1      -6.083 -10.919  15.194  0.00  0.00    +0.140 C 
ATOM     10  C   UNL     1      -3.669 -11.437  16.768  0.00  0.00    +0.129 C 
ATOM     11  C   UNL     1      -4.576 -10.236  17.042  0.00  0.00    +0.127 C 
ATOM     12  C   UNL     1      -4.941 -12.389  13.455  0.00  0.00    +0.246 C 
ATOM     13  C   UNL     1      -2.894 -12.022  14.407  0.00  0.00    +0.312 C 
ATOM     15  C   UNL     1      -7.022 -10.310  17.501  0.00  0.00    +0.248 C 
ENDROOT
BRANCH  15  18
ATOM      7  N   UNL     1     -10.120 -12.229  16.682  0.00  0.00    -0.263 NA
ATOM     18  C   UNL     1      -8.365 -10.608  17.016  0.00  0.00    +0.055 A 
ATOM     23  C   UNL     1      -9.152  -9.617  16.448  0.00  0.00    +0.016 A 
ATOM     24  C   UNL     1      -8.885 -11.886  17.112  0.00  0.00    +0.123 A 
ATOM     26  C   UNL     1     -10.429  -9.932  15.995  0.00  0.00    +0.020 A 
ATOM     27  C   UNL     1     -10.861 -11.241  16.135  0.00  0.00    +0.111 A 
ENDBRANCH  15  18
BRANCH   5  14
ATOM     14  C   UNL     1      -2.951 -12.551  11.954  0.00  0.00    +0.113 C 
ATOM     17  C   UNL     1      -3.260 -13.950  11.424  0.00  0.00    +0.034 C 
BRANCH  14  16
ATOM     16  C   UNL     1      -3.336 -11.462  10.976  0.00  0.00    -0.027 A 
ATOM     19  C   UNL     1      -4.074 -11.793   9.853  0.00  0.00    +0.005 A 
ATOM     20  C   UNL     1      -2.943 -10.159  11.226  0.00  0.00    +0.005 A 
ATOM     21  C   UNL     1      -4.429 -10.790   8.951  0.00  0.00    +0.000 A 
ATOM     22  C   UNL     1      -3.298  -9.156  10.325  0.00  0.00    +0.000 A 
ATOM     25  C   UNL     1      -4.041  -9.471   9.188  0.00  0.00    +0.000 A 
ENDBRANCH  14  16
ENDBRANCH   5  14
TORSDOF 3
ENDMDL
MODEL 10
REMARK VINA RESULT:      -6.2     20.057     22.184
REMARK  Name = 7675150
REMARK  4 active torsions:
REMARK  status: ('A' for Active; 'I' for Inactive)
REMARK    1  A    between atoms: N_5  and  C_14
REMARK    2  A    between atoms: C_14  and  C_16
REMARK    3  A    between atoms: C_14  and  C_17
REMARK    4  A    between atoms: C_15  and  C_18
REMARK                            x       y       z     vdW  Elec       q    Type
REMARK                         _______ _______ _______ _____ _____    ______ ____
ROOT
ATOM      1  O   UNL     1      -0.715  10.122   5.382  0.00  0.00    -0.273 OA
ATOM      2  O   UNL     1      -3.505   9.889   1.720  0.00  0.00    -0.252 OA
ATOM      3  O   UNL     1       3.018  11.209  -0.054  0.00  0.00    -0.270 OA
ATOM      4  N   UNL     1      -1.176   9.852   1.955  0.00  0.00    -0.271 N 
ATOM      5  N   UNL     1      -2.423   9.966   3.793  0.00  0.00    -0.217 N 
ATOM      6  N   UNL     1       1.273  11.072   1.460  0.00  0.00    -0.294 N 
ATOM      8  C   UNL     1      -0.200   9.890   3.023  0.00  0.00    +0.181 C 
ATOM      9  C   UNL     1       0.735  11.076   2.836  0.00  0.00    +0.140 C 
ATOM     10  C   UNL     1      -0.717   9.905   0.578  0.00  0.00    +0.129 C 
ATOM     11  C   UNL     1       0.249  11.078   0.404  0.00  0.00    +0.127 C 
ATOM     12  C   UNL     1      -1.113  10.011   4.230  0.00  0.00    +0.246 C 
ATOM     13  C   UNL     1      -2.494   9.893   2.411  0.00  0.00    +0.312 C 
ATOM     15  C   UNL     1       2.634  11.142   1.115  0.00  0.00    +0.248 C 
ENDROOT
BRANCH  15  18
ATOM      7  N   UNL     1       5.358   9.965   3.385  0.00  0.00    -0.263 NA
ATOM     18  C   UNL     1       3.603  11.128   2.206  0.00  0.00    +0.055 A 
ATOM     23  C   UNL     1       3.706  12.201   3.080  0.00  0.00    +0.016 A 
ATOM     24  C   UNL     1       4.440  10.043   2.395  0.00  0.00    +0.123 A 
ATOM     26  C   UNL     1       4.639  12.157   4.110  0.00  0.00    +0.020 A 
ATOM     27  C   UNL     1       5.434  11.027   4.218  0.00  0.00    +0.111 A 
ENDBRANCH  15  18
BRANCH   5  14
ATOM     14  C   UNL     1      -3.571  10.046   4.673  0.00  0.00    +0.113 C 
ATOM     17  C   UNL     1      -4.458  11.231   4.293  0.00  0.00    +0.034 C 
BRANCH  14  16
ATOM     16  C   UNL     1      -4.332   8.739   4.704  0.00  0.00    -0.027 A 
ATOM     19  C   UNL     1      -5.648   8.712   4.275  0.00  0.00    +0.005 A 
ATOM     20  C   UNL     1      -3.696   7.598   5.162  0.00  0.00    +0.005 A 
ATOM     21  C   UNL     1      -6.349   7.507   4.304  0.00  0.00    +0.000 A 
ATOM     22  C   UNL     1      -4.398   6.393   5.191  0.00  0.00    +0.000 A 
ATOM     25  C   UNL     1      -5.724   6.347   4.762  0.00  0.00    +0.000 A 
ENDBRANCH  14  16
ENDBRANCH   5  14
TORSDOF 3
ENDMDL
