MODEL 1
REMARK VINA RESULT:      -8.1      0.000      0.000
REMARK  Name = 51137362
REMARK  4 active torsions:
REMARK  status: ('A' for Active; 'I' for Inactive)
REMARK    1  A    between atoms: N_2  and  C_6
REMARK    2  A    between atoms: C_8  and  C_16
REMARK    3  A    between atoms: C_17  and  C_18
REMARK    4  A    between atoms: C_18  and  C_19
REMARK                            x       y       z     vdW  Elec       q    Type
REMARK                         _______ _______ _______ _____ _____    ______ ____
ROOT
ATOM      1  O   UNL     1      14.489   8.789  20.639  0.00  0.00    -0.424 OA
ATOM      3  N   UNL     1      13.341   6.963  20.044  0.00  0.00    -0.112 NA
ATOM      4  N   UNL     1      14.682   6.632  20.074  0.00  0.00    -0.112 NA
ATOM     16  C   UNL     1      13.275   8.230  20.381  0.00  0.00    +0.222 A 
ATOM     17  C   UNL     1      15.315   7.728  20.425  0.00  0.00    +0.222 A 
ENDROOT
BRANCH  16   8
ATOM      2  N   UNL     1      11.154  10.838  21.838  0.00  0.00    -0.299 NA
ATOM      7  C   UNL     1      12.401  10.484  21.155  0.00  0.00    +0.097 C 
ATOM      8  C   UNL     1      12.067   9.128  20.519  0.00  0.00    +0.092 C 
ATOM      9  C   UNL     1      10.708   9.600  22.476  0.00  0.00    +0.085 C 
ATOM     12  C   UNL     1      10.933   8.558  21.388  0.00  0.00    +0.029 C 
BRANCH   2   6
ATOM      6  C   UNL     1      11.334  11.926  22.798  0.00  0.00    +0.057 C 
ATOM     10  C   UNL     1      10.787  11.508  24.167  0.00  0.00    +0.019 C 
ATOM     11  C   UNL     1      10.637  13.192  22.287  0.00  0.00    +0.019 C 
ATOM     13  C   UNL     1      10.888  12.648  25.178  0.00  0.00    +0.002 C 
ATOM     14  C   UNL     1      10.738  14.330  23.301  0.00  0.00    +0.002 C 
ATOM     15  C   UNL     1      10.206  13.915  24.669  0.00  0.00    +0.000 C 
ENDBRANCH   2   6
ENDBRANCH  16   8
BRANCH  17  18
ATOM     18  C   UNL     1      16.753   7.958  20.616  0.00  0.00    +0.135 C 
BRANCH  18  19
ATOM      5  N   UNL     1      18.466   5.103  19.006  0.00  0.00    -0.360 N 
ATOM     19  C   UNL     1      17.648   6.806  20.170  0.00  0.00    -0.013 A 
ATOM     20  C   UNL     1      18.832   6.354  20.817  0.00  0.00    +0.003 A 
ATOM     21  C   UNL     1      17.449   6.019  19.061  0.00  0.00    +0.087 A 
ATOM     22  C   UNL     1      19.325   5.285  20.067  0.00  0.00    +0.047 A 
ATOM     23  C   UNL     1      19.533   6.752  21.973  0.00  0.00    +0.010 A 
ATOM     24  C   UNL     1      20.488   4.590  20.417  0.00  0.00    +0.026 A 
ATOM     25  C   UNL     1      20.699   6.068  22.334  0.00  0.00    +0.001 A 
ATOM     26  C   UNL     1      21.167   5.003  21.567  0.00  0.00    +0.002 A 
ATOM     27  H   UNL     1      18.571   4.395  18.293  0.00  0.00    +0.165 HD
ENDBRANCH  18  19
ENDBRANCH  17  18
TORSDOF 4
ENDMDL
MODEL 2
REMARK VINA RESULT:      -8.0     27.512     30.921
REMARK  Name = 51137362
REMARK  4 active torsions:
REMARK  status: ('A' for Active; 'I' for Inactive)
REMARK    1  A    between atoms: N_2  and  C_6
REMARK    2  A    between atoms: C_8  and  C_16
REMARK    3  A    between atoms: C_17  and  C_18
REMARK    4  A    between atoms: C_18  and  C_19
REMARK                            x       y       z     vdW  Elec       q    Type
REMARK                         _______ _______ _______ _____ _____    ______ ____
ROOT
ATOM      1  O   UNL     1     -15.935   4.787  24.465  0.00  0.00    -0.424 OA
ATOM      3  N   UNL     1     -16.157   3.014  23.119  0.00  0.00    -0.112 NA
ATOM      4  N   UNL     1     -15.406   3.964  22.452  0.00  0.00    -0.112 NA
ATOM     16  C   UNL     1     -16.443   3.537  24.288  0.00  0.00    +0.222 A 
ATOM     17  C   UNL     1     -15.303   4.982  23.275  0.00  0.00    +0.222 A 
ENDROOT
BRANCH  16   8
ATOM      2  N   UNL     1     -17.035   2.173  27.637  0.00  0.00    -0.299 NA
ATOM      7  C   UNL     1     -16.658   3.320  26.809  0.00  0.00    +0.097 C 
ATOM      8  C   UNL     1     -17.236   2.955  25.435  0.00  0.00    +0.092 C 
ATOM      9  C   UNL     1     -16.770   1.001  26.802  0.00  0.00    +0.085 C 
ATOM     12  C   UNL     1     -17.325   1.418  25.446  0.00  0.00    +0.029 C 
BRANCH   2   6
ATOM      6  C   UNL     1     -16.303   2.133  28.901  0.00  0.00    +0.057 C 
ATOM     10  C   UNL     1     -15.274   3.269  28.943  0.00  0.00    +0.019 C 
ATOM     11  C   UNL     1     -15.626   0.768  29.069  0.00  0.00    +0.019 C 
ATOM     13  C   UNL     1     -14.436   3.213  30.219  0.00  0.00    +0.002 C 
ATOM     14  C   UNL     1     -14.787   0.716  30.345  0.00  0.00    +0.002 C 
ATOM     15  C   UNL     1     -13.770   1.851  30.396  0.00  0.00    +0.000 C 
ENDBRANCH   2   6
ENDBRANCH  16   8
BRANCH  17  18
ATOM     18  C   UNL     1     -14.614   6.266  23.093  0.00  0.00    +0.135 C 
BRANCH  18  19
ATOM      5  N   UNL     1     -15.473   7.656  19.775  0.00  0.00    -0.360 N 
ATOM     19  C   UNL     1     -14.682   6.832  21.678  0.00  0.00    -0.013 A 
ATOM     20  C   UNL     1     -13.583   7.079  20.810  0.00  0.00    +0.003 A 
ATOM     21  C   UNL     1     -15.830   7.197  21.015  0.00  0.00    +0.087 A 
ATOM     22  C   UNL     1     -14.106   7.596  19.623  0.00  0.00    +0.047 A 
ATOM     23  C   UNL     1     -12.187   6.912  20.920  0.00  0.00    +0.010 A 
ATOM     24  C   UNL     1     -13.301   7.954  18.537  0.00  0.00    +0.026 A 
ATOM     25  C   UNL     1     -11.370   7.267  19.842  0.00  0.00    +0.001 A 
ATOM     26  C   UNL     1     -11.920   7.780  18.668  0.00  0.00    +0.002 A 
ATOM     27  H   UNL     1     -16.117   7.991  19.073  0.00  0.00    +0.165 HD
ENDBRANCH  18  19
ENDBRANCH  17  18
TORSDOF 4
ENDMDL
MODEL 3
REMARK VINA RESULT:      -7.8      4.534      6.869
REMARK  Name = 51137362
REMARK  4 active torsions:
REMARK  status: ('A' for Active; 'I' for Inactive)
REMARK    1  A    between atoms: N_2  and  C_6
REMARK    2  A    between atoms: C_8  and  C_16
REMARK    3  A    between atoms: C_17  and  C_18
REMARK    4  A    between atoms: C_18  and  C_19
REMARK                            x       y       z     vdW  Elec       q    Type
REMARK                         _______ _______ _______ _____ _____    ______ ____
ROOT
ATOM      1  O   UNL     1      13.852   9.277  18.143  0.00  0.00    -0.424 OA
ATOM      3  N   UNL     1      13.650   8.501  16.055  0.00  0.00    -0.112 NA
ATOM      4  N   UNL     1      13.474   7.440  16.922  0.00  0.00    -0.112 NA
ATOM     16  C   UNL     1      13.867   9.552  16.811  0.00  0.00    +0.222 A 
ATOM     17  C   UNL     1      13.602   7.938  18.130  0.00  0.00    +0.222 A 
ENDROOT
BRANCH  16   8
ATOM      2  N   UNL     1      15.839  12.524  15.971  0.00  0.00    -0.299 NA
ATOM      7  C   UNL     1      15.424  11.165  15.618  0.00  0.00    +0.097 C 
ATOM      8  C   UNL     1      14.123  10.988  16.414  0.00  0.00    +0.092 C 
ATOM      9  C   UNL     1      15.614  12.624  17.413  0.00  0.00    +0.085 C 
ATOM     12  C   UNL     1      14.250  11.971  17.590  0.00  0.00    +0.029 C 
BRANCH   2   6
ATOM      6  C   UNL     1      17.227  12.796  15.604  0.00  0.00    +0.057 C 
ATOM     10  C   UNL     1      17.740  11.702  14.661  0.00  0.00    +0.019 C 
ATOM     11  C   UNL     1      18.092  12.888  16.866  0.00  0.00    +0.019 C 
ATOM     13  C   UNL     1      19.213  11.911  14.315  0.00  0.00    +0.002 C 
ATOM     14  C   UNL     1      19.565  13.095  16.517  0.00  0.00    +0.002 C 
ATOM     15  C   UNL     1      20.077  12.015  15.569  0.00  0.00    +0.000 C 
ENDBRANCH   2   6
ENDBRANCH  16   8
BRANCH  17  18
ATOM     18  C   UNL     1      13.510   7.268  19.434  0.00  0.00    +0.135 C 
BRANCH  18  19
ATOM      5  N   UNL     1      16.046   8.079  22.001  0.00  0.00    -0.360 N 
ATOM     19  C   UNL     1      14.733   7.442  20.329  0.00  0.00    -0.013 A 
ATOM     20  C   UNL     1      16.026   6.891  20.112  0.00  0.00    +0.003 A 
ATOM     21  C   UNL     1      14.776   8.167  21.496  0.00  0.00    +0.087 A 
ATOM     22  C   UNL     1      16.831   7.305  21.175  0.00  0.00    +0.047 A 
ATOM     23  C   UNL     1      16.591   6.076  19.111  0.00  0.00    +0.010 A 
ATOM     24  C   UNL     1      18.178   6.945  21.287  0.00  0.00    +0.026 A 
ATOM     25  C   UNL     1      17.938   5.707  19.210  0.00  0.00    +0.001 A 
ATOM     26  C   UNL     1      18.717   6.136  20.282  0.00  0.00    +0.002 A 
ATOM     27  H   UNL     1      16.363   8.517  22.854  0.00  0.00    +0.165 HD
ENDBRANCH  18  19
ENDBRANCH  17  18
TORSDOF 4
ENDMDL
MODEL 4
REMARK VINA RESULT:      -7.7     26.657     28.673
REMARK  Name = 51137362
REMARK  4 active torsions:
REMARK  status: ('A' for Active; 'I' for Inactive)
REMARK    1  A    between atoms: N_2  and  C_6
REMARK    2  A    between atoms: C_8  and  C_16
REMARK    3  A    between atoms: C_17  and  C_18
REMARK    4  A    between atoms: C_18  and  C_19
REMARK                            x       y       z     vdW  Elec       q    Type
REMARK                         _______ _______ _______ _____ _____    ______ ____
ROOT
ATOM      1  O   UNL     1      -3.226 -10.905  14.761  0.00  0.00    -0.424 OA
ATOM      3  N   UNL     1      -1.946 -10.739  16.588  0.00  0.00    -0.112 NA
ATOM      4  N   UNL     1      -1.211 -10.283  15.510  0.00  0.00    -0.112 NA
ATOM     16  C   UNL     1      -3.114 -11.091  16.105  0.00  0.00    +0.222 A 
ATOM     17  C   UNL     1      -1.997 -10.400  14.464  0.00  0.00    +0.222 A 
ENDROOT
BRANCH  16   8
ATOM      2  N   UNL     1      -6.356 -11.052  17.812  0.00  0.00    -0.299 NA
ATOM      7  C   UNL     1      -5.596 -10.839  16.578  0.00  0.00    +0.097 C 
ATOM      8  C   UNL     1      -4.320 -11.658  16.818  0.00  0.00    +0.092 C 
ATOM      9  C   UNL     1      -5.370 -10.939  18.887  0.00  0.00    +0.085 C 
ATOM     12  C   UNL     1      -4.188 -11.735  18.349  0.00  0.00    +0.029 C 
BRANCH   2   6
ATOM      6  C   UNL     1      -7.455 -10.100  17.961  0.00  0.00    +0.057 C 
ATOM     10  C   UNL     1      -8.704 -10.823  18.476  0.00  0.00    +0.019 C 
ATOM     11  C   UNL     1      -7.730  -9.408  16.621  0.00  0.00    +0.019 C 
ATOM     13  C   UNL     1      -9.897  -9.873  18.572  0.00  0.00    +0.002 C 
ATOM     14  C   UNL     1      -8.924  -8.460  16.719  0.00  0.00    +0.002 C 
ATOM     15  C   UNL     1     -10.167  -9.173  17.243  0.00  0.00    +0.000 C 
ENDBRANCH   2   6
ENDBRANCH  16   8
BRANCH  17  18
ATOM     18  C   UNL     1      -1.740 -10.064  13.058  0.00  0.00    +0.135 C 
BRANCH  18  19
ATOM      5  N   UNL     1      -3.371 -12.683  11.019  0.00  0.00    -0.360 N 
ATOM     19  C   UNL     1      -2.495 -10.923  12.049  0.00  0.00    -0.013 A 
ATOM     20  C   UNL     1      -3.184 -10.463  10.892  0.00  0.00    +0.003 A 
ATOM     21  C   UNL     1      -2.628 -12.291  12.100  0.00  0.00    +0.087 A 
ATOM     22  C   UNL     1      -3.725 -11.587  10.264  0.00  0.00    +0.047 A 
ATOM     23  C   UNL     1      -3.400  -9.195  10.317  0.00  0.00    +0.010 A 
ATOM     24  C   UNL     1      -4.474 -11.505   9.085  0.00  0.00    +0.026 A 
ATOM     25  C   UNL     1      -4.149  -9.098   9.139  0.00  0.00    +0.001 A 
ATOM     26  C   UNL     1      -4.675 -10.237   8.533  0.00  0.00    +0.002 A 
ATOM     27  H   UNL     1      -3.624 -13.637  10.805  0.00  0.00    +0.165 HD
ENDBRANCH  18  19
ENDBRANCH  17  18
TORSDOF 4
ENDMDL
MODEL 5
REMARK VINA RESULT:      -7.7     27.185     29.341
REMARK  Name = 51137362
REMARK  4 active torsions:
REMARK  status: ('A' for Active; 'I' for Inactive)
REMARK    1  A    between atoms: N_2  and  C_6
REMARK    2  A    between atoms: C_8  and  C_16
REMARK    3  A    between atoms: C_17  and  C_18
REMARK    4  A    between atoms: C_18  and  C_19
REMARK                            x       y       z     vdW  Elec       q    Type
REMARK                         _______ _______ _______ _____ _____    ______ ____
ROOT
ATOM      1  O   UNL     1      -3.212 -11.542  14.892  0.00  0.00    -0.424 OA
ATOM      3  N   UNL     1      -1.343 -10.314  14.891  0.00  0.00    -0.112 NA
ATOM      4  N   UNL     1      -1.864 -10.295  16.171  0.00  0.00    -0.112 NA
ATOM     16  C   UNL     1      -2.161 -11.053  14.180  0.00  0.00    +0.222 A 
ATOM     17  C   UNL     1      -2.955 -11.024  16.125  0.00  0.00    +0.222 A 
ENDROOT
BRANCH  16   8
ATOM      2  N   UNL     1      -3.023 -10.928  10.620  0.00  0.00    -0.299 NA
ATOM      7  C   UNL     1      -2.443 -10.256  11.786  0.00  0.00    +0.097 C 
ATOM      8  C   UNL     1      -2.096 -11.426  12.716  0.00  0.00    +0.092 C 
ATOM      9  C   UNL     1      -3.898 -11.959  11.177  0.00  0.00    +0.085 C 
ATOM     12  C   UNL     1      -3.052 -12.556  12.294  0.00  0.00    +0.029 C 
BRANCH   2   6
ATOM      6  C   UNL     1      -3.738 -10.004   9.743  0.00  0.00    +0.057 C 
ATOM     10  C   UNL     1      -4.664  -9.108  10.575  0.00  0.00    +0.019 C 
ATOM     11  C   UNL     1      -4.529 -10.790   8.692  0.00  0.00    +0.019 C 
ATOM     13  C   UNL     1      -5.486  -8.178   9.684  0.00  0.00    +0.002 C 
ATOM     14  C   UNL     1      -5.352  -9.858   7.803  0.00  0.00    +0.002 C 
ATOM     15  C   UNL     1      -6.266  -8.956   8.627  0.00  0.00    +0.000 C 
ENDBRANCH   2   6
ENDBRANCH  16   8
BRANCH  17  18
ATOM     18  C   UNL     1      -3.908 -11.351  17.193  0.00  0.00    +0.135 C 
BRANCH  18  19
ATOM      5  N   UNL     1      -6.853  -9.245  16.439  0.00  0.00    -0.360 N 
ATOM     19  C   UNL     1      -5.251 -10.634  17.093  0.00  0.00    -0.013 A 
ATOM     20  C   UNL     1      -6.408 -10.889  17.880  0.00  0.00    +0.003 A 
ATOM     21  C   UNL     1      -5.555  -9.619  16.217  0.00  0.00    +0.087 A 
ATOM     22  C   UNL     1      -7.398 -10.004  17.450  0.00  0.00    +0.047 A 
ATOM     23  C   UNL     1      -6.709 -11.790  18.921  0.00  0.00    +0.010 A 
ATOM     24  C   UNL     1      -8.680  -9.975  18.011  0.00  0.00    +0.026 A 
ATOM     25  C   UNL     1      -7.987 -11.773  19.491  0.00  0.00    +0.001 A 
ATOM     26  C   UNL     1      -8.956 -10.878  19.042  0.00  0.00    +0.002 A 
ATOM     27  H   UNL     1      -7.341  -8.517  15.936  0.00  0.00    +0.165 HD
ENDBRANCH  18  19
ENDBRANCH  17  18
TORSDOF 4
ENDMDL
MODEL 6
REMARK VINA RESULT:      -7.5     27.176     29.330
REMARK  Name = 51137362
REMARK  4 active torsions:
REMARK  status: ('A' for Active; 'I' for Inactive)
REMARK    1  A    between atoms: N_2  and  C_6
REMARK    2  A    between atoms: C_8  and  C_16
REMARK    3  A    between atoms: C_17  and  C_18
REMARK    4  A    between atoms: C_18  and  C_19
REMARK                            x       y       z     vdW  Elec       q    Type
REMARK                         _______ _______ _______ _____ _____    ______ ____
ROOT
ATOM      1  O   UNL     1      -2.727 -10.548  12.470  0.00  0.00    -0.424 OA
ATOM      3  N   UNL     1      -3.216 -12.666  11.938  0.00  0.00    -0.112 NA
ATOM      4  N   UNL     1      -3.312 -11.904  10.789  0.00  0.00    -0.112 NA
ATOM     16  C   UNL     1      -2.872 -11.834  12.893  0.00  0.00    +0.222 A 
ATOM     17  C   UNL     1      -3.020 -10.675  11.147  0.00  0.00    +0.222 A 
ENDROOT
BRANCH  16   8
ATOM      2  N   UNL     1      -3.589 -11.906  16.486  0.00  0.00    -0.299 NA
ATOM      7  C   UNL     1      -3.907 -12.396  15.142  0.00  0.00    +0.097 C 
ATOM      8  C   UNL     1      -2.620 -12.102  14.359  0.00  0.00    +0.092 C 
ATOM      9  C   UNL     1      -2.906 -10.630  16.270  0.00  0.00    +0.085 C 
ATOM     12  C   UNL     1      -1.954 -10.944  15.123  0.00  0.00    +0.029 C 
BRANCH   2   6
ATOM      6  C   UNL     1      -4.778 -11.767  17.324  0.00  0.00    +0.057 C 
ATOM     10  C   UNL     1      -5.503 -10.460  16.986  0.00  0.00    +0.019 C 
ATOM     11  C   UNL     1      -4.380 -11.811  18.803  0.00  0.00    +0.019 C 
ATOM     13  C   UNL     1      -6.711 -10.242  17.896  0.00  0.00    +0.002 C 
ATOM     14  C   UNL     1      -5.590 -11.592  19.711  0.00  0.00    +0.002 C 
ATOM     15  C   UNL     1      -6.322 -10.297  19.370  0.00  0.00    +0.000 C 
ENDBRANCH   2   6
ENDBRANCH  16   8
BRANCH  17  18
ATOM     18  C   UNL     1      -2.963  -9.452  10.335  0.00  0.00    +0.135 C 
BRANCH  18  19
ATOM      5  N   UNL     1      -6.189  -8.043   9.203  0.00  0.00    -0.360 N 
ATOM     19  C   UNL     1      -4.277  -9.072   9.661  0.00  0.00    -0.013 A 
ATOM     20  C   UNL     1      -4.848  -9.686   8.511  0.00  0.00    +0.003 A 
ATOM     21  C   UNL     1      -5.124  -8.066  10.063  0.00  0.00    +0.087 A 
ATOM     22  C   UNL     1      -6.046  -9.022   8.245  0.00  0.00    +0.047 A 
ATOM     23  C   UNL     1      -4.458 -10.747   7.669  0.00  0.00    +0.010 A 
ATOM     24  C   UNL     1      -6.879  -9.367   7.175  0.00  0.00    +0.026 A 
ATOM     25  C   UNL     1      -5.281 -11.102   6.594  0.00  0.00    +0.001 A 
ATOM     26  C   UNL     1      -6.473 -10.422   6.353  0.00  0.00    +0.002 A 
ATOM     27  H   UNL     1      -6.968  -7.401   9.261  0.00  0.00    +0.165 HD
ENDBRANCH  18  19
ENDBRANCH  17  18
TORSDOF 4
ENDMDL
MODEL 7
REMARK VINA RESULT:      -7.4      2.894      5.312
REMARK  Name = 51137362
REMARK  4 active torsions:
REMARK  status: ('A' for Active; 'I' for Inactive)
REMARK    1  A    between atoms: N_2  and  C_6
REMARK    2  A    between atoms: C_8  and  C_16
REMARK    3  A    between atoms: C_17  and  C_18
REMARK    4  A    between atoms: C_18  and  C_19
REMARK                            x       y       z     vdW  Elec       q    Type
REMARK                         _______ _______ _______ _____ _____    ______ ____
ROOT
ATOM      1  O   UNL     1      18.973   6.608  21.768  0.00  0.00    -0.424 OA
ATOM      3  N   UNL     1      19.219   8.825  21.941  0.00  0.00    -0.112 NA
ATOM      4  N   UNL     1      20.254   8.226  22.635  0.00  0.00    -0.112 NA
ATOM     16  C   UNL     1      18.498   7.844  21.452  0.00  0.00    +0.222 A 
ATOM     17  C   UNL     1      20.070   6.932  22.508  0.00  0.00    +0.222 A 
ENDROOT
BRANCH  16   8
ATOM      2  N   UNL     1      14.914   7.672  20.711  0.00  0.00    -0.299 NA
ATOM      7  C   UNL     1      16.012   8.357  21.396  0.00  0.00    +0.097 C 
ATOM      8  C   UNL     1      17.245   7.897  20.608  0.00  0.00    +0.092 C 
ATOM      9  C   UNL     1      15.407   6.316  20.469  0.00  0.00    +0.085 C 
ATOM     12  C   UNL     1      16.830   6.554  19.982  0.00  0.00    +0.029 C 
BRANCH   2   6
ATOM      6  C   UNL     1      13.677   7.684  21.489  0.00  0.00    +0.057 C 
ATOM     10  C   UNL     1      12.664   6.712  20.875  0.00  0.00    +0.019 C 
ATOM     11  C   UNL     1      13.111   9.108  21.546  0.00  0.00    +0.019 C 
ATOM     13  C   UNL     1      11.330   6.754  21.618  0.00  0.00    +0.002 C 
ATOM     14  C   UNL     1      11.776   9.147  22.288  0.00  0.00    +0.002 C 
ATOM     15  C   UNL     1      10.769   8.171  21.687  0.00  0.00    +0.000 C 
ENDBRANCH   2   6
ENDBRANCH  16   8
BRANCH  17  18
ATOM     18  C   UNL     1      20.866   5.817  23.036  0.00  0.00    +0.135 C 
BRANCH  18  19
ATOM      5  N   UNL     1      22.588   4.464  20.056  0.00  0.00    -0.360 N 
ATOM     19  C   UNL     1      21.670   5.054  21.989  0.00  0.00    -0.013 A 
ATOM     20  C   UNL     1      22.431   3.871  22.201  0.00  0.00    +0.003 A 
ATOM     21  C   UNL     1      21.786   5.394  20.662  0.00  0.00    +0.087 A 
ATOM     22  C   UNL     1      22.997   3.522  20.974  0.00  0.00    +0.047 A 
ATOM     23  C   UNL     1      22.694   3.061  23.324  0.00  0.00    +0.010 A 
ATOM     24  C   UNL     1      23.815   2.398  20.812  0.00  0.00    +0.026 A 
ATOM     25  C   UNL     1      23.511   1.934  23.177  0.00  0.00    +0.001 A 
ATOM     26  C   UNL     1      24.061   1.609  21.939  0.00  0.00    +0.002 A 
ATOM     27  H   UNL     1      22.844   4.467  19.079  0.00  0.00    +0.165 HD
ENDBRANCH  18  19
ENDBRANCH  17  18
TORSDOF 4
ENDMDL
MODEL 8
REMARK VINA RESULT:      -7.3     26.938     29.143
REMARK  Name = 51137362
REMARK  4 active torsions:
REMARK  status: ('A' for Active; 'I' for Inactive)
REMARK    1  A    between atoms: N_2  and  C_6
REMARK    2  A    between atoms: C_8  and  C_16
REMARK    3  A    between atoms: C_17  and  C_18
REMARK    4  A    between atoms: C_18  and  C_19
REMARK                            x       y       z     vdW  Elec       q    Type
REMARK                         _______ _______ _______ _____ _____    ______ ____
ROOT
ATOM      1  O   UNL     1      -3.289 -10.460  11.170  0.00  0.00    -0.424 OA
ATOM      3  N   UNL     1      -1.801  -8.903  10.563  0.00  0.00    -0.112 NA
ATOM      4  N   UNL     1      -1.205  -9.718  11.506  0.00  0.00    -0.112 NA
ATOM     16  C   UNL     1      -3.016  -9.373  10.398  0.00  0.00    +0.222 A 
ATOM     17  C   UNL     1      -2.110 -10.612  11.833  0.00  0.00    +0.222 A 
ENDROOT
BRANCH  16   8
ATOM      2  N   UNL     1      -6.455  -8.781   9.280  0.00  0.00    -0.299 NA
ATOM      7  C   UNL     1      -5.396  -8.502  10.254  0.00  0.00    +0.097 C 
ATOM      8  C   UNL     1      -4.121  -8.885   9.490  0.00  0.00    +0.092 C 
ATOM      9  C   UNL     1      -6.085 -10.061   8.678  0.00  0.00    +0.085 C 
ATOM     12  C   UNL     1      -4.590  -9.904   8.436  0.00  0.00    +0.029 C 
BRANCH   2   6
ATOM      6  C   UNL     1      -7.781  -8.816   9.894  0.00  0.00    +0.057 C 
ATOM     10  C   UNL     1      -7.726  -9.603  11.208  0.00  0.00    +0.019 C 
ATOM     11  C   UNL     1      -8.789  -9.435   8.920  0.00  0.00    +0.019 C 
ATOM     13  C   UNL     1      -9.111  -9.726  11.841  0.00  0.00    +0.002 C 
ATOM     14  C   UNL     1     -10.173  -9.558   9.557  0.00  0.00    +0.002 C 
ATOM     15  C   UNL     1     -10.121 -10.332  10.871  0.00  0.00    +0.000 C 
ENDBRANCH   2   6
ENDBRANCH  16   8
BRANCH  17  18
ATOM     18  C   UNL     1      -2.024 -11.725  12.786  0.00  0.00    +0.135 C 
BRANCH  18  19
ATOM      5  N   UNL     1      -2.070 -10.998  16.412  0.00  0.00    -0.360 N 
ATOM     19  C   UNL     1      -2.318 -11.349  14.235  0.00  0.00    -0.013 A 
ATOM     20  C   UNL     1      -3.552 -10.864  14.750  0.00  0.00    +0.003 A 
ATOM     21  C   UNL     1      -1.427 -11.420  15.279  0.00  0.00    +0.087 A 
ATOM     22  C   UNL     1      -3.369 -10.651  16.118  0.00  0.00    +0.047 A 
ATOM     23  C   UNL     1      -4.812 -10.584  14.182  0.00  0.00    +0.010 A 
ATOM     24  C   UNL     1      -4.387 -10.172  16.950  0.00  0.00    +0.026 A 
ATOM     25  C   UNL     1      -5.839 -10.103  15.003  0.00  0.00    +0.001 A 
ATOM     26  C   UNL     1      -5.628  -9.901  16.365  0.00  0.00    +0.002 A 
ATOM     27  H   UNL     1      -1.653 -10.947  17.331  0.00  0.00    +0.165 HD
ENDBRANCH  18  19
ENDBRANCH  17  18
TORSDOF 4
ENDMDL
MODEL 9
REMARK VINA RESULT:      -7.2      2.222     10.133
REMARK  Name = 51137362
REMARK  4 active torsions:
REMARK  status: ('A' for Active; 'I' for Inactive)
REMARK    1  A    between atoms: N_2  and  C_6
REMARK    2  A    between atoms: C_8  and  C_16
REMARK    3  A    between atoms: C_17  and  C_18
REMARK    4  A    between atoms: C_18  and  C_19
REMARK                            x       y       z     vdW  Elec       q    Type
REMARK                         _______ _______ _______ _____ _____    ______ ____
ROOT
ATOM      1  O   UNL     1      17.667   7.714  20.437  0.00  0.00    -0.424 OA
ATOM      3  N   UNL     1      17.748   5.736  19.394  0.00  0.00    -0.112 NA
ATOM      4  N   UNL     1      16.476   6.253  19.231  0.00  0.00    -0.112 NA
ATOM     16  C   UNL     1      18.407   6.622  20.103  0.00  0.00    +0.222 A 
ATOM     17  C   UNL     1      16.474   7.407  19.857  0.00  0.00    +0.222 A 
ENDROOT
BRANCH  16   8
ATOM      2  N   UNL     1      21.446   5.214  21.589  0.00  0.00    -0.299 NA
ATOM      7  C   UNL     1      20.476   5.203  20.492  0.00  0.00    +0.097 C 
ATOM      8  C   UNL     1      19.840   6.596  20.585  0.00  0.00    +0.092 C 
ATOM      9  C   UNL     1      20.742   5.838  22.709  0.00  0.00    +0.085 C 
ATOM     12  C   UNL     1      20.036   7.017  22.052  0.00  0.00    +0.029 C 
BRANCH   2   6
ATOM      6  C   UNL     1      21.935   3.876  21.915  0.00  0.00    +0.057 C 
ATOM     10  C   UNL     1      22.470   3.852  23.351  0.00  0.00    +0.019 C 
ATOM     11  C   UNL     1      23.019   3.460  20.914  0.00  0.00    +0.019 C 
ATOM     13  C   UNL     1      23.060   2.487  23.702  0.00  0.00    +0.002 C 
ATOM     14  C   UNL     1      23.609   2.095  21.269  0.00  0.00    +0.002 C 
ATOM     15  C   UNL     1      24.132   2.063  22.702  0.00  0.00    +0.000 C 
ENDBRANCH   2   6
ENDBRANCH  16   8
BRANCH  17  18
ATOM     18  C   UNL     1      15.391   8.387  20.009  0.00  0.00    +0.135 C 
BRANCH  18  19
ATOM      5  N   UNL     1      12.572   6.427  21.382  0.00  0.00    -0.360 N 
ATOM     19  C   UNL     1      14.116   7.837  20.640  0.00  0.00    -0.013 A 
ATOM     20  C   UNL     1      13.055   8.598  21.206  0.00  0.00    +0.003 A 
ATOM     21  C   UNL     1      13.791   6.507  20.764  0.00  0.00    +0.087 A 
ATOM     22  C   UNL     1      12.099   7.689  21.664  0.00  0.00    +0.047 A 
ATOM     23  C   UNL     1      12.815   9.977  21.373  0.00  0.00    +0.010 A 
ATOM     24  C   UNL     1      10.910   8.092  22.282  0.00  0.00    +0.026 A 
ATOM     25  C   UNL     1      11.631  10.394  21.990  0.00  0.00    +0.001 A 
ATOM     26  C   UNL     1      10.693   9.464  22.436  0.00  0.00    +0.002 A 
ATOM     27  H   UNL     1      12.088   5.567  21.600  0.00  0.00    +0.165 HD
ENDBRANCH  18  19
ENDBRANCH  17  18
TORSDOF 4
ENDMDL
MODEL 10
REMARK VINA RESULT:      -7.1     26.718     29.307
REMARK  Name = 51137362
REMARK  4 active torsions:
REMARK  status: ('A' for Active; 'I' for Inactive)
REMARK    1  A    between atoms: N_2  and  C_6
REMARK    2  A    between atoms: C_8  and  C_16
REMARK    3  A    between atoms: C_17  and  C_18
REMARK    4  A    between atoms: C_18  and  C_19
REMARK                            x       y       z     vdW  Elec       q    Type
REMARK                         _______ _______ _______ _____ _____    ______ ____
ROOT
ATOM      1  O   UNL     1      -3.446 -10.205  11.676  0.00  0.00    -0.424 OA
ATOM      3  N   UNL     1      -1.268  -9.901  12.089  0.00  0.00    -0.112 NA
ATOM      4  N   UNL     1      -1.562  -9.297  10.881  0.00  0.00    -0.112 NA
ATOM     16  C   UNL     1      -2.397 -10.418  12.516  0.00  0.00    +0.222 A 
ATOM     17  C   UNL     1      -2.843  -9.500  10.679  0.00  0.00    +0.222 A 
ENDROOT
BRANCH  16   8
ATOM      2  N   UNL     1      -3.668 -11.011  15.901  0.00  0.00    -0.299 NA
ATOM      7  C   UNL     1      -3.958 -10.727  14.494  0.00  0.00    +0.097 C 
ATOM      8  C   UNL     1      -2.682 -11.194  13.781  0.00  0.00    +0.092 C 
ATOM      9  C   UNL     1      -2.285 -10.574  16.096  0.00  0.00    +0.085 C 
ATOM     12  C   UNL     1      -1.582 -11.107  14.855  0.00  0.00    +0.029 C 
BRANCH   2   6
ATOM      6  C   UNL     1      -4.597 -10.341  16.808  0.00  0.00    +0.057 C 
ATOM     10  C   UNL     1      -4.773 -11.173  18.083  0.00  0.00    +0.019 C 
ATOM     11  C   UNL     1      -5.941 -10.117  16.105  0.00  0.00    +0.019 C 
ATOM     13  C   UNL     1      -5.797 -10.541  19.024  0.00  0.00    +0.002 C 
ATOM     14  C   UNL     1      -6.964  -9.486  17.048  0.00  0.00    +0.002 C 
ATOM     15  C   UNL     1      -7.133 -10.305  18.325  0.00  0.00    +0.000 C 
ENDBRANCH   2   6
ENDBRANCH  16   8
BRANCH  17  18
ATOM     18  C   UNL     1      -3.693  -9.079   9.558  0.00  0.00    +0.135 C 
BRANCH  18  19
ATOM      5  N   UNL     1      -5.885 -11.851   8.470  0.00  0.00    -0.360 N 
ATOM     19  C   UNL     1      -4.812 -10.053   9.204  0.00  0.00    -0.013 A 
ATOM     20  C   UNL     1      -6.206  -9.852   9.408  0.00  0.00    +0.003 A 
ATOM     21  C   UNL     1      -4.647 -11.290   8.627  0.00  0.00    +0.087 A 
ATOM     22  C   UNL     1      -6.856 -10.995   8.940  0.00  0.00    +0.047 A 
ATOM     23  C   UNL     1      -6.978  -8.805   9.948  0.00  0.00    +0.010 A 
ATOM     24  C   UNL     1      -8.247 -11.143   8.983  0.00  0.00    +0.026 A 
ATOM     25  C   UNL     1      -8.371  -8.939   9.999  0.00  0.00    +0.001 A 
ATOM     26  C   UNL     1      -8.993 -10.091   9.523  0.00  0.00    +0.002 A 
ATOM     27  H   UNL     1      -6.063 -12.761   8.069  0.00  0.00    +0.165 HD
ENDBRANCH  18  19
ENDBRANCH  17  18
TORSDOF 4
ENDMDL
