MODEL 1
REMARK VINA RESULT:      -7.8      0.000      0.000
REMARK  Name = 25338459
REMARK  5 active torsions:
REMARK  status: ('A' for Active; 'I' for Inactive)
REMARK    1  A    between atoms: N_3  and  C_14
REMARK    2  A    between atoms: N_4  and  C_9
REMARK    3  A    between atoms: N_7  and  C_18
REMARK    4  A    between atoms: C_10  and  C_13
REMARK    5  A    between atoms: C_16  and  C_17
REMARK                            x       y       z     vdW  Elec       q    Type
REMARK                         _______ _______ _______ _____ _____    ______ ____
ROOT
ATOM      3  N   UNL     1      11.388   6.818  21.703  0.00  0.00    -0.293 NA
ATOM      9  C   UNL     1      10.651   9.007  22.027  0.00  0.00    +0.090 C 
ATOM     10  C   UNL     1      11.664   7.478  20.412  0.00  0.00    +0.147 C 
ATOM     11  C   UNL     1      11.326   8.961  20.656  0.00  0.00    +0.052 C 
ATOM     12  C   UNL     1      10.272   7.559  22.301  0.00  0.00    +0.107 C 
ATOM     14  C   UNL     1      11.087   5.398  21.569  0.00  0.00    +0.105 C 
ENDROOT
BRANCH   9   4
ATOM      2  O   UNL     1      11.081  11.757  22.700  0.00  0.00    -0.253 OA
ATOM      4  N   UNL     1      11.543   9.517  23.041  0.00  0.00    -0.295 N 
ATOM      7  N   UNL     1      12.620  11.075  24.336  0.00  0.00    -0.269 N 
ATOM     15  C   UNL     1      11.694  10.882  23.308  0.00  0.00    +0.304 C 
ATOM     28  H   UNL     1      12.139   8.860  23.535  0.00  0.00    +0.151 HD
ATOM     29  H   UNL     1      13.040  10.240  24.736  0.00  0.00    +0.156 HD
BRANCH   7  18
ATOM     18  C   UNL     1      13.050  12.300  24.899  0.00  0.00    +0.035 A 
ATOM     21  C   UNL     1      12.164  13.069  25.653  0.00  0.00    +0.023 A 
ATOM     22  C   UNL     1      14.359  12.737  24.701  0.00  0.00    +0.023 A 
ATOM     25  C   UNL     1      12.588  14.276  26.208  0.00  0.00    +0.002 A 
ATOM     26  C   UNL     1      14.783  13.945  25.257  0.00  0.00    +0.002 A 
ATOM     27  C   UNL     1      13.897  14.715  26.011  0.00  0.00    +0.000 A 
ENDBRANCH   7  18
ENDBRANCH   9   4
BRANCH  10  13
ATOM      1  O   UNL     1      13.309   7.508  18.606  0.00  0.00    -0.336 OA
ATOM      5  N   UNL     1      14.146   6.907  20.593  0.00  0.00    -0.190 NA
ATOM      6  N   UNL     1      14.671   7.261  18.394  0.00  0.00    -0.056 NA
ATOM     13  C   UNL     1      13.083   7.278  19.925  0.00  0.00    +0.245 A 
ATOM     16  C   UNL     1      15.095   6.911  19.612  0.00  0.00    +0.202 A 
BRANCH  16  17
ATOM      8  N   UNL     1      19.120   5.886  20.412  0.00  0.00    -0.263 NA
ATOM     17  C   UNL     1      16.460   6.562  19.883  0.00  0.00    +0.025 A 
ATOM     19  C   UNL     1      17.168   5.766  18.991  0.00  0.00    +0.031 A 
ATOM     20  C   UNL     1      17.081   7.022  21.040  0.00  0.00    +0.031 A 
ATOM     23  C   UNL     1      18.484   5.459  19.298  0.00  0.00    +0.111 A 
ATOM     24  C   UNL     1      18.401   6.659  21.256  0.00  0.00    +0.111 A 
ENDBRANCH  16  17
ENDBRANCH  10  13
TORSDOF 4
ENDMDL
MODEL 2
REMARK VINA RESULT:      -7.5     27.423     30.915
REMARK  Name = 25338459
REMARK  5 active torsions:
REMARK  status: ('A' for Active; 'I' for Inactive)
REMARK    1  A    between atoms: N_3  and  C_14
REMARK    2  A    between atoms: N_4  and  C_9
REMARK    3  A    between atoms: N_7  and  C_18
REMARK    4  A    between atoms: C_10  and  C_13
REMARK    5  A    between atoms: C_16  and  C_17
REMARK                            x       y       z     vdW  Elec       q    Type
REMARK                         _______ _______ _______ _____ _____    ______ ____
ROOT
ATOM      3  N   UNL     1     -17.865   2.630  26.773  0.00  0.00    -0.293 NA
ATOM      9  C   UNL     1     -16.829   1.964  24.793  0.00  0.00    +0.090 C 
ATOM     10  C   UNL     1     -17.360   1.278  27.077  0.00  0.00    +0.147 C 
ATOM     11  C   UNL     1     -16.540   0.882  25.834  0.00  0.00    +0.052 C 
ATOM     12  C   UNL     1     -18.072   2.663  25.322  0.00  0.00    +0.107 C 
ATOM     14  C   UNL     1     -19.081   2.966  27.503  0.00  0.00    +0.105 C 
ENDROOT
BRANCH   9   4
ATOM      2  O   UNL     1     -16.360   3.782  22.629  0.00  0.00    -0.253 OA
ATOM      4  N   UNL     1     -15.724   2.885  24.664  0.00  0.00    -0.295 N 
ATOM      7  N   UNL     1     -14.413   4.514  23.718  0.00  0.00    -0.269 N 
ATOM     15  C   UNL     1     -15.569   3.743  23.570  0.00  0.00    +0.304 C 
ATOM     28  H   UNL     1     -14.989   2.859  25.365  0.00  0.00    +0.151 HD
ATOM     29  H   UNL     1     -13.865   4.359  24.561  0.00  0.00    +0.156 HD
BRANCH   7  18
ATOM     18  C   UNL     1     -13.905   5.496  22.835  0.00  0.00    +0.035 A 
ATOM     21  C   UNL     1     -14.557   6.723  22.708  0.00  0.00    +0.023 A 
ATOM     22  C   UNL     1     -12.753   5.238  22.094  0.00  0.00    +0.023 A 
ATOM     25  C   UNL     1     -14.056   7.691  21.839  0.00  0.00    +0.002 A 
ATOM     26  C   UNL     1     -12.252   6.207  21.224  0.00  0.00    +0.002 A 
ATOM     27  C   UNL     1     -12.904   7.434  21.096  0.00  0.00    +0.000 A 
ENDBRANCH   7  18
ENDBRANCH   9   4
BRANCH  10  13
ATOM      1  O   UNL     1     -15.711   0.149  28.484  0.00  0.00    -0.336 OA
ATOM      5  N   UNL     1     -16.532   2.034  29.371  0.00  0.00    -0.190 NA
ATOM      6  N   UNL     1     -15.079   0.301  29.725  0.00  0.00    -0.056 NA
ATOM     13  C   UNL     1     -16.548   1.211  28.354  0.00  0.00    +0.245 A 
ATOM     16  C   UNL     1     -15.616   1.435  30.187  0.00  0.00    +0.202 A 
BRANCH  16  17
ATOM      8  N   UNL     1     -14.557   3.093  33.932  0.00  0.00    -0.263 NA
ATOM     17  C   UNL     1     -15.257   1.997  31.458  0.00  0.00    +0.025 A 
ATOM     19  C   UNL     1     -14.832   1.171  32.491  0.00  0.00    +0.031 A 
ATOM     20  C   UNL     1     -15.332   3.371  31.659  0.00  0.00    +0.031 A 
ATOM     23  C   UNL     1     -14.496   1.762  33.698  0.00  0.00    +0.111 A 
ATOM     24  C   UNL     1     -14.974   3.865  32.903  0.00  0.00    +0.111 A 
ENDBRANCH  16  17
ENDBRANCH  10  13
TORSDOF 4
ENDMDL
MODEL 3
REMARK VINA RESULT:      -7.2      4.404      6.895
REMARK  Name = 25338459
REMARK  5 active torsions:
REMARK  status: ('A' for Active; 'I' for Inactive)
REMARK    1  A    between atoms: N_3  and  C_14
REMARK    2  A    between atoms: N_4  and  C_9
REMARK    3  A    between atoms: N_7  and  C_18
REMARK    4  A    between atoms: C_10  and  C_13
REMARK    5  A    between atoms: C_16  and  C_17
REMARK                            x       y       z     vdW  Elec       q    Type
REMARK                         _______ _______ _______ _____ _____    ______ ____
ROOT
ATOM      3  N   UNL     1      12.744   8.484  20.167  0.00  0.00    -0.293 NA
ATOM      9  C   UNL     1      12.189   8.330  17.907  0.00  0.00    +0.090 C 
ATOM     10  C   UNL     1      13.555   7.351  19.680  0.00  0.00    +0.147 C 
ATOM     11  C   UNL     1      13.318   7.331  18.158  0.00  0.00    +0.052 C 
ATOM     12  C   UNL     1      11.576   8.549  19.282  0.00  0.00    +0.107 C 
ATOM     14  C   UNL     1      12.359   8.355  21.567  0.00  0.00    +0.105 C 
ENDROOT
BRANCH   9   4
ATOM      2  O   UNL     1      13.046   8.773  15.210  0.00  0.00    -0.253 OA
ATOM      4  N   UNL     1      12.688   9.566  17.352  0.00  0.00    -0.295 N 
ATOM      7  N   UNL     1      13.522  11.003  15.768  0.00  0.00    -0.269 N 
ATOM     15  C   UNL     1      13.086   9.698  16.017  0.00  0.00    +0.304 C 
ATOM     28  H   UNL     1      12.821  10.357  17.975  0.00  0.00    +0.151 HD
ATOM     29  H   UNL     1      13.491  11.652  16.550  0.00  0.00    +0.156 HD
BRANCH   7  18
ATOM     18  C   UNL     1      14.002  11.540  14.550  0.00  0.00    +0.035 A 
ATOM     21  C   UNL     1      15.331  11.339  14.176  0.00  0.00    +0.023 A 
ATOM     22  C   UNL     1      13.147  12.269  13.724  0.00  0.00    +0.023 A 
ATOM     25  C   UNL     1      15.805  11.868  12.976  0.00  0.00    +0.002 A 
ATOM     26  C   UNL     1      13.622  12.797  12.523  0.00  0.00    +0.002 A 
ATOM     27  C   UNL     1      14.951  12.597  12.149  0.00  0.00    +0.000 A 
ENDBRANCH   7  18
ENDBRANCH   9   4
BRANCH  10  13
ATOM      1  O   UNL     1      15.509   8.718  20.215  0.00  0.00    -0.336 OA
ATOM      5  N   UNL     1      15.910   6.515  20.207  0.00  0.00    -0.190 NA
ATOM      6  N   UNL     1      16.864   8.569  20.533  0.00  0.00    -0.056 NA
ATOM     13  C   UNL     1      15.022   7.462  20.039  0.00  0.00    +0.245 A 
ATOM     16  C   UNL     1      17.025   7.243  20.508  0.00  0.00    +0.202 A 
BRANCH  16  17
ATOM      8  N   UNL     1      20.737   5.385  21.318  0.00  0.00    -0.263 NA
ATOM     17  C   UNL     1      18.284   6.612  20.783  0.00  0.00    +0.025 A 
ATOM     19  C   UNL     1      18.757   5.606  19.950  0.00  0.00    +0.031 A 
ATOM     20  C   UNL     1      19.037   7.007  21.884  0.00  0.00    +0.031 A 
ATOM     23  C   UNL     1      19.979   5.029  20.257  0.00  0.00    +0.111 A 
ATOM     24  C   UNL     1      20.246   6.368  22.106  0.00  0.00    +0.111 A 
ENDBRANCH  16  17
ENDBRANCH  10  13
TORSDOF 4
ENDMDL
MODEL 4
REMARK VINA RESULT:      -7.0     26.314     29.609
REMARK  Name = 25338459
REMARK  5 active torsions:
REMARK  status: ('A' for Active; 'I' for Inactive)
REMARK    1  A    between atoms: N_3  and  C_14
REMARK    2  A    between atoms: N_4  and  C_9
REMARK    3  A    between atoms: N_7  and  C_18
REMARK    4  A    between atoms: C_10  and  C_13
REMARK    5  A    between atoms: C_16  and  C_17
REMARK                            x       y       z     vdW  Elec       q    Type
REMARK                         _______ _______ _______ _____ _____    ______ ____
ROOT
ATOM      3  N   UNL     1     -16.768   3.351  23.989  0.00  0.00    -0.293 NA
ATOM      9  C   UNL     1     -17.206   4.355  26.048  0.00  0.00    +0.090 C 
ATOM     10  C   UNL     1     -16.698   4.797  23.699  0.00  0.00    +0.147 C 
ATOM     11  C   UNL     1     -16.832   5.475  25.076  0.00  0.00    +0.052 C 
ATOM     12  C   UNL     1     -17.660   3.218  25.145  0.00  0.00    +0.107 C 
ATOM     14  C   UNL     1     -17.227   2.560  22.854  0.00  0.00    +0.105 C 
ENDROOT
BRANCH   9   4
ATOM      2  O   UNL     1     -17.295   3.412  28.751  0.00  0.00    -0.253 OA
ATOM      4  N   UNL     1     -16.080   3.961  26.862  0.00  0.00    -0.295 N 
ATOM      7  N   UNL     1     -14.957   3.202  28.714  0.00  0.00    -0.269 N 
ATOM     15  C   UNL     1     -16.211   3.509  28.179  0.00  0.00    +0.304 C 
ATOM     28  H   UNL     1     -15.145   4.084  26.485  0.00  0.00    +0.151 HD
ATOM     29  H   UNL     1     -14.155   3.339  28.104  0.00  0.00    +0.156 HD
BRANCH   7  18
ATOM     18  C   UNL     1     -14.661   2.716  30.009  0.00  0.00    +0.035 A 
ATOM     21  C   UNL     1     -14.142   3.579  30.974  0.00  0.00    +0.023 A 
ATOM     22  C   UNL     1     -14.888   1.377  30.321  0.00  0.00    +0.023 A 
ATOM     25  C   UNL     1     -13.850   3.101  32.252  0.00  0.00    +0.002 A 
ATOM     26  C   UNL     1     -14.597   0.899  31.599  0.00  0.00    +0.002 A 
ATOM     27  C   UNL     1     -14.077   1.761  32.565  0.00  0.00    +0.000 A 
ENDBRANCH   7  18
ENDBRANCH   9   4
BRANCH  10  13
ATOM      1  O   UNL     1     -14.300   4.535  23.306  0.00  0.00    -0.336 OA
ATOM      5  N   UNL     1     -15.263   6.121  22.054  0.00  0.00    -0.190 NA
ATOM      6  N   UNL     1     -13.280   5.079  22.516  0.00  0.00    -0.056 NA
ATOM     13  C   UNL     1     -15.434   5.204  22.971  0.00  0.00    +0.245 A 
ATOM     16  C   UNL     1     -13.926   6.008  21.805  0.00  0.00    +0.202 A 
BRANCH  16  17
ATOM      8  N   UNL     1     -11.982   8.449  18.950  0.00  0.00    -0.263 NA
ATOM     17  C   UNL     1     -13.266   6.836  20.837  0.00  0.00    +0.025 A 
ATOM     19  C   UNL     1     -11.881   6.948  20.842  0.00  0.00    +0.031 A 
ATOM     20  C   UNL     1     -14.011   7.529  19.889  0.00  0.00    +0.031 A 
ATOM     23  C   UNL     1     -11.292   7.759  19.886  0.00  0.00    +0.111 A 
ATOM     24  C   UNL     1     -13.328   8.315  18.975  0.00  0.00    +0.111 A 
ENDBRANCH  16  17
ENDBRANCH  10  13
TORSDOF 4
ENDMDL
MODEL 5
REMARK VINA RESULT:      -6.9      2.447      7.865
REMARK  Name = 25338459
REMARK  5 active torsions:
REMARK  status: ('A' for Active; 'I' for Inactive)
REMARK    1  A    between atoms: N_3  and  C_14
REMARK    2  A    between atoms: N_4  and  C_9
REMARK    3  A    between atoms: N_7  and  C_18
REMARK    4  A    between atoms: C_10  and  C_13
REMARK    5  A    between atoms: C_16  and  C_17
REMARK                            x       y       z     vdW  Elec       q    Type
REMARK                         _______ _______ _______ _____ _____    ______ ____
ROOT
ATOM      3  N   UNL     1      13.741   8.686  19.155  0.00  0.00    -0.293 NA
ATOM      9  C   UNL     1      14.822   6.759  19.903  0.00  0.00    +0.090 C 
ATOM     10  C   UNL     1      12.692   7.957  19.894  0.00  0.00    +0.147 C 
ATOM     11  C   UNL     1      13.425   6.757  20.525  0.00  0.00    +0.052 C 
ATOM     12  C   UNL     1      14.684   7.664  18.688  0.00  0.00    +0.107 C 
ATOM     14  C   UNL     1      13.217   9.486  18.055  0.00  0.00    +0.105 C 
ENDROOT
BRANCH   9   4
ATOM      2  O   UNL     1      17.650   6.325  19.781  0.00  0.00    -0.253 OA
ATOM      4  N   UNL     1      15.812   7.263  20.825  0.00  0.00    -0.295 N 
ATOM      7  N   UNL     1      17.893   7.619  21.725  0.00  0.00    -0.269 N 
ATOM     15  C   UNL     1      17.181   7.004  20.692  0.00  0.00    +0.304 C 
ATOM     28  H   UNL     1      15.495   7.771  21.645  0.00  0.00    +0.151 HD
ATOM     29  H   UNL     1      17.350   8.148  22.403  0.00  0.00    +0.156 HD
BRANCH   7  18
ATOM     18  C   UNL     1      19.290   7.599  21.948  0.00  0.00    +0.035 A 
ATOM     21  C   UNL     1      19.870   6.535  22.639  0.00  0.00    +0.023 A 
ATOM     22  C   UNL     1      20.086   8.642  21.477  0.00  0.00    +0.023 A 
ATOM     25  C   UNL     1      21.247   6.515  22.859  0.00  0.00    +0.002 A 
ATOM     26  C   UNL     1      21.464   8.621  21.697  0.00  0.00    +0.002 A 
ATOM     27  C   UNL     1      22.045   7.558  22.388  0.00  0.00    +0.000 A 
ENDBRANCH   7  18
ENDBRANCH   9   4
BRANCH  10  13
ATOM      1  O   UNL     1      11.063   8.175  21.703  0.00  0.00    -0.336 OA
ATOM      5  N   UNL     1      12.108  10.084  21.179  0.00  0.00    -0.190 NA
ATOM      6  N   UNL     1      10.542   9.150  22.562  0.00  0.00    -0.056 NA
ATOM     13  C   UNL     1      11.978   8.808  20.923  0.00  0.00    +0.245 A 
ATOM     16  C   UNL     1      11.207  10.249  22.192  0.00  0.00    +0.202 A 
BRANCH  16  17
ATOM      8  N   UNL     1      10.589  14.009  24.027  0.00  0.00    -0.263 NA
ATOM     17  C   UNL     1      10.998  11.525  22.814  0.00  0.00    +0.025 A 
ATOM     19  C   UNL     1      10.980  12.682  22.045  0.00  0.00    +0.031 A 
ATOM     20  C   UNL     1      10.810  11.608  24.190  0.00  0.00    +0.031 A 
ATOM     23  C   UNL     1      10.773  13.889  22.693  0.00  0.00    +0.111 A 
ATOM     24  C   UNL     1      10.612  12.862  24.743  0.00  0.00    +0.111 A 
ENDBRANCH  16  17
ENDBRANCH  10  13
TORSDOF 4
ENDMDL
MODEL 6
REMARK VINA RESULT:      -6.5     27.369     30.201
REMARK  Name = 25338459
REMARK  5 active torsions:
REMARK  status: ('A' for Active; 'I' for Inactive)
REMARK    1  A    between atoms: N_3  and  C_14
REMARK    2  A    between atoms: N_4  and  C_9
REMARK    3  A    between atoms: N_7  and  C_18
REMARK    4  A    between atoms: C_10  and  C_13
REMARK    5  A    between atoms: C_16  and  C_17
REMARK                            x       y       z     vdW  Elec       q    Type
REMARK                         _______ _______ _______ _____ _____    ______ ____
ROOT
ATOM      3  N   UNL     1      -7.323 -12.452  18.129  0.00  0.00    -0.293 NA
ATOM      9  C   UNL     1      -5.314 -11.298  18.399  0.00  0.00    +0.090 C 
ATOM     10  C   UNL     1      -7.614 -11.484  19.204  0.00  0.00    +0.147 C 
ATOM     11  C   UNL     1      -6.347 -10.610  19.292  0.00  0.00    +0.052 C 
ATOM     12  C   UNL     1      -5.878 -12.695  18.189  0.00  0.00    +0.107 C 
ATOM     14  C   UNL     1      -8.088 -13.687  18.246  0.00  0.00    +0.105 C 
ENDROOT
BRANCH   9   4
ATOM      2  O   UNL     1      -3.930 -12.255  16.081  0.00  0.00    -0.253 OA
ATOM      4  N   UNL     1      -5.152 -10.604  17.143  0.00  0.00    -0.295 N 
ATOM      7  N   UNL     1      -4.465 -10.251  14.982  0.00  0.00    -0.269 N 
ATOM     15  C   UNL     1      -4.458 -11.145  16.055  0.00  0.00    +0.304 C 
ATOM     28  H   UNL     1      -5.496  -9.651  17.070  0.00  0.00    +0.151 HD
ATOM     29  H   UNL     1      -4.950  -9.369  15.125  0.00  0.00    +0.156 HD
BRANCH   7  18
ATOM     18  C   UNL     1      -3.878 -10.421  13.706  0.00  0.00    +0.035 A 
ATOM     21  C   UNL     1      -2.490 -10.492  13.582  0.00  0.00    +0.023 A 
ATOM     22  C   UNL     1      -4.685 -10.517  12.574  0.00  0.00    +0.023 A 
ATOM     25  C   UNL     1      -1.910 -10.660  12.325  0.00  0.00    +0.002 A 
ATOM     26  C   UNL     1      -4.105 -10.686  11.316  0.00  0.00    +0.002 A 
ATOM     27  C   UNL     1      -2.717 -10.757  11.191  0.00  0.00    +0.000 A 
ENDBRANCH   7  18
ENDBRANCH   9   4
BRANCH  10  13
ATOM      1  O   UNL     1      -9.822 -10.724  19.923  0.00  0.00    -0.336 OA
ATOM      5  N   UNL     1      -9.175  -9.908  17.941  0.00  0.00    -0.190 NA
ATOM      6  N   UNL     1     -10.868  -9.905  19.480  0.00  0.00    -0.056 NA
ATOM     13  C   UNL     1      -8.866 -10.669  18.959  0.00  0.00    +0.245 A 
ATOM     16  C   UNL     1     -10.413  -9.460  18.305  0.00  0.00    +0.202 A 
BRANCH  16  17
ATOM      8  N   UNL     1     -12.633  -6.828  15.850  0.00  0.00    -0.263 NA
ATOM     17  C   UNL     1     -11.166  -8.567  17.473  0.00  0.00    +0.025 A 
ATOM     19  C   UNL     1     -10.585  -7.395  17.002  0.00  0.00    +0.031 A 
ATOM     20  C   UNL     1     -12.479  -8.871  17.132  0.00  0.00    +0.031 A 
ATOM     23  C   UNL     1     -11.353  -6.567  16.201  0.00  0.00    +0.111 A 
ATOM     24  C   UNL     1     -13.164  -7.976  16.326  0.00  0.00    +0.111 A 
ENDBRANCH  16  17
ENDBRANCH  10  13
TORSDOF 4
ENDMDL
MODEL 7
REMARK VINA RESULT:      -6.5     27.146     29.525
REMARK  Name = 25338459
REMARK  5 active torsions:
REMARK  status: ('A' for Active; 'I' for Inactive)
REMARK    1  A    between atoms: N_3  and  C_14
REMARK    2  A    between atoms: N_4  and  C_9
REMARK    3  A    between atoms: N_7  and  C_18
REMARK    4  A    between atoms: C_10  and  C_13
REMARK    5  A    between atoms: C_16  and  C_17
REMARK                            x       y       z     vdW  Elec       q    Type
REMARK                         _______ _______ _______ _____ _____    ______ ____
ROOT
ATOM      3  N   UNL     1      -3.634 -12.103  11.746  0.00  0.00    -0.293 NA
ATOM      9  C   UNL     1      -3.442 -10.265  10.323  0.00  0.00    +0.090 C 
ATOM     10  C   UNL     1      -2.700 -11.205  12.453  0.00  0.00    +0.147 C 
ATOM     11  C   UNL     1      -2.680  -9.920  11.603  0.00  0.00    +0.052 C 
ATOM     12  C   UNL     1      -3.493 -11.785  10.321  0.00  0.00    +0.107 C 
ATOM     14  C   UNL     1      -3.389 -13.514  12.015  0.00  0.00    +0.105 C 
ENDROOT
BRANCH   9   4
ATOM      2  O   UNL     1      -4.977  -9.490   8.032  0.00  0.00    -0.253 OA
ATOM      4  N   UNL     1      -4.769  -9.695  10.326  0.00  0.00    -0.295 N 
ATOM      7  N   UNL     1      -6.709  -8.820   9.467  0.00  0.00    -0.269 N 
ATOM     15  C   UNL     1      -5.452  -9.344   9.156  0.00  0.00    +0.304 C 
ATOM     28  H   UNL     1      -5.199  -9.475  11.219  0.00  0.00    +0.151 HD
ATOM     29  H   UNL     1      -6.951  -8.767  10.454  0.00  0.00    +0.156 HD
BRANCH   7  18
ATOM     18  C   UNL     1      -7.700  -8.350   8.573  0.00  0.00    +0.035 A 
ATOM     21  C   UNL     1      -8.562  -9.254   7.952  0.00  0.00    +0.023 A 
ATOM     22  C   UNL     1      -7.816  -6.985   8.314  0.00  0.00    +0.023 A 
ATOM     25  C   UNL     1      -9.539  -8.792   7.071  0.00  0.00    +0.002 A 
ATOM     26  C   UNL     1      -8.794  -6.523   7.433  0.00  0.00    +0.002 A 
ATOM     27  C   UNL     1      -9.656  -7.426   6.811  0.00  0.00    +0.000 A 
ENDBRANCH   7  18
ENDBRANCH   9   4
BRANCH  10  13
ATOM      1  O   UNL     1      -2.071 -10.784  14.776  0.00  0.00    -0.336 OA
ATOM      5  N   UNL     1      -4.281 -10.848  14.426  0.00  0.00    -0.190 NA
ATOM      6  N   UNL     1      -2.668 -10.559  16.022  0.00  0.00    -0.056 NA
ATOM     13  C   UNL     1      -3.090 -10.943  13.892  0.00  0.00    +0.245 A 
ATOM     16  C   UNL     1      -3.972 -10.612  15.734  0.00  0.00    +0.202 A 
BRANCH  16  17
ATOM      8  N   UNL     1      -6.974 -10.074  18.664  0.00  0.00    -0.263 NA
ATOM     17  C   UNL     1      -4.990 -10.430  16.728  0.00  0.00    +0.025 A 
ATOM     19  C   UNL     1      -4.809 -10.929  18.013  0.00  0.00    +0.031 A 
ATOM     20  C   UNL     1      -6.163  -9.752  16.411  0.00  0.00    +0.031 A 
ATOM     23  C   UNL     1      -5.821 -10.726  18.937  0.00  0.00    +0.111 A 
ATOM     24  C   UNL     1      -7.115  -9.603  17.405  0.00  0.00    +0.111 A 
ENDBRANCH  16  17
ENDBRANCH  10  13
TORSDOF 4
ENDMDL
MODEL 8
REMARK VINA RESULT:      -6.4     25.852     28.721
REMARK  Name = 25338459
REMARK  5 active torsions:
REMARK  status: ('A' for Active; 'I' for Inactive)
REMARK    1  A    between atoms: N_3  and  C_14
REMARK    2  A    between atoms: N_4  and  C_9
REMARK    3  A    between atoms: N_7  and  C_18
REMARK    4  A    between atoms: C_10  and  C_13
REMARK    5  A    between atoms: C_16  and  C_17
REMARK                            x       y       z     vdW  Elec       q    Type
REMARK                         _______ _______ _______ _____ _____    ______ ____
ROOT
ATOM      3  N   UNL     1      -2.499 -10.527  15.799  0.00  0.00    -0.293 NA
ATOM      9  C   UNL     1      -4.373 -11.480  16.808  0.00  0.00    +0.090 C 
ATOM     10  C   UNL     1      -2.951 -11.536  14.822  0.00  0.00    +0.147 C 
ATOM     11  C   UNL     1      -4.275 -12.070  15.401  0.00  0.00    +0.052 C 
ATOM     12  C   UNL     1      -2.961 -11.002  17.108  0.00  0.00    +0.107 C 
ATOM     14  C   UNL     1      -1.057 -10.311  15.777  0.00  0.00    +0.105 C 
ENDROOT
BRANCH   9   4
ATOM      2  O   UNL     1      -7.212 -11.690  17.126  0.00  0.00    -0.253 OA
ATOM      4  N   UNL     1      -5.318 -10.390  16.862  0.00  0.00    -0.295 N 
ATOM      7  N   UNL     1      -7.356  -9.349  17.037  0.00  0.00    -0.269 N 
ATOM     15  C   UNL     1      -6.695 -10.580  17.021  0.00  0.00    +0.304 C 
ATOM     28  H   UNL     1      -4.977  -9.446  16.708  0.00  0.00    +0.151 HD
ATOM     29  H   UNL     1      -6.778  -8.518  16.938  0.00  0.00    +0.156 HD
BRANCH   7  18
ATOM     18  C   UNL     1      -8.744  -9.110  17.178  0.00  0.00    +0.035 A 
ATOM     21  C   UNL     1      -9.388  -8.221  16.319  0.00  0.00    +0.023 A 
ATOM     22  C   UNL     1      -9.466  -9.764  18.176  0.00  0.00    +0.023 A 
ATOM     25  C   UNL     1     -10.756  -7.985  16.457  0.00  0.00    +0.002 A 
ATOM     26  C   UNL     1     -10.834  -9.528  18.313  0.00  0.00    +0.002 A 
ATOM     27  C   UNL     1     -11.480  -8.639  17.454  0.00  0.00    +0.000 A 
ENDBRANCH   7  18
ENDBRANCH   9   4
BRANCH  10  13
ATOM      1  O   UNL     1      -1.965 -10.815  12.706  0.00  0.00    -0.336 OA
ATOM      5  N   UNL     1      -4.196 -10.648  12.778  0.00  0.00    -0.190 NA
ATOM      6  N   UNL     1      -2.357 -10.306  11.461  0.00  0.00    -0.056 NA
ATOM     13  C   UNL     1      -3.108 -10.989  13.420  0.00  0.00    +0.245 A 
ATOM     16  C   UNL     1      -3.686 -10.235  11.581  0.00  0.00    +0.202 A 
BRANCH  16  17
ATOM      8  N   UNL     1      -6.182  -8.837   8.467  0.00  0.00    -0.263 NA
ATOM     17  C   UNL     1      -4.532  -9.760  10.525  0.00  0.00    +0.025 A 
ATOM     19  C   UNL     1      -4.242 -10.077   9.203  0.00  0.00    +0.031 A 
ATOM     20  C   UNL     1      -5.647  -8.983  10.819  0.00  0.00    +0.031 A 
ATOM     23  C   UNL     1      -5.091  -9.595   8.219  0.00  0.00    +0.111 A 
ATOM     24  C   UNL     1      -6.433  -8.550   9.764  0.00  0.00    +0.111 A 
ENDBRANCH  16  17
ENDBRANCH  10  13
TORSDOF 4
ENDMDL
MODEL 9
REMARK VINA RESULT:      -6.4      9.114     12.964
REMARK  Name = 25338459
REMARK  5 active torsions:
REMARK  status: ('A' for Active; 'I' for Inactive)
REMARK    1  A    between atoms: N_3  and  C_14
REMARK    2  A    between atoms: N_4  and  C_9
REMARK    3  A    between atoms: N_7  and  C_18
REMARK    4  A    between atoms: C_10  and  C_13
REMARK    5  A    between atoms: C_16  and  C_17
REMARK                            x       y       z     vdW  Elec       q    Type
REMARK                         _______ _______ _______ _____ _____    ______ ____
ROOT
ATOM      3  N   UNL     1      22.885   1.675  27.031  0.00  0.00    -0.293 NA
ATOM      9  C   UNL     1      22.229  -0.511  26.551  0.00  0.00    +0.090 C 
ATOM     10  C   UNL     1      23.615   1.351  25.790  0.00  0.00    +0.147 C 
ATOM     11  C   UNL     1      23.077  -0.031  25.373  0.00  0.00    +0.052 C 
ATOM     12  C   UNL     1      22.648   0.392  27.701  0.00  0.00    +0.107 C 
ATOM     14  C   UNL     1      23.599   2.612  27.889  0.00  0.00    +0.105 C 
ENDROOT
BRANCH   9   4
ATOM      2  O   UNL     1      20.669  -2.184  24.826  0.00  0.00    -0.253 OA
ATOM      4  N   UNL     1      20.817  -0.386  26.274  0.00  0.00    -0.295 N 
ATOM      7  N   UNL     1      18.781  -0.887  25.341  0.00  0.00    -0.269 N 
ATOM     15  C   UNL     1      20.128  -1.250  25.415  0.00  0.00    +0.304 C 
ATOM     28  H   UNL     1      20.316   0.406  26.665  0.00  0.00    +0.151 HD
ATOM     29  H   UNL     1      18.493  -0.084  25.895  0.00  0.00    +0.156 HD
BRANCH   7  18
ATOM     18  C   UNL     1      17.756  -1.505  24.586  0.00  0.00    +0.035 A 
ATOM     21  C   UNL     1      17.401  -0.989  23.340  0.00  0.00    +0.023 A 
ATOM     22  C   UNL     1      17.101  -2.629  25.088  0.00  0.00    +0.023 A 
ATOM     25  C   UNL     1      16.391  -1.597  22.596  0.00  0.00    +0.002 A 
ATOM     26  C   UNL     1      16.091  -3.238  24.343  0.00  0.00    +0.002 A 
ATOM     27  C   UNL     1      15.735  -2.722  23.097  0.00  0.00    +0.000 A 
ENDBRANCH   7  18
ENDBRANCH   9   4
BRANCH  10  13
ATOM      1  O   UNL     1      24.585   2.950  24.216  0.00  0.00    -0.336 OA
ATOM      5  N   UNL     1      22.349   2.847  24.153  0.00  0.00    -0.190 NA
ATOM      6  N   UNL     1      24.182   3.869  23.239  0.00  0.00    -0.056 NA
ATOM     13  C   UNL     1      23.446   2.392  24.703  0.00  0.00    +0.245 A 
ATOM     16  C   UNL     1      22.851   3.751  23.261  0.00  0.00    +0.202 A 
BRANCH  16  17
ATOM      8  N   UNL     1      20.323   6.012  20.733  0.00  0.00    -0.263 NA
ATOM     17  C   UNL     1      21.994   4.518  22.403  0.00  0.00    +0.025 A 
ATOM     19  C   UNL     1      21.579   3.996  21.184  0.00  0.00    +0.031 A 
ATOM     20  C   UNL     1      21.573   5.786  22.790  0.00  0.00    +0.031 A 
ATOM     23  C   UNL     1      20.751   4.775  20.392  0.00  0.00    +0.111 A 
ATOM     24  C   UNL     1      20.746   6.486  21.927  0.00  0.00    +0.111 A 
ENDBRANCH  16  17
ENDBRANCH  10  13
TORSDOF 4
ENDMDL
MODEL 10
REMARK VINA RESULT:      -6.3     26.429     29.112
REMARK  Name = 25338459
REMARK  5 active torsions:
REMARK  status: ('A' for Active; 'I' for Inactive)
REMARK    1  A    between atoms: N_3  and  C_14
REMARK    2  A    between atoms: N_4  and  C_9
REMARK    3  A    between atoms: N_7  and  C_18
REMARK    4  A    between atoms: C_10  and  C_13
REMARK    5  A    between atoms: C_16  and  C_17
REMARK                            x       y       z     vdW  Elec       q    Type
REMARK                         _______ _______ _______ _____ _____    ______ ____
ROOT
ATOM      3  N   UNL     1      -2.011  -9.634  11.749  0.00  0.00    -0.293 NA
ATOM      9  C   UNL     1      -2.612 -11.212  13.358  0.00  0.00    +0.090 C 
ATOM     10  C   UNL     1      -2.831 -10.607  11.001  0.00  0.00    +0.147 C 
ATOM     11  C   UNL     1      -3.364 -11.573  12.077  0.00  0.00    +0.052 C 
ATOM     12  C   UNL     1      -1.435 -10.379  12.874  0.00  0.00    +0.107 C 
ATOM     14  C   UNL     1      -0.982  -9.002  10.932  0.00  0.00    +0.105 C 
ENDROOT
BRANCH   9   4
ATOM      2  O   UNL     1      -4.170 -12.273  15.515  0.00  0.00    -0.253 OA
ATOM      4  N   UNL     1      -3.445 -10.464  14.270  0.00  0.00    -0.295 N 
ATOM      7  N   UNL     1      -4.886 -10.094  16.017  0.00  0.00    -0.269 N 
ATOM     15  C   UNL     1      -4.176 -11.062  15.302  0.00  0.00    +0.304 C 
ATOM     28  H   UNL     1      -3.561  -9.467  14.112  0.00  0.00    +0.151 HD
ATOM     29  H   UNL     1      -4.782  -9.130  15.710  0.00  0.00    +0.156 HD
BRANCH   7  18
ATOM     18  C   UNL     1      -5.739 -10.288  17.130  0.00  0.00    +0.035 A 
ATOM     21  C   UNL     1      -5.202 -10.647  18.365  0.00  0.00    +0.023 A 
ATOM     22  C   UNL     1      -7.116 -10.119  16.990  0.00  0.00    +0.023 A 
ATOM     25  C   UNL     1      -6.042 -10.838  19.462  0.00  0.00    +0.002 A 
ATOM     26  C   UNL     1      -7.956 -10.309  18.088  0.00  0.00    +0.002 A 
ATOM     27  C   UNL     1      -7.419 -10.669  19.324  0.00  0.00    +0.000 A 
ENDBRANCH   7  18
ENDBRANCH   9   4
BRANCH  10  13
ATOM      1  O   UNL     1      -4.504  -8.847  10.724  0.00  0.00    -0.336 OA
ATOM      5  N   UNL     1      -4.451 -10.330   9.047  0.00  0.00    -0.190 NA
ATOM      6  N   UNL     1      -5.490  -8.441   9.816  0.00  0.00    -0.056 NA
ATOM     13  C   UNL     1      -3.941  -9.965  10.195  0.00  0.00    +0.245 A 
ATOM     16  C   UNL     1      -5.398  -9.365   8.854  0.00  0.00    +0.202 A 
BRANCH  16  17
ATOM      8  N   UNL     1      -7.861  -9.326   5.416  0.00  0.00    -0.263 NA
ATOM     17  C   UNL     1      -6.234  -9.352   7.688  0.00  0.00    +0.025 A 
ATOM     19  C   UNL     1      -7.421  -8.631   7.689  0.00  0.00    +0.031 A 
ATOM     20  C   UNL     1      -5.857 -10.060   6.552  0.00  0.00    +0.031 A 
ATOM     23  C   UNL     1      -8.193  -8.649   6.538  0.00  0.00    +0.111 A 
ATOM     24  C   UNL     1      -6.698 -10.016   5.452  0.00  0.00    +0.111 A 
ENDBRANCH  16  17
ENDBRANCH  10  13
TORSDOF 4
ENDMDL
