MODEL 1
REMARK VINA RESULT:      -5.8      0.000      0.000
REMARK  Name = 71694382
REMARK  8 active torsions:
REMARK  status: ('A' for Active; 'I' for Inactive)
REMARK    1  A    between atoms: O_3  and  C_21
REMARK    2  A    between atoms: N_4  and  C_7
REMARK    3  A    between atoms: N_4  and  C_8
REMARK    4  A    between atoms: N_5  and  C_17
REMARK    5  A    between atoms: C_7  and  C_11
REMARK    6  A    between atoms: C_11  and  C_16
REMARK    7  A    between atoms: C_19  and  C_20
REMARK    8  A    between atoms: C_20  and  C_21
REMARK                            x       y       z     vdW  Elec       q    Type
REMARK                         _______ _______ _______ _____ _____    ______ ____
ROOT
ATOM      1  O   UNL     1      11.151   5.719  21.138  0.00  0.00    -0.376 OA
ATOM      7  C   UNL     1      11.494   7.828  21.169  0.00  0.00    +0.072 C 
ATOM      9  C   UNL     1      10.576   6.826  21.882  0.00  0.00    +0.184 C 
ATOM     10  C   UNL     1      12.221   6.577  20.658  0.00  0.00    +0.184 C 
ENDROOT
BRANCH   7   4
ATOM      4  N   UNL     1      12.337   8.481  22.175  0.00  0.00    -0.304 NA
ATOM     22  H   UNL     1      12.195   8.098  23.111  0.00  0.00    +0.123 HD
BRANCH   4   8
ATOM      5  N   UNL     1      12.236  12.503  23.546  0.00  0.00    -0.305 NA
ATOM      8  C   UNL     1      12.044   9.912  22.198  0.00  0.00    +0.057 C 
ATOM     12  C   UNL     1      11.169  10.273  23.401  0.00  0.00    +0.034 C 
ATOM     13  C   UNL     1      13.345  10.718  22.237  0.00  0.00    +0.034 C 
ATOM     14  C   UNL     1      10.953  11.786  23.488  0.00  0.00    +0.085 C 
ATOM     15  C   UNL     1      13.058  12.217  22.361  0.00  0.00    +0.085 C 
ATOM     17  C   UNL     1      12.012  13.942  23.679  0.00  0.00    +0.104 C 
ENDBRANCH   4   8
ENDBRANCH   7   4
BRANCH   7  11
ATOM     11  C   UNL     1      10.895   8.793  20.178  0.00  0.00    +0.085 C 
BRANCH  11  16
ATOM      2  O   UNL     1      12.049   8.206  16.808  0.00  0.00    -0.359 OA
ATOM      6  N   UNL     1      11.128   8.053  17.837  0.00  0.00    -0.083 NA
ATOM     16  C   UNL     1      11.642   8.736  18.865  0.00  0.00    +0.086 A 
ATOM     18  C   UNL     1      12.873   9.334  18.546  0.00  0.00    +0.071 A 
ATOM     19  C   UNL     1      13.083   8.970  17.242  0.00  0.00    +0.140 A 
BRANCH  19  20
ATOM     20  C   UNL     1      14.155   9.233  16.274  0.00  0.00    +0.105 C 
BRANCH  20  21
ATOM     21  C   UNL     1      13.940  10.513  15.443  0.00  0.00    +0.163 C 
BRANCH  21   3
ATOM      3  O   UNL     1      12.633  10.497  14.884  0.00  0.00    -0.395 OA
ATOM     23  H   UNL     1      12.721  10.751  13.950  0.00  0.00    +0.209 HD
ENDBRANCH  21   3
ENDBRANCH  20  21
ENDBRANCH  19  20
ENDBRANCH  11  16
ENDBRANCH   7  11
TORSDOF 7
ENDMDL
MODEL 2
REMARK VINA RESULT:      -5.2     24.888     27.446
REMARK  Name = 71694382
REMARK  8 active torsions:
REMARK  status: ('A' for Active; 'I' for Inactive)
REMARK    1  A    between atoms: O_3  and  C_21
REMARK    2  A    between atoms: N_4  and  C_7
REMARK    3  A    between atoms: N_4  and  C_8
REMARK    4  A    between atoms: N_5  and  C_17
REMARK    5  A    between atoms: C_7  and  C_11
REMARK    6  A    between atoms: C_11  and  C_16
REMARK    7  A    between atoms: C_19  and  C_20
REMARK    8  A    between atoms: C_20  and  C_21
REMARK                            x       y       z     vdW  Elec       q    Type
REMARK                         _______ _______ _______ _____ _____    ______ ____
ROOT
ATOM      1  O   UNL     1      -0.977 -11.061  15.465  0.00  0.00    -0.376 OA
ATOM      7  C   UNL     1      -2.336 -10.825  13.833  0.00  0.00    +0.072 C 
ATOM      9  C   UNL     1      -1.351  -9.944  14.616  0.00  0.00    +0.184 C 
ATOM     10  C   UNL     1      -1.667 -11.985  14.582  0.00  0.00    +0.184 C 
ENDROOT
BRANCH   7   4
ATOM      4  N   UNL     1      -1.908 -10.864  12.432  0.00  0.00    -0.304 NA
ATOM     22  H   UNL     1      -1.140 -10.221  12.239  0.00  0.00    +0.123 HD
BRANCH   4   8
ATOM      5  N   UNL     1      -4.183 -10.296   8.887  0.00  0.00    -0.305 NA
ATOM      8  C   UNL     1      -3.039 -10.525  11.571  0.00  0.00    +0.057 C 
ATOM     12  C   UNL     1      -2.683  -9.374  10.626  0.00  0.00    +0.034 C 
ATOM     13  C   UNL     1      -3.474 -11.750  10.761  0.00  0.00    +0.034 C 
ATOM     14  C   UNL     1      -3.828  -9.091   9.650  0.00  0.00    +0.085 C 
ATOM     15  C   UNL     1      -4.593 -11.390   9.780  0.00  0.00    +0.085 C 
ATOM     17  C   UNL     1      -5.243  -9.998   7.924  0.00  0.00    +0.104 C 
ENDBRANCH   4   8
ENDBRANCH   7   4
BRANCH   7  11
ATOM     11  C   UNL     1      -3.816 -10.592  13.998  0.00  0.00    +0.085 C 
BRANCH  11  16
ATOM      2  O   UNL     1      -5.131 -12.459  16.794  0.00  0.00    -0.359 OA
ATOM      6  N   UNL     1      -4.814 -12.319  15.448  0.00  0.00    -0.083 NA
ATOM     16  C   UNL     1      -4.286 -11.095  15.343  0.00  0.00    +0.086 A 
ATOM     18  C   UNL     1      -4.243 -10.425  16.577  0.00  0.00    +0.071 A 
ATOM     19  C   UNL     1      -4.786 -11.325  17.455  0.00  0.00    +0.140 A 
BRANCH  19  20
ATOM     20  C   UNL     1      -5.053 -11.302  18.899  0.00  0.00    +0.105 C 
BRANCH  20  21
ATOM     21  C   UNL     1      -6.546 -11.153  19.252  0.00  0.00    +0.163 C 
BRANCH  21   3
ATOM      3  O   UNL     1      -6.726  -9.988  20.047  0.00  0.00    -0.395 OA
ATOM     23  H   UNL     1      -6.983 -10.287  20.935  0.00  0.00    +0.209 HD
ENDBRANCH  21   3
ENDBRANCH  20  21
ENDBRANCH  19  20
ENDBRANCH  11  16
ENDBRANCH   7  11
TORSDOF 7
ENDMDL
MODEL 3
REMARK VINA RESULT:      -5.1      4.352      6.382
REMARK  Name = 71694382
REMARK  8 active torsions:
REMARK  status: ('A' for Active; 'I' for Inactive)
REMARK    1  A    between atoms: O_3  and  C_21
REMARK    2  A    between atoms: N_4  and  C_7
REMARK    3  A    between atoms: N_4  and  C_8
REMARK    4  A    between atoms: N_5  and  C_17
REMARK    5  A    between atoms: C_7  and  C_11
REMARK    6  A    between atoms: C_11  and  C_16
REMARK    7  A    between atoms: C_19  and  C_20
REMARK    8  A    between atoms: C_20  and  C_21
REMARK                            x       y       z     vdW  Elec       q    Type
REMARK                         _______ _______ _______ _____ _____    ______ ____
ROOT
ATOM      1  O   UNL     1      12.581   6.578  21.205  0.00  0.00    -0.376 OA
ATOM      7  C   UNL     1      13.743   7.721  19.822  0.00  0.00    +0.072 C 
ATOM      9  C   UNL     1      12.418   6.945  19.810  0.00  0.00    +0.184 C 
ATOM     10  C   UNL     1      13.674   7.524  21.342  0.00  0.00    +0.184 C 
ENDROOT
BRANCH   7   4
ATOM      4  N   UNL     1      13.458   9.126  19.518  0.00  0.00    -0.304 NA
ATOM     22  H   UNL     1      12.467   9.351  19.600  0.00  0.00    +0.123 HD
BRANCH   4   8
ATOM      5  N   UNL     1      13.874  11.203  15.834  0.00  0.00    -0.305 NA
ATOM      8  C   UNL     1      13.903   9.427  18.160  0.00  0.00    +0.057 C 
ATOM     12  C   UNL     1      12.716   9.491  17.195  0.00  0.00    +0.034 C 
ATOM     13  C   UNL     1      14.668  10.754  18.135  0.00  0.00    +0.034 C 
ATOM     14  C   UNL     1      13.168   9.915  15.796  0.00  0.00    +0.085 C 
ATOM     15  C   UNL     1      15.056  11.136  16.704  0.00  0.00    +0.085 C 
ATOM     17  C   UNL     1      14.255  11.618  14.484  0.00  0.00    +0.104 C 
ENDBRANCH   4   8
ENDBRANCH   7   4
BRANCH   7  11
ATOM     11  C   UNL     1      14.919   7.172  19.056  0.00  0.00    +0.085 C 
BRANCH  11  16
ATOM      2  O   UNL     1      17.726   8.295  21.029  0.00  0.00    -0.359 OA
ATOM      6  N   UNL     1      16.531   8.513  20.354  0.00  0.00    -0.083 NA
ATOM     16  C   UNL     1      16.190   7.318  19.862  0.00  0.00    +0.086 A 
ATOM     18  C   UNL     1      17.122   6.319  20.190  0.00  0.00    +0.071 A 
ATOM     19  C   UNL     1      18.068   6.986  20.924  0.00  0.00    +0.140 A 
BRANCH  19  20
ATOM     20  C   UNL     1      19.314   6.578  21.585  0.00  0.00    +0.105 C 
BRANCH  20  21
ATOM     21  C   UNL     1      20.102   7.751  22.199  0.00  0.00    +0.163 C 
BRANCH  21   3
ATOM      3  O   UNL     1      19.543   8.082  23.464  0.00  0.00    -0.395 OA
ATOM     23  H   UNL     1      19.971   7.511  24.123  0.00  0.00    +0.209 HD
ENDBRANCH  21   3
ENDBRANCH  20  21
ENDBRANCH  19  20
ENDBRANCH  11  16
ENDBRANCH   7  11
TORSDOF 7
ENDMDL
MODEL 4
REMARK VINA RESULT:      -4.9     25.701     27.580
REMARK  Name = 71694382
REMARK  8 active torsions:
REMARK  status: ('A' for Active; 'I' for Inactive)
REMARK    1  A    between atoms: O_3  and  C_21
REMARK    2  A    between atoms: N_4  and  C_7
REMARK    3  A    between atoms: N_4  and  C_8
REMARK    4  A    between atoms: N_5  and  C_17
REMARK    5  A    between atoms: C_7  and  C_11
REMARK    6  A    between atoms: C_11  and  C_16
REMARK    7  A    between atoms: C_19  and  C_20
REMARK    8  A    between atoms: C_20  and  C_21
REMARK                            x       y       z     vdW  Elec       q    Type
REMARK                         _______ _______ _______ _____ _____    ______ ____
ROOT
ATOM      1  O   UNL     1      -6.225 -12.282  19.072  0.00  0.00    -0.376 OA
ATOM      7  C   UNL     1      -5.113 -11.341  17.508  0.00  0.00    +0.072 C 
ATOM      9  C   UNL     1      -4.925 -11.638  19.003  0.00  0.00    +0.184 C 
ATOM     10  C   UNL     1      -6.320 -12.281  17.623  0.00  0.00    +0.184 C 
ENDROOT
BRANCH   7   4
ATOM      4  N   UNL     1      -4.054 -12.028  16.763  0.00  0.00    -0.304 NA
ATOM     22  H   UNL     1      -3.231 -12.216  17.337  0.00  0.00    +0.123 HD
BRANCH   4   8
ATOM      5  N   UNL     1      -2.187 -10.938  13.104  0.00  0.00    -0.305 NA
ATOM      8  C   UNL     1      -3.658 -11.210  15.619  0.00  0.00    +0.057 C 
ATOM     12  C   UNL     1      -2.139 -11.025  15.577  0.00  0.00    +0.034 C 
ATOM     13  C   UNL     1      -4.143 -11.852  14.316  0.00  0.00    +0.034 C 
ATOM     14  C   UNL     1      -1.714 -10.262  14.320  0.00  0.00    +0.085 C 
ATOM     15  C   UNL     1      -3.652 -11.062  13.100  0.00  0.00    +0.085 C 
ATOM     17  C   UNL     1      -1.731 -10.225  11.911  0.00  0.00    +0.104 C 
ENDBRANCH   4   8
ENDBRANCH   7   4
BRANCH   7  11
ATOM     11  C   UNL     1      -5.323  -9.916  17.066  0.00  0.00    +0.085 C 
BRANCH  11  16
ATOM      2  O   UNL     1      -8.566  -9.591  15.513  0.00  0.00    -0.359 OA
ATOM      6  N   UNL     1      -7.213  -9.905  15.481  0.00  0.00    -0.083 NA
ATOM     16  C   UNL     1      -6.776  -9.676  16.724  0.00  0.00    +0.086 A 
ATOM     18  C   UNL     1      -7.798  -9.220  17.573  0.00  0.00    +0.071 A 
ATOM     19  C   UNL     1      -8.902  -9.184  16.763  0.00  0.00    +0.140 A 
BRANCH  19  20
ATOM     20  C   UNL     1     -10.306  -8.811  16.975  0.00  0.00    +0.105 C 
BRANCH  20  21
ATOM     21  C   UNL     1     -10.623  -7.350  16.604  0.00  0.00    +0.163 C 
BRANCH  21   3
ATOM      3  O   UNL     1      -9.685  -6.897  15.636  0.00  0.00    -0.395 OA
ATOM     23  H   UNL     1      -9.244  -6.116  16.012  0.00  0.00    +0.209 HD
ENDBRANCH  21   3
ENDBRANCH  20  21
ENDBRANCH  19  20
ENDBRANCH  11  16
ENDBRANCH   7  11
TORSDOF 7
ENDMDL
MODEL 5
REMARK VINA RESULT:      -4.7     26.931     29.173
REMARK  Name = 71694382
REMARK  8 active torsions:
REMARK  status: ('A' for Active; 'I' for Inactive)
REMARK    1  A    between atoms: O_3  and  C_21
REMARK    2  A    between atoms: N_4  and  C_7
REMARK    3  A    between atoms: N_4  and  C_8
REMARK    4  A    between atoms: N_5  and  C_17
REMARK    5  A    between atoms: C_7  and  C_11
REMARK    6  A    between atoms: C_11  and  C_16
REMARK    7  A    between atoms: C_19  and  C_20
REMARK    8  A    between atoms: C_20  and  C_21
REMARK                            x       y       z     vdW  Elec       q    Type
REMARK                         _______ _______ _______ _____ _____    ______ ____
ROOT
ATOM      1  O   UNL     1     -11.512 -11.608  20.559  0.00  0.00    -0.376 OA
ATOM      7  C   UNL     1     -10.018 -10.866  19.224  0.00  0.00    +0.072 C 
ATOM      9  C   UNL     1     -11.105 -10.280  20.136  0.00  0.00    +0.184 C 
ATOM     10  C   UNL     1     -10.328 -12.184  19.946  0.00  0.00    +0.184 C 
ENDROOT
BRANCH   7   4
ATOM      4  N   UNL     1      -8.715 -10.376  19.684  0.00  0.00    -0.304 NA
ATOM     22  H   UNL     1      -8.663  -9.357  19.696  0.00  0.00    +0.123 HD
BRANCH   4   8
ATOM      5  N   UNL     1      -4.842 -10.998  18.048  0.00  0.00    -0.305 NA
ATOM      8  C   UNL     1      -7.666 -10.896  18.811  0.00  0.00    +0.057 C 
ATOM     12  C   UNL     1      -6.987  -9.763  18.035  0.00  0.00    +0.034 C 
ATOM     13  C   UNL     1      -6.625 -11.663  19.631  0.00  0.00    +0.034 C 
ATOM     14  C   UNL     1      -5.816 -10.292  17.203  0.00  0.00    +0.085 C 
ATOM     15  C   UNL     1      -5.467 -12.131  18.747  0.00  0.00    +0.085 C 
ATOM     17  C   UNL     1      -3.706 -11.454  17.248  0.00  0.00    +0.104 C 
ENDBRANCH   4   8
ENDBRANCH   7   4
BRANCH   7  11
ATOM     11  C   UNL     1     -10.191 -10.782  17.730  0.00  0.00    +0.085 C 
BRANCH  11  16
ATOM      2  O   UNL     1     -10.697  -7.265  17.090  0.00  0.00    -0.359 OA
ATOM      6  N   UNL     1      -9.951  -8.332  17.575  0.00  0.00    -0.083 NA
ATOM     16  C   UNL     1     -10.697  -9.415  17.331  0.00  0.00    +0.086 A 
ATOM     18  C   UNL     1     -11.910  -9.095  16.699  0.00  0.00    +0.071 A 
ATOM     19  C   UNL     1     -11.861  -7.732  16.571  0.00  0.00    +0.140 A 
BRANCH  19  20
ATOM     20  C   UNL     1     -12.776  -6.730  16.009  0.00  0.00    +0.105 C 
BRANCH  20  21
ATOM     21  C   UNL     1     -12.248  -6.056  14.728  0.00  0.00    +0.163 C 
BRANCH  21   3
ATOM      3  O   UNL     1     -10.969  -5.491  14.987  0.00  0.00    -0.395 OA
ATOM     23  H   UNL     1     -10.400  -6.211  15.306  0.00  0.00    +0.209 HD
ENDBRANCH  21   3
ENDBRANCH  20  21
ENDBRANCH  19  20
ENDBRANCH  11  16
ENDBRANCH   7  11
TORSDOF 7
ENDMDL
MODEL 6
REMARK VINA RESULT:      -4.7     26.388     28.218
REMARK  Name = 71694382
REMARK  8 active torsions:
REMARK  status: ('A' for Active; 'I' for Inactive)
REMARK    1  A    between atoms: O_3  and  C_21
REMARK    2  A    between atoms: N_4  and  C_7
REMARK    3  A    between atoms: N_4  and  C_8
REMARK    4  A    between atoms: N_5  and  C_17
REMARK    5  A    between atoms: C_7  and  C_11
REMARK    6  A    between atoms: C_11  and  C_16
REMARK    7  A    between atoms: C_19  and  C_20
REMARK    8  A    between atoms: C_20  and  C_21
REMARK                            x       y       z     vdW  Elec       q    Type
REMARK                         _______ _______ _______ _____ _____    ______ ____
ROOT
ATOM      1  O   UNL     1      -7.943 -11.230  19.916  0.00  0.00    -0.376 OA
ATOM      7  C   UNL     1      -7.282 -10.625  17.976  0.00  0.00    +0.072 C 
ATOM      9  C   UNL     1      -6.642 -10.952  19.333  0.00  0.00    +0.184 C 
ATOM     10  C   UNL     1      -8.555 -11.212  18.599  0.00  0.00    +0.184 C 
ENDROOT
BRANCH   7   4
ATOM      4  N   UNL     1      -6.767 -11.571  16.982  0.00  0.00    -0.304 NA
ATOM     22  H   UNL     1      -6.378 -12.413  17.408  0.00  0.00    +0.123 HD
BRANCH   4   8
ATOM      5  N   UNL     1      -3.490 -11.125  14.312  0.00  0.00    -0.305 NA
ATOM      8  C   UNL     1      -5.730 -10.920  16.185  0.00  0.00    +0.057 C 
ATOM     12  C   UNL     1      -4.335 -11.372  16.626  0.00  0.00    +0.034 C 
ATOM     13  C   UNL     1      -5.933 -11.228  14.698  0.00  0.00    +0.034 C 
ATOM     14  C   UNL     1      -3.254 -10.776  15.721  0.00  0.00    +0.085 C 
ATOM     15  C   UNL     1      -4.800 -10.637  13.856  0.00  0.00    +0.085 C 
ATOM     17  C   UNL     1      -2.422 -10.591  13.467  0.00  0.00    +0.104 C 
ENDBRANCH   4   8
ENDBRANCH   7   4
BRANCH   7  11
ATOM     11  C   UNL     1      -7.284  -9.197  17.493  0.00  0.00    +0.085 C 
BRANCH  11  16
ATOM      2  O   UNL     1     -10.160  -8.824  15.342  0.00  0.00    -0.359 OA
ATOM      6  N   UNL     1      -8.888  -9.308  15.623  0.00  0.00    -0.083 NA
ATOM     16  C   UNL     1      -8.609  -8.858  16.850  0.00  0.00    +0.086 A 
ATOM     18  C   UNL     1      -9.658  -8.092  17.388  0.00  0.00    +0.071 A 
ATOM     19  C   UNL     1     -10.607  -8.101  16.401  0.00  0.00    +0.140 A 
BRANCH  19  20
ATOM     20  C   UNL     1     -11.946  -7.512  16.273  0.00  0.00    +0.105 C 
BRANCH  20  21
ATOM     21  C   UNL     1     -11.964  -6.168  15.521  0.00  0.00    +0.163 C 
BRANCH  21   3
ATOM      3  O   UNL     1     -10.629  -5.712  15.341  0.00  0.00    -0.395 OA
ATOM     23  H   UNL     1     -10.674  -4.906  14.800  0.00  0.00    +0.209 HD
ENDBRANCH  21   3
ENDBRANCH  20  21
ENDBRANCH  19  20
ENDBRANCH  11  16
ENDBRANCH   7  11
TORSDOF 7
ENDMDL
MODEL 7
REMARK VINA RESULT:      -4.7     24.437     26.744
REMARK  Name = 71694382
REMARK  8 active torsions:
REMARK  status: ('A' for Active; 'I' for Inactive)
REMARK    1  A    between atoms: O_3  and  C_21
REMARK    2  A    between atoms: N_4  and  C_7
REMARK    3  A    between atoms: N_4  and  C_8
REMARK    4  A    between atoms: N_5  and  C_17
REMARK    5  A    between atoms: C_7  and  C_11
REMARK    6  A    between atoms: C_11  and  C_16
REMARK    7  A    between atoms: C_19  and  C_20
REMARK    8  A    between atoms: C_20  and  C_21
REMARK                            x       y       z     vdW  Elec       q    Type
REMARK                         _______ _______ _______ _____ _____    ______ ____
ROOT
ATOM      1  O   UNL     1      -0.406 -10.282  15.591  0.00  0.00    -0.376 OA
ATOM      7  C   UNL     1      -2.498 -10.624  15.320  0.00  0.00    +0.072 C 
ATOM      9  C   UNL     1      -1.388 -11.118  16.259  0.00  0.00    +0.184 C 
ATOM     10  C   UNL     1      -1.462  -9.581  14.881  0.00  0.00    +0.184 C 
ENDROOT
BRANCH   7   4
ATOM      4  N   UNL     1      -3.523  -9.954  16.127  0.00  0.00    -0.304 NA
ATOM     22  H   UNL     1      -3.130  -9.475  16.938  0.00  0.00    +0.123 HD
BRANCH   4   8
ATOM      5  N   UNL     1      -6.566 -11.741  18.495  0.00  0.00    -0.305 NA
ATOM      8  C   UNL     1      -4.499 -10.940  16.584  0.00  0.00    +0.057 C 
ATOM     12  C   UNL     1      -4.162 -11.432  17.995  0.00  0.00    +0.034 C 
ATOM     13  C   UNL     1      -5.908 -10.339  16.564  0.00  0.00    +0.034 C 
ATOM     14  C   UNL     1      -5.243 -12.381  18.518  0.00  0.00    +0.085 C 
ATOM     15  C   UNL     1      -6.932 -11.324  17.134  0.00  0.00    +0.085 C 
ATOM     17  C   UNL     1      -7.580 -12.641  19.044  0.00  0.00    +0.104 C 
ENDBRANCH   4   8
ENDBRANCH   7   4
BRANCH   7  11
ATOM     11  C   UNL     1      -3.071 -11.573  14.300  0.00  0.00    +0.085 C 
BRANCH  11  16
ATOM      2  O   UNL     1      -4.880  -9.621  11.861  0.00  0.00    -0.359 OA
ATOM      6  N   UNL     1      -4.749 -10.212  13.111  0.00  0.00    -0.083 NA
ATOM     16  C   UNL     1      -3.557 -10.816  13.085  0.00  0.00    +0.086 A 
ATOM     18  C   UNL     1      -2.897 -10.642  11.857  0.00  0.00    +0.071 A 
ATOM     19  C   UNL     1      -3.771  -9.885  11.123  0.00  0.00    +0.140 A 
BRANCH  19  20
ATOM     20  C   UNL     1      -3.742  -9.330   9.764  0.00  0.00    +0.105 C 
BRANCH  20  21
ATOM     21  C   UNL     1      -4.634 -10.090   8.764  0.00  0.00    +0.163 C 
BRANCH  21   3
ATOM      3  O   UNL     1      -5.022  -9.211   7.716  0.00  0.00    -0.395 OA
ATOM     23  H   UNL     1      -5.473  -9.750   7.045  0.00  0.00    +0.209 HD
ENDBRANCH  21   3
ENDBRANCH  20  21
ENDBRANCH  19  20
ENDBRANCH  11  16
ENDBRANCH   7  11
TORSDOF 7
ENDMDL
MODEL 8
REMARK VINA RESULT:      -4.7      2.856      6.192
REMARK  Name = 71694382
REMARK  8 active torsions:
REMARK  status: ('A' for Active; 'I' for Inactive)
REMARK    1  A    between atoms: O_3  and  C_21
REMARK    2  A    between atoms: N_4  and  C_7
REMARK    3  A    between atoms: N_4  and  C_8
REMARK    4  A    between atoms: N_5  and  C_17
REMARK    5  A    between atoms: C_7  and  C_11
REMARK    6  A    between atoms: C_11  and  C_16
REMARK    7  A    between atoms: C_19  and  C_20
REMARK    8  A    between atoms: C_20  and  C_21
REMARK                            x       y       z     vdW  Elec       q    Type
REMARK                         _______ _______ _______ _____ _____    ______ ____
ROOT
ATOM      1  O   UNL     1      11.510   6.278  20.526  0.00  0.00    -0.376 OA
ATOM      7  C   UNL     1      12.260   8.275  20.657  0.00  0.00    +0.072 C 
ATOM      9  C   UNL     1      12.613   6.986  19.902  0.00  0.00    +0.184 C 
ATOM     10  C   UNL     1      10.971   7.529  21.030  0.00  0.00    +0.184 C 
ENDROOT
BRANCH   7   4
ATOM      4  N   UNL     1      11.932   9.312  19.674  0.00  0.00    -0.304 NA
ATOM     22  H   UNL     1      11.185   9.027  19.040  0.00  0.00    +0.123 HD
BRANCH   4   8
ATOM      5  N   UNL     1      14.373  11.095  16.687  0.00  0.00    -0.305 NA
ATOM      8  C   UNL     1      13.123   9.631  18.892  0.00  0.00    +0.057 C 
ATOM     12  C   UNL     1      12.948   9.213  17.429  0.00  0.00    +0.034 C 
ATOM     13  C   UNL     1      13.424  11.130  18.973  0.00  0.00    +0.034 C 
ATOM     14  C   UNL     1      14.150   9.646  16.586  0.00  0.00    +0.085 C 
ATOM     15  C   UNL     1      14.611  11.501  18.080  0.00  0.00    +0.085 C 
ATOM     17  C   UNL     1      15.493  11.500  15.838  0.00  0.00    +0.104 C 
ENDBRANCH   4   8
ENDBRANCH   7   4
BRANCH   7  11
ATOM     11  C   UNL     1      13.178   8.759  21.749  0.00  0.00    +0.085 C 
BRANCH  11  16
ATOM      2  O   UNL     1      12.560  12.063  23.067  0.00  0.00    -0.359 OA
ATOM      6  N   UNL     1      13.354  11.126  22.416  0.00  0.00    -0.083 NA
ATOM     16  C   UNL     1      12.622  10.008  22.394  0.00  0.00    +0.086 A 
ATOM     18  C   UNL     1      11.370  10.177  23.009  0.00  0.00    +0.071 A 
ATOM     19  C   UNL     1      11.382  11.485  23.415  0.00  0.00    +0.140 A 
BRANCH  19  20
ATOM     20  C   UNL     1      10.416  12.340  24.117  0.00  0.00    +0.105 C 
BRANCH  20  21
ATOM     21  C   UNL     1      10.980  12.997  25.392  0.00  0.00    +0.163 C 
BRANCH  21   3
ATOM      3  O   UNL     1      12.074  12.227  25.873  0.00  0.00    -0.395 OA
ATOM     23  H   UNL     1      12.043  11.371  25.415  0.00  0.00    +0.209 HD
ENDBRANCH  21   3
ENDBRANCH  20  21
ENDBRANCH  19  20
ENDBRANCH  11  16
ENDBRANCH   7  11
TORSDOF 7
ENDMDL
MODEL 9
REMARK VINA RESULT:      -4.6     26.266     27.601
REMARK  Name = 71694382
REMARK  8 active torsions:
REMARK  status: ('A' for Active; 'I' for Inactive)
REMARK    1  A    between atoms: O_3  and  C_21
REMARK    2  A    between atoms: N_4  and  C_7
REMARK    3  A    between atoms: N_4  and  C_8
REMARK    4  A    between atoms: N_5  and  C_17
REMARK    5  A    between atoms: C_7  and  C_11
REMARK    6  A    between atoms: C_11  and  C_16
REMARK    7  A    between atoms: C_19  and  C_20
REMARK    8  A    between atoms: C_20  and  C_21
REMARK                            x       y       z     vdW  Elec       q    Type
REMARK                         _______ _______ _______ _____ _____    ______ ____
ROOT
ATOM      1  O   UNL     1      -2.237 -13.832  14.256  0.00  0.00    -0.376 OA
ATOM      7  C   UNL     1      -2.656 -12.006  13.229  0.00  0.00    +0.072 C 
ATOM      9  C   UNL     1      -1.443 -12.919  13.454  0.00  0.00    +0.184 C 
ATOM     10  C   UNL     1      -3.457 -13.165  13.837  0.00  0.00    +0.184 C 
ENDROOT
BRANCH   7   4
ATOM      4  N   UNL     1      -2.933 -11.950  11.791  0.00  0.00    -0.304 NA
ATOM     22  H   UNL     1      -2.082 -11.890  11.231  0.00  0.00    +0.123 HD
BRANCH   4   8
ATOM      5  N   UNL     1      -5.530  -9.343   9.664  0.00  0.00    -0.305 NA
ATOM      8  C   UNL     1      -3.773 -10.790  11.504  0.00  0.00    +0.057 C 
ATOM     12  C   UNL     1      -3.233 -10.004  10.306  0.00  0.00    +0.034 C 
ATOM     13  C   UNL     1      -5.214 -11.233  11.231  0.00  0.00    +0.034 C 
ATOM     14  C   UNL     1      -4.172  -8.853   9.936  0.00  0.00    +0.085 C 
ATOM     15  C   UNL     1      -6.087 -10.042  10.832  0.00  0.00    +0.085 C 
ATOM     17  C   UNL     1      -6.402  -8.239   9.264  0.00  0.00    +0.104 C 
ENDBRANCH   4   8
ENDBRANCH   7   4
BRANCH   7  11
ATOM     11  C   UNL     1      -2.689 -10.654  13.894  0.00  0.00    +0.085 C 
BRANCH  11  16
ATOM      2  O   UNL     1      -5.410 -10.490  16.260  0.00  0.00    -0.359 OA
ATOM      6  N   UNL     1      -4.883 -10.363  14.981  0.00  0.00    -0.083 NA
ATOM     16  C   UNL     1      -3.591 -10.681  15.106  0.00  0.00    +0.086 A 
ATOM     18  C   UNL     1      -3.249 -11.015  16.428  0.00  0.00    +0.071 A 
ATOM     19  C   UNL     1      -4.428 -10.879  17.113  0.00  0.00    +0.140 A 
BRANCH  19  20
ATOM     20  C   UNL     1      -4.814 -11.063  18.517  0.00  0.00    +0.105 C 
BRANCH  20  21
ATOM     21  C   UNL     1      -4.333 -12.396  19.123  0.00  0.00    +0.163 C 
BRANCH  21   3
ATOM      3  O   UNL     1      -3.090 -12.191  19.783  0.00  0.00    -0.395 OA
ATOM     23  H   UNL     1      -2.617 -11.502  19.288  0.00  0.00    +0.209 HD
ENDBRANCH  21   3
ENDBRANCH  20  21
ENDBRANCH  19  20
ENDBRANCH  11  16
ENDBRANCH   7  11
TORSDOF 7
ENDMDL
MODEL 10
REMARK VINA RESULT:      -4.6     25.979     28.099
REMARK  Name = 71694382
REMARK  8 active torsions:
REMARK  status: ('A' for Active; 'I' for Inactive)
REMARK    1  A    between atoms: O_3  and  C_21
REMARK    2  A    between atoms: N_4  and  C_7
REMARK    3  A    between atoms: N_4  and  C_8
REMARK    4  A    between atoms: N_5  and  C_17
REMARK    5  A    between atoms: C_7  and  C_11
REMARK    6  A    between atoms: C_11  and  C_16
REMARK    7  A    between atoms: C_19  and  C_20
REMARK    8  A    between atoms: C_20  and  C_21
REMARK                            x       y       z     vdW  Elec       q    Type
REMARK                         _______ _______ _______ _____ _____    ______ ____
ROOT
ATOM      1  O   UNL     1      -4.878 -12.249  19.712  0.00  0.00    -0.376 OA
ATOM      7  C   UNL     1      -5.388 -11.403  17.817  0.00  0.00    +0.072 C 
ATOM      9  C   UNL     1      -5.543 -11.027  19.297  0.00  0.00    +0.184 C 
ATOM     10  C   UNL     1      -4.458 -12.503  18.345  0.00  0.00    +0.184 C 
ENDROOT
BRANCH   7   4
ATOM      4  N   UNL     1      -4.573 -10.376  17.161  0.00  0.00    -0.304 NA
ATOM     22  H   UNL     1      -5.109  -9.537  16.936  0.00  0.00    +0.123 HD
BRANCH   4   8
ATOM      5  N   UNL     1      -2.577 -10.501  13.411  0.00  0.00    -0.305 NA
ATOM      8  C   UNL     1      -4.007 -10.922  15.930  0.00  0.00    +0.057 C 
ATOM     12  C   UNL     1      -4.683 -10.313  14.698  0.00  0.00    +0.034 C 
ATOM     13  C   UNL     1      -2.498 -10.660  15.880  0.00  0.00    +0.034 C 
ATOM     14  C   UNL     1      -4.016 -10.800  13.409  0.00  0.00    +0.085 C 
ATOM     15  C   UNL     1      -1.903 -11.136  14.553  0.00  0.00    +0.085 C 
ATOM     17  C   UNL     1      -1.964 -10.927  12.153  0.00  0.00    +0.104 C 
ENDBRANCH   4   8
ENDBRANCH   7   4
BRANCH   7  11
ATOM     11  C   UNL     1      -6.613 -11.786  17.027  0.00  0.00    +0.085 C 
BRANCH  11  16
ATOM      2  O   UNL     1      -8.901  -9.023  17.428  0.00  0.00    -0.359 OA
ATOM      6  N   UNL     1      -7.704  -9.575  16.988  0.00  0.00    -0.083 NA
ATOM     16  C   UNL     1      -7.763 -10.861  17.350  0.00  0.00    +0.086 A 
ATOM     18  C   UNL     1      -8.961 -11.174  18.014  0.00  0.00    +0.071 A 
ATOM     19  C   UNL     1      -9.640  -9.984  18.038  0.00  0.00    +0.140 A 
BRANCH  19  20
ATOM     20  C   UNL     1     -10.946  -9.570  18.566  0.00  0.00    +0.105 C 
BRANCH  20  21
ATOM     21  C   UNL     1     -11.323 -10.253  19.895  0.00  0.00    +0.163 C 
BRANCH  21   3
ATOM      3  O   UNL     1     -10.343  -9.943  20.877  0.00  0.00    -0.395 OA
ATOM     23  H   UNL     1     -10.152 -10.766  21.357  0.00  0.00    +0.209 HD
ENDBRANCH  21   3
ENDBRANCH  20  21
ENDBRANCH  19  20
ENDBRANCH  11  16
ENDBRANCH   7  11
TORSDOF 7
ENDMDL
