MODEL 1
REMARK VINA RESULT:      -7.4      0.000      0.000
REMARK  Name = 26743838
REMARK  6 active torsions:
REMARK  status: ('A' for Active; 'I' for Inactive)
REMARK    1  A    between atoms: O_1  and  C_13
REMARK    2  A    between atoms: N_3  and  C_7
REMARK    3  A    between atoms: C_6  and  C_7
REMARK    4  A    between atoms: C_8  and  C_17
REMARK    5  A    between atoms: C_18  and  C_19
REMARK    6  A    between atoms: C_22  and  C_25
REMARK                            x       y       z     vdW  Elec       q    Type
REMARK                         _______ _______ _______ _____ _____    ______ ____
ROOT
ATOM      3  N   UNL     1      12.377   8.618  19.926  0.00  0.00    -0.289 NA
ATOM      8  C   UNL     1      13.166   8.173  21.093  0.00  0.00    +0.148 C 
ATOM     11  C   UNL     1      10.973   8.545  20.324  0.00  0.00    +0.116 C 
ATOM     12  C   UNL     1      12.232   7.217  21.859  0.00  0.00    +0.061 C 
ATOM     13  C   UNL     1      10.927   7.226  21.071  0.00  0.00    +0.130 C 
ENDROOT
BRANCH   8  17
ATOM      2  O   UNL     1      14.451   6.746  19.581  0.00  0.00    -0.336 OA
ATOM      4  N   UNL     1      15.645   7.590  21.277  0.00  0.00    -0.190 NA
ATOM      5  N   UNL     1      15.754   6.259  19.420  0.00  0.00    -0.056 NA
ATOM     17  C   UNL     1      14.474   7.521  20.697  0.00  0.00    +0.245 A 
ATOM     18  C   UNL     1      16.399   6.800  20.458  0.00  0.00    +0.202 A 
BRANCH  18  19
ATOM     19  C   UNL     1      17.793   6.573  20.704  0.00  0.00    +0.023 A 
ATOM     20  C   UNL     1      18.459   7.314  21.680  0.00  0.00    +0.015 A 
ATOM     21  C   UNL     1      18.483   5.610  19.968  0.00  0.00    +0.012 A 
ATOM     22  C   UNL     1      19.815   7.092  21.921  0.00  0.00    -0.050 A 
ATOM     23  C   UNL     1      19.838   5.387  20.208  0.00  0.00    +0.001 A 
ATOM     24  C   UNL     1      20.504   6.128  21.185  0.00  0.00    +0.003 A 
ATOM     25  C   UNL     1      20.527   7.884  22.964  0.00  0.00    +0.044 C 
ENDBRANCH  18  19
ENDBRANCH   8  17
BRANCH  13   1
ATOM      1  O   UNL     1       9.816   7.153  21.942  0.00  0.00    -0.390 OA
ATOM     26  H   UNL     1      10.011   7.712  22.713  0.00  0.00    +0.210 HD
ENDBRANCH  13   1
BRANCH   3   7
ATOM      7  C   UNL     1      12.746   9.947  19.457  0.00  0.00    +0.088 C 
BRANCH   7   6
ATOM      6  C   UNL     1      13.695   9.858  18.262  0.00  0.00    +0.003 C 
ATOM      9  C   UNL     1      13.097   8.973  17.160  0.00  0.00    +0.005 C 
ATOM     10  C   UNL     1      14.019  11.258  17.723  0.00  0.00    +0.005 C 
ATOM     14  C   UNL     1      14.003   8.912  15.933  0.00  0.00    +0.000 C 
ATOM     15  C   UNL     1      14.924  11.193  16.494  0.00  0.00    +0.000 C 
ATOM     16  C   UNL     1      14.330  10.305  15.405  0.00  0.00    +0.000 C 
ENDBRANCH   7   6
ENDBRANCH   3   7
TORSDOF 5
ENDMDL
MODEL 2
REMARK VINA RESULT:      -7.3      1.881      4.098
REMARK  Name = 26743838
REMARK  6 active torsions:
REMARK  status: ('A' for Active; 'I' for Inactive)
REMARK    1  A    between atoms: O_1  and  C_13
REMARK    2  A    between atoms: N_3  and  C_7
REMARK    3  A    between atoms: C_6  and  C_7
REMARK    4  A    between atoms: C_8  and  C_17
REMARK    5  A    between atoms: C_18  and  C_19
REMARK    6  A    between atoms: C_22  and  C_25
REMARK                            x       y       z     vdW  Elec       q    Type
REMARK                         _______ _______ _______ _____ _____    ______ ____
ROOT
ATOM      3  N   UNL     1      12.752   8.687  18.755  0.00  0.00    -0.289 NA
ATOM      8  C   UNL     1      13.523   7.449  18.524  0.00  0.00    +0.148 C 
ATOM     11  C   UNL     1      12.257   9.115  17.448  0.00  0.00    +0.116 C 
ATOM     12  C   UNL     1      14.040   7.569  17.079  0.00  0.00    +0.061 C 
ATOM     13  C   UNL     1      13.469   8.885  16.564  0.00  0.00    +0.130 C 
ENDROOT
BRANCH   8  17
ATOM      2  O   UNL     1      14.267   6.913  20.790  0.00  0.00    -0.336 OA
ATOM      4  N   UNL     1      15.932   7.389  19.370  0.00  0.00    -0.190 NA
ATOM      5  N   UNL     1      15.452   6.801  21.529  0.00  0.00    -0.056 NA
ATOM     17  C   UNL     1      14.639   7.262  19.531  0.00  0.00    +0.245 A 
ATOM     18  C   UNL     1      16.389   7.096  20.623  0.00  0.00    +0.202 A 
BRANCH  18  19
ATOM     19  C   UNL     1      17.788   7.107  20.936  0.00  0.00    +0.023 A 
ATOM     20  C   UNL     1      18.606   6.059  20.514  0.00  0.00    +0.015 A 
ATOM     21  C   UNL     1      18.331   8.166  21.663  0.00  0.00    +0.012 A 
ATOM     22  C   UNL     1      19.968   6.071  20.817  0.00  0.00    -0.050 A 
ATOM     23  C   UNL     1      19.692   8.178  21.968  0.00  0.00    +0.001 A 
ATOM     24  C   UNL     1      20.510   7.131  21.544  0.00  0.00    +0.003 A 
ATOM     25  C   UNL     1      20.842   4.951  20.366  0.00  0.00    +0.044 C 
ENDBRANCH  18  19
ENDBRANCH   8  17
BRANCH  13   1
ATOM      1  O   UNL     1      13.112   8.778  15.200  0.00  0.00    -0.390 OA
ATOM     26  H   UNL     1      13.898   9.003  14.674  0.00  0.00    +0.210 HD
ENDBRANCH  13   1
BRANCH   3   7
ATOM      7  C   UNL     1      11.675   8.520  19.721  0.00  0.00    +0.088 C 
BRANCH   7   6
ATOM      6  C   UNL     1      11.915   9.384  20.959  0.00  0.00    +0.003 C 
ATOM      9  C   UNL     1      12.246  10.828  20.555  0.00  0.00    +0.005 C 
ATOM     10  C   UNL     1      10.698   9.343  21.893  0.00  0.00    +0.005 C 
ATOM     14  C   UNL     1      12.438  11.724  21.776  0.00  0.00    +0.000 C 
ATOM     15  C   UNL     1      10.893  10.242  23.112  0.00  0.00    +0.000 C 
ATOM     16  C   UNL     1      11.230  11.674  22.707  0.00  0.00    +0.000 C 
ENDBRANCH   7   6
ENDBRANCH   3   7
TORSDOF 5
ENDMDL
MODEL 3
REMARK VINA RESULT:      -6.9      2.088      3.393
REMARK  Name = 26743838
REMARK  6 active torsions:
REMARK  status: ('A' for Active; 'I' for Inactive)
REMARK    1  A    between atoms: O_1  and  C_13
REMARK    2  A    between atoms: N_3  and  C_7
REMARK    3  A    between atoms: C_6  and  C_7
REMARK    4  A    between atoms: C_8  and  C_17
REMARK    5  A    between atoms: C_18  and  C_19
REMARK    6  A    between atoms: C_22  and  C_25
REMARK                            x       y       z     vdW  Elec       q    Type
REMARK                         _______ _______ _______ _____ _____    ______ ____
ROOT
ATOM      3  N   UNL     1      14.207   9.146  18.416  0.00  0.00    -0.289 NA
ATOM      8  C   UNL     1      14.094   7.929  19.245  0.00  0.00    +0.148 C 
ATOM     11  C   UNL     1      12.889   9.369  17.825  0.00  0.00    +0.116 C 
ATOM     12  C   UNL     1      12.972   7.106  18.585  0.00  0.00    +0.061 C 
ATOM     13  C   UNL     1      12.486   7.963  17.422  0.00  0.00    +0.130 C 
ENDROOT
BRANCH   8  17
ATOM      2  O   UNL     1      15.621   6.223  18.390  0.00  0.00    -0.336 OA
ATOM      4  N   UNL     1      16.364   7.281  20.219  0.00  0.00    -0.190 NA
ATOM      5  N   UNL     1      16.871   5.662  18.684  0.00  0.00    -0.056 NA
ATOM     17  C   UNL     1      15.399   7.167  19.342  0.00  0.00    +0.245 A 
ATOM     18  C   UNL     1      17.244   6.338  19.775  0.00  0.00    +0.202 A 
BRANCH  18  19
ATOM     19  C   UNL     1      18.489   6.095  20.444  0.00  0.00    +0.023 A 
ATOM     20  C   UNL     1      18.796   6.783  21.618  0.00  0.00    +0.015 A 
ATOM     21  C   UNL     1      19.393   5.171  19.920  0.00  0.00    +0.012 A 
ATOM     22  C   UNL     1      20.007   6.546  22.269  0.00  0.00    -0.050 A 
ATOM     23  C   UNL     1      20.604   4.934  20.570  0.00  0.00    +0.001 A 
ATOM     24  C   UNL     1      20.911   5.621  21.745  0.00  0.00    +0.003 A 
ATOM     25  C   UNL     1      20.336   7.281  23.524  0.00  0.00    +0.044 C 
ENDBRANCH  18  19
ENDBRANCH   8  17
BRANCH  13   1
ATOM      1  O   UNL     1      11.086   7.843  17.262  0.00  0.00    -0.390 OA
ATOM     26  H   UNL     1      10.787   8.598  16.728  0.00  0.00    +0.210 HD
ENDBRANCH  13   1
BRANCH   3   7
ATOM      7  C   UNL     1      14.677  10.306  19.162  0.00  0.00    +0.088 C 
BRANCH   7   6
ATOM      6  C   UNL     1      14.063  10.338  20.562  0.00  0.00    +0.003 C 
ATOM      9  C   UNL     1      15.151  10.526  21.627  0.00  0.00    +0.005 C 
ATOM     10  C   UNL     1      13.002  11.442  20.663  0.00  0.00    +0.005 C 
ATOM     14  C   UNL     1      14.557  10.614  23.031  0.00  0.00    +0.000 C 
ATOM     15  C   UNL     1      12.411  11.528  22.069  0.00  0.00    +0.000 C 
ATOM     16  C   UNL     1      13.497  11.707  23.125  0.00  0.00    +0.000 C 
ENDBRANCH   7   6
ENDBRANCH   3   7
TORSDOF 5
ENDMDL
MODEL 4
REMARK VINA RESULT:      -6.7     25.341     28.674
REMARK  Name = 26743838
REMARK  6 active torsions:
REMARK  status: ('A' for Active; 'I' for Inactive)
REMARK    1  A    between atoms: O_1  and  C_13
REMARK    2  A    between atoms: N_3  and  C_7
REMARK    3  A    between atoms: C_6  and  C_7
REMARK    4  A    between atoms: C_8  and  C_17
REMARK    5  A    between atoms: C_18  and  C_19
REMARK    6  A    between atoms: C_22  and  C_25
REMARK                            x       y       z     vdW  Elec       q    Type
REMARK                         _______ _______ _______ _____ _____    ______ ____
ROOT
ATOM      3  N   UNL     1      -3.283 -10.467  14.285  0.00  0.00    -0.289 NA
ATOM      8  C   UNL     1      -3.543 -11.255  15.506  0.00  0.00    +0.148 C 
ATOM     11  C   UNL     1      -1.830 -10.365  14.159  0.00  0.00    +0.116 C 
ATOM     12  C   UNL     1      -2.322 -10.997  16.410  0.00  0.00    +0.061 C 
ATOM     13  C   UNL     1      -1.411 -10.090  15.591  0.00  0.00    +0.130 C 
ENDROOT
BRANCH   8  17
ATOM      2  O   UNL     1      -5.362  -9.662  15.863  0.00  0.00    -0.336 OA
ATOM      4  N   UNL     1      -5.580 -11.572  17.013  0.00  0.00    -0.190 NA
ATOM      5  N   UNL     1      -6.556  -9.547  16.587  0.00  0.00    -0.056 NA
ATOM     17  C   UNL     1      -4.852 -10.884  16.171  0.00  0.00    +0.245 A 
ATOM     18  C   UNL     1      -6.615 -10.711  17.240  0.00  0.00    +0.202 A 
BRANCH  18  19
ATOM     19  C   UNL     1      -7.693 -11.046  18.124  0.00  0.00    +0.023 A 
ATOM     20  C   UNL     1      -8.863 -10.287  18.116  0.00  0.00    +0.015 A 
ATOM     21  C   UNL     1      -7.571 -12.131  18.992  0.00  0.00    +0.012 A 
ATOM     22  C   UNL     1      -9.912 -10.613  18.976  0.00  0.00    -0.050 A 
ATOM     23  C   UNL     1      -8.619 -12.458  19.852  0.00  0.00    +0.001 A 
ATOM     24  C   UNL     1      -9.790 -11.699  19.843  0.00  0.00    +0.003 A 
ATOM     25  C   UNL     1     -11.163  -9.803  18.968  0.00  0.00    +0.044 C 
ENDBRANCH  18  19
ENDBRANCH   8  17
BRANCH  13   1
ATOM      1  O   UNL     1      -0.052 -10.413  15.813  0.00  0.00    -0.390 OA
ATOM     26  H   UNL     1       0.413 -10.319  14.965  0.00  0.00    +0.210 HD
ENDBRANCH  13   1
BRANCH   3   7
ATOM      7  C   UNL     1      -3.897 -11.036  13.093  0.00  0.00    +0.088 C 
BRANCH   7   6
ATOM      6  C   UNL     1      -4.125  -9.961  12.031  0.00  0.00    +0.003 C 
ATOM      9  C   UNL     1      -3.311 -10.267  10.766  0.00  0.00    +0.005 C 
ATOM     10  C   UNL     1      -5.618  -9.830  11.703  0.00  0.00    +0.005 C 
ATOM     14  C   UNL     1      -3.563  -9.235   9.670  0.00  0.00    +0.000 C 
ATOM     15  C   UNL     1      -5.866  -8.798  10.605  0.00  0.00    +0.000 C 
ATOM     16  C   UNL     1      -5.049  -9.102   9.352  0.00  0.00    +0.000 C 
ENDBRANCH   7   6
ENDBRANCH   3   7
TORSDOF 5
ENDMDL
MODEL 5
REMARK VINA RESULT:      -6.6      2.194      4.018
REMARK  Name = 26743838
REMARK  6 active torsions:
REMARK  status: ('A' for Active; 'I' for Inactive)
REMARK    1  A    between atoms: O_1  and  C_13
REMARK    2  A    between atoms: N_3  and  C_7
REMARK    3  A    between atoms: C_6  and  C_7
REMARK    4  A    between atoms: C_8  and  C_17
REMARK    5  A    between atoms: C_18  and  C_19
REMARK    6  A    between atoms: C_22  and  C_25
REMARK                            x       y       z     vdW  Elec       q    Type
REMARK                         _______ _______ _______ _____ _____    ______ ____
ROOT
ATOM      3  N   UNL     1      13.310   8.846  18.838  0.00  0.00    -0.289 NA
ATOM      8  C   UNL     1      13.893   7.569  18.381  0.00  0.00    +0.148 C 
ATOM     11  C   UNL     1      12.503   9.352  17.729  0.00  0.00    +0.116 C 
ATOM     12  C   UNL     1      13.994   7.706  16.850  0.00  0.00    +0.061 C 
ATOM     13  C   UNL     1      13.400   9.074  16.538  0.00  0.00    +0.130 C 
ENDROOT
BRANCH   8  17
ATOM      2  O   UNL     1      15.853   6.131  18.640  0.00  0.00    -0.336 OA
ATOM      4  N   UNL     1      15.886   7.962  19.929  0.00  0.00    -0.190 NA
ATOM      5  N   UNL     1      17.049   6.074  19.367  0.00  0.00    -0.056 NA
ATOM     17  C   UNL     1      15.228   7.273  19.031  0.00  0.00    +0.245 A 
ATOM     18  C   UNL     1      16.996   7.188  20.104  0.00  0.00    +0.202 A 
BRANCH  18  19
ATOM     19  C   UNL     1      18.034   7.555  21.023  0.00  0.00    +0.023 A 
ATOM     20  C   UNL     1      18.192   8.888  21.399  0.00  0.00    +0.015 A 
ATOM     21  C   UNL     1      18.884   6.578  21.540  0.00  0.00    +0.012 A 
ATOM     22  C   UNL     1      19.201   9.245  22.294  0.00  0.00    -0.050 A 
ATOM     23  C   UNL     1      19.893   6.934  22.434  0.00  0.00    +0.001 A 
ATOM     24  C   UNL     1      20.052   8.268  22.812  0.00  0.00    +0.003 A 
ATOM     25  C   UNL     1      19.371  10.671  22.697  0.00  0.00    +0.044 C 
ENDBRANCH  18  19
ENDBRANCH   8  17
BRANCH  13   1
ATOM      1  O   UNL     1      12.670   9.039  15.327  0.00  0.00    -0.390 OA
ATOM     26  H   UNL     1      12.447   9.956  15.094  0.00  0.00    +0.210 HD
ENDBRANCH  13   1
BRANCH   3   7
ATOM      7  C   UNL     1      12.535   8.716  20.065  0.00  0.00    +0.088 C 
BRANCH   7   6
ATOM      6  C   UNL     1      12.613   9.997  20.895  0.00  0.00    +0.003 C 
ATOM      9  C   UNL     1      11.257  10.305  21.546  0.00  0.00    +0.005 C 
ATOM     10  C   UNL     1      13.717   9.888  21.957  0.00  0.00    +0.005 C 
ATOM     14  C   UNL     1      11.324  11.552  22.424  0.00  0.00    +0.000 C 
ATOM     15  C   UNL     1      13.779  11.136  22.835  0.00  0.00    +0.000 C 
ATOM     16  C   UNL     1      12.427  11.444  23.473  0.00  0.00    +0.000 C 
ENDBRANCH   7   6
ENDBRANCH   3   7
TORSDOF 5
ENDMDL
MODEL 6
REMARK VINA RESULT:      -6.6      2.254      2.983
REMARK  Name = 26743838
REMARK  6 active torsions:
REMARK  status: ('A' for Active; 'I' for Inactive)
REMARK    1  A    between atoms: O_1  and  C_13
REMARK    2  A    between atoms: N_3  and  C_7
REMARK    3  A    between atoms: C_6  and  C_7
REMARK    4  A    between atoms: C_8  and  C_17
REMARK    5  A    between atoms: C_18  and  C_19
REMARK    6  A    between atoms: C_22  and  C_25
REMARK                            x       y       z     vdW  Elec       q    Type
REMARK                         _______ _______ _______ _____ _____    ______ ____
ROOT
ATOM      3  N   UNL     1      14.001   9.277  18.739  0.00  0.00    -0.289 NA
ATOM      8  C   UNL     1      13.890   7.939  19.355  0.00  0.00    +0.148 C 
ATOM     11  C   UNL     1      12.710   9.549  18.108  0.00  0.00    +0.116 C 
ATOM     12  C   UNL     1      12.844   7.197  18.503  0.00  0.00    +0.061 C 
ATOM     13  C   UNL     1      12.390   8.214  17.462  0.00  0.00    +0.130 C 
ENDROOT
BRANCH   8  17
ATOM      2  O   UNL     1      15.463   6.319  18.421  0.00  0.00    -0.336 OA
ATOM      4  N   UNL     1      16.183   7.318  20.291  0.00  0.00    -0.190 NA
ATOM      5  N   UNL     1      16.731   5.784  18.685  0.00  0.00    -0.056 NA
ATOM     17  C   UNL     1      15.218   7.214  19.414  0.00  0.00    +0.245 A 
ATOM     18  C   UNL     1      17.090   6.422  19.803  0.00  0.00    +0.202 A 
BRANCH  18  19
ATOM     19  C   UNL     1      18.345   6.189  20.455  0.00  0.00    +0.023 A 
ATOM     20  C   UNL     1      18.686   6.918  21.594  0.00  0.00    +0.015 A 
ATOM     21  C   UNL     1      19.225   5.232  19.951  0.00  0.00    +0.012 A 
ATOM     22  C   UNL     1      19.907   6.690  22.230  0.00  0.00    -0.050 A 
ATOM     23  C   UNL     1      20.446   5.003  20.585  0.00  0.00    +0.001 A 
ATOM     24  C   UNL     1      20.786   5.732  21.725  0.00  0.00    +0.003 A 
ATOM     25  C   UNL     1      20.271   7.469  23.448  0.00  0.00    +0.044 C 
ENDBRANCH  18  19
ENDBRANCH   8  17
BRANCH  13   1
ATOM      1  O   UNL     1      11.008   8.077  17.196  0.00  0.00    -0.390 OA
ATOM     26  H   UNL     1      10.570   7.854  18.035  0.00  0.00    +0.210 HD
ENDBRANCH  13   1
BRANCH   3   7
ATOM      7  C   UNL     1      14.377  10.316  19.688  0.00  0.00    +0.088 C 
BRANCH   7   6
ATOM      6  C   UNL     1      15.794  10.817  19.412  0.00  0.00    +0.003 C 
ATOM      9  C   UNL     1      15.760  12.194  18.735  0.00  0.00    +0.005 C 
ATOM     10  C   UNL     1      16.614  10.866  20.709  0.00  0.00    +0.005 C 
ATOM     14  C   UNL     1      17.166  12.740  18.497  0.00  0.00    +0.000 C 
ATOM     15  C   UNL     1      18.018  11.415  20.468  0.00  0.00    +0.000 C 
ATOM     16  C   UNL     1      17.980  12.780  19.787  0.00  0.00    +0.000 C 
ENDBRANCH   7   6
ENDBRANCH   3   7
TORSDOF 5
ENDMDL
MODEL 7
REMARK VINA RESULT:      -6.6     25.348     28.608
REMARK  Name = 26743838
REMARK  6 active torsions:
REMARK  status: ('A' for Active; 'I' for Inactive)
REMARK    1  A    between atoms: O_1  and  C_13
REMARK    2  A    between atoms: N_3  and  C_7
REMARK    3  A    between atoms: C_6  and  C_7
REMARK    4  A    between atoms: C_8  and  C_17
REMARK    5  A    between atoms: C_18  and  C_19
REMARK    6  A    between atoms: C_22  and  C_25
REMARK                            x       y       z     vdW  Elec       q    Type
REMARK                         _______ _______ _______ _____ _____    ______ ____
ROOT
ATOM      3  N   UNL     1      -3.291 -10.402  14.184  0.00  0.00    -0.289 NA
ATOM      8  C   UNL     1      -3.649 -11.109  15.430  0.00  0.00    +0.148 C 
ATOM     11  C   UNL     1      -1.830 -10.397  14.116  0.00  0.00    +0.116 C 
ATOM     12  C   UNL     1      -2.452 -10.879  16.372  0.00  0.00    +0.061 C 
ATOM     13  C   UNL     1      -1.453 -10.073  15.550  0.00  0.00    +0.130 C 
ENDROOT
BRANCH   8  17
ATOM      2  O   UNL     1      -5.069 -10.675  17.372  0.00  0.00    -0.336 OA
ATOM      4  N   UNL     1      -6.019 -10.157  15.410  0.00  0.00    -0.190 NA
ATOM      5  N   UNL     1      -6.345 -10.184  17.675  0.00  0.00    -0.056 NA
ATOM     17  C   UNL     1      -4.958 -10.624  16.018  0.00  0.00    +0.245 A 
ATOM     18  C   UNL     1      -6.843  -9.900  16.467  0.00  0.00    +0.202 A 
BRANCH  18  19
ATOM     19  C   UNL     1      -8.158  -9.359  16.283  0.00  0.00    +0.023 A 
ATOM     20  C   UNL     1      -8.813  -9.518  15.062  0.00  0.00    +0.015 A 
ATOM     21  C   UNL     1      -8.783  -8.675  17.325  0.00  0.00    +0.012 A 
ATOM     22  C   UNL     1     -10.093  -8.993  14.883  0.00  0.00    -0.050 A 
ATOM     23  C   UNL     1     -10.062  -8.150  17.148  0.00  0.00    +0.001 A 
ATOM     24  C   UNL     1     -10.718  -8.309  15.926  0.00  0.00    +0.003 A 
ATOM     25  C   UNL     1     -10.793  -9.162  13.577  0.00  0.00    +0.044 C 
ENDBRANCH  18  19
ENDBRANCH   8  17
BRANCH  13   1
ATOM      1  O   UNL     1      -0.128 -10.467  15.846  0.00  0.00    -0.390 OA
ATOM     26  H   UNL     1       0.104 -10.086  16.710  0.00  0.00    +0.210 HD
ENDBRANCH  13   1
BRANCH   3   7
ATOM      7  C   UNL     1      -3.892 -10.994  12.996  0.00  0.00    +0.088 C 
BRANCH   7   6
ATOM      6  C   UNL     1      -4.163  -9.928  11.935  0.00  0.00    +0.003 C 
ATOM      9  C   UNL     1      -3.349 -10.209  10.664  0.00  0.00    +0.005 C 
ATOM     10  C   UNL     1      -5.663  -9.849  11.617  0.00  0.00    +0.005 C 
ATOM     14  C   UNL     1      -3.643  -9.186   9.569  0.00  0.00    +0.000 C 
ATOM     15  C   UNL     1      -5.953  -8.827  10.520  0.00  0.00    +0.000 C 
ATOM     16  C   UNL     1      -5.136  -9.104   9.262  0.00  0.00    +0.000 C 
ENDBRANCH   7   6
ENDBRANCH   3   7
TORSDOF 5
ENDMDL
MODEL 8
REMARK VINA RESULT:      -6.6     26.879     28.900
REMARK  Name = 26743838
REMARK  6 active torsions:
REMARK  status: ('A' for Active; 'I' for Inactive)
REMARK    1  A    between atoms: O_1  and  C_13
REMARK    2  A    between atoms: N_3  and  C_7
REMARK    3  A    between atoms: C_6  and  C_7
REMARK    4  A    between atoms: C_8  and  C_17
REMARK    5  A    between atoms: C_18  and  C_19
REMARK    6  A    between atoms: C_22  and  C_25
REMARK                            x       y       z     vdW  Elec       q    Type
REMARK                         _______ _______ _______ _____ _____    ______ ____
ROOT
ATOM      3  N   UNL     1      -7.071 -11.698  17.505  0.00  0.00    -0.289 NA
ATOM      8  C   UNL     1      -6.052 -10.639  17.364  0.00  0.00    +0.148 C 
ATOM     11  C   UNL     1      -7.332 -11.831  18.938  0.00  0.00    +0.116 C 
ATOM     12  C   UNL     1      -5.257 -10.677  18.682  0.00  0.00    +0.061 C 
ATOM     13  C   UNL     1      -5.933 -11.757  19.519  0.00  0.00    +0.130 C 
ENDROOT
BRANCH   8  17
ATOM      2  O   UNL     1      -4.294 -11.870  16.193  0.00  0.00    -0.336 OA
ATOM      4  N   UNL     1      -5.133 -10.147  15.032  0.00  0.00    -0.190 NA
ATOM      5  N   UNL     1      -3.605 -11.850  14.974  0.00  0.00    -0.056 NA
ATOM     17  C   UNL     1      -5.174 -10.835  16.145  0.00  0.00    +0.245 A 
ATOM     18  C   UNL     1      -4.155 -10.807  14.344  0.00  0.00    +0.202 A 
BRANCH  18  19
ATOM     19  C   UNL     1      -3.753 -10.399  13.030  0.00  0.00    +0.023 A 
ATOM     20  C   UNL     1      -4.687  -9.847  12.154  0.00  0.00    +0.015 A 
ATOM     21  C   UNL     1      -2.426 -10.554  12.628  0.00  0.00    +0.012 A 
ATOM     22  C   UNL     1      -4.295  -9.449  10.876  0.00  0.00    -0.050 A 
ATOM     23  C   UNL     1      -2.033 -10.156  11.351  0.00  0.00    +0.001 A 
ATOM     24  C   UNL     1      -2.968  -9.603  10.475  0.00  0.00    +0.003 A 
ATOM     25  C   UNL     1      -5.293  -8.858   9.939  0.00  0.00    +0.044 C 
ENDBRANCH  18  19
ENDBRANCH   8  17
BRANCH  13   1
ATOM      1  O   UNL     1      -5.950 -11.395  20.885  0.00  0.00    -0.390 OA
ATOM     26  H   UNL     1      -5.784 -10.439  20.936  0.00  0.00    +0.210 HD
ENDBRANCH  13   1
BRANCH   3   7
ATOM      7  C   UNL     1      -8.287 -11.428  16.749  0.00  0.00    +0.088 C 
BRANCH   7   6
ATOM      6  C   UNL     1      -9.057 -10.256  17.357  0.00  0.00    +0.003 C 
ATOM      9  C   UNL     1      -9.011  -9.036  16.426  0.00  0.00    +0.005 C 
ATOM     10  C   UNL     1     -10.507 -10.658  17.659  0.00  0.00    +0.005 C 
ATOM     14  C   UNL     1      -9.818  -7.868  16.986  0.00  0.00    +0.000 C 
ATOM     15  C   UNL     1     -11.312  -9.486  18.218  0.00  0.00    +0.000 C 
ATOM     16  C   UNL     1     -11.256  -8.274  17.294  0.00  0.00    +0.000 C 
ENDBRANCH   7   6
ENDBRANCH   3   7
TORSDOF 5
ENDMDL
MODEL 9
REMARK VINA RESULT:      -6.4     27.357     28.992
REMARK  Name = 26743838
REMARK  6 active torsions:
REMARK  status: ('A' for Active; 'I' for Inactive)
REMARK    1  A    between atoms: O_1  and  C_13
REMARK    2  A    between atoms: N_3  and  C_7
REMARK    3  A    between atoms: C_6  and  C_7
REMARK    4  A    between atoms: C_8  and  C_17
REMARK    5  A    between atoms: C_18  and  C_19
REMARK    6  A    between atoms: C_22  and  C_25
REMARK                            x       y       z     vdW  Elec       q    Type
REMARK                         _______ _______ _______ _____ _____    ______ ____
ROOT
ATOM      3  N   UNL     1      -8.277  -9.528  16.235  0.00  0.00    -0.289 NA
ATOM      8  C   UNL     1      -9.073  -9.607  14.994  0.00  0.00    +0.148 C 
ATOM     11  C   UNL     1      -9.111  -8.840  17.219  0.00  0.00    +0.116 C 
ATOM     12  C   UNL     1     -10.021  -8.395  15.056  0.00  0.00    +0.061 C 
ATOM     13  C   UNL     1      -9.715  -7.723  16.390  0.00  0.00    +0.130 C 
ENDROOT
BRANCH   8  17
ATOM      2  O   UNL     1      -8.865  -9.664  12.559  0.00  0.00    -0.336 OA
ATOM      4  N   UNL     1      -6.906  -9.575  13.642  0.00  0.00    -0.190 NA
ATOM      5  N   UNL     1      -7.873  -9.659  11.570  0.00  0.00    -0.056 NA
ATOM     17  C   UNL     1      -8.211  -9.612  13.749  0.00  0.00    +0.245 A 
ATOM     18  C   UNL     1      -6.747  -9.606  12.287  0.00  0.00    +0.202 A 
BRANCH  18  19
ATOM     19  C   UNL     1      -5.447  -9.581  11.681  0.00  0.00    +0.023 A 
ATOM     20  C   UNL     1      -4.392 -10.281  12.264  0.00  0.00    +0.015 A 
ATOM     21  C   UNL     1      -5.240  -8.856  10.507  0.00  0.00    +0.012 A 
ATOM     22  C   UNL     1      -3.128 -10.258  11.673  0.00  0.00    -0.050 A 
ATOM     23  C   UNL     1      -3.977  -8.832   9.916  0.00  0.00    +0.001 A 
ATOM     24  C   UNL     1      -2.921  -9.534  10.499  0.00  0.00    +0.003 A 
ATOM     25  C   UNL     1      -1.999 -11.007  12.296  0.00  0.00    +0.044 C 
ENDBRANCH  18  19
ENDBRANCH   8  17
BRANCH  13   1
ATOM      1  O   UNL     1     -10.897  -7.213  16.976  0.00  0.00    -0.390 OA
ATOM     26  H   UNL     1     -11.077  -7.737  17.774  0.00  0.00    +0.210 HD
ENDBRANCH  13   1
BRANCH   3   7
ATOM      7  C   UNL     1      -7.827 -10.830  16.712  0.00  0.00    +0.088 C 
BRANCH   7   6
ATOM      6  C   UNL     1      -6.529 -10.699  17.507  0.00  0.00    +0.003 C 
ATOM      9  C   UNL     1      -6.607 -11.506  18.810  0.00  0.00    +0.005 C 
ATOM     10  C   UNL     1      -5.328 -11.143  16.660  0.00  0.00    +0.005 C 
ATOM     14  C   UNL     1      -5.301 -11.435  19.597  0.00  0.00    +0.000 C 
ATOM     15  C   UNL     1      -4.024 -11.072  17.451  0.00  0.00    +0.000 C 
ATOM     16  C   UNL     1      -4.109 -11.869  18.750  0.00  0.00    +0.000 C 
ENDBRANCH   7   6
ENDBRANCH   3   7
TORSDOF 5
ENDMDL
MODEL 10
REMARK VINA RESULT:      -6.3      1.933      2.654
REMARK  Name = 26743838
REMARK  6 active torsions:
REMARK  status: ('A' for Active; 'I' for Inactive)
REMARK    1  A    between atoms: O_1  and  C_13
REMARK    2  A    between atoms: N_3  and  C_7
REMARK    3  A    between atoms: C_6  and  C_7
REMARK    4  A    between atoms: C_8  and  C_17
REMARK    5  A    between atoms: C_18  and  C_19
REMARK    6  A    between atoms: C_22  and  C_25
REMARK                            x       y       z     vdW  Elec       q    Type
REMARK                         _______ _______ _______ _____ _____    ______ ____
ROOT
ATOM      3  N   UNL     1      13.306   9.558  17.362  0.00  0.00    -0.289 NA
ATOM      8  C   UNL     1      12.994   8.827  18.606  0.00  0.00    +0.148 C 
ATOM     11  C   UNL     1      12.069   9.601  16.585  0.00  0.00    +0.116 C 
ATOM     12  C   UNL     1      11.836   7.884  18.229  0.00  0.00    +0.061 C 
ATOM     13  C   UNL     1      11.538   8.191  16.767  0.00  0.00    +0.130 C 
ENDROOT
BRANCH   8  17
ATOM      2  O   UNL     1      14.066   6.741  19.296  0.00  0.00    -0.336 OA
ATOM      4  N   UNL     1      15.353   8.557  19.546  0.00  0.00    -0.190 NA
ATOM      5  N   UNL     1      15.282   6.287  19.823  0.00  0.00    -0.056 NA
ATOM     17  C   UNL     1      14.192   8.088  19.164  0.00  0.00    +0.245 A 
ATOM     18  C   UNL     1      15.988   7.416  19.942  0.00  0.00    +0.202 A 
BRANCH  18  19
ATOM     19  C   UNL     1      17.328   7.437  20.453  0.00  0.00    +0.023 A 
ATOM     20  C   UNL     1      17.762   8.511  21.229  0.00  0.00    +0.015 A 
ATOM     21  C   UNL     1      18.197   6.383  20.173  0.00  0.00    +0.012 A 
ATOM     22  C   UNL     1      19.065   8.532  21.726  0.00  0.00    -0.050 A 
ATOM     23  C   UNL     1      19.499   6.402  20.669  0.00  0.00    +0.001 A 
ATOM     24  C   UNL     1      19.934   7.476  21.446  0.00  0.00    +0.003 A 
ATOM     25  C   UNL     1      19.529   9.680  22.556  0.00  0.00    +0.044 C 
ENDBRANCH  18  19
ENDBRANCH   8  17
BRANCH  13   1
ATOM      1  O   UNL     1      10.149   8.116  16.512  0.00  0.00    -0.390 OA
ATOM     26  H   UNL     1       9.864   7.208  16.710  0.00  0.00    +0.210 HD
ENDBRANCH  13   1
BRANCH   3   7
ATOM      7  C   UNL     1      13.850  10.889  17.600  0.00  0.00    +0.088 C 
BRANCH   7   6
ATOM      6  C   UNL     1      15.158  11.087  16.834  0.00  0.00    +0.003 C 
ATOM      9  C   UNL     1      14.914  11.021  15.320  0.00  0.00    +0.005 C 
ATOM     10  C   UNL     1      15.818  12.417  17.224  0.00  0.00    +0.005 C 
ATOM     14  C   UNL     1      16.198  11.269  14.532  0.00  0.00    +0.000 C 
ATOM     15  C   UNL     1      17.100  12.663  16.432  0.00  0.00    +0.000 C 
ATOM     16  C   UNL     1      16.855  12.588  14.928  0.00  0.00    +0.000 C 
ENDBRANCH   7   6
ENDBRANCH   3   7
TORSDOF 5
ENDMDL
