MODEL 1
REMARK VINA RESULT:      -7.0      0.000      0.000
REMARK  Name = 40779355
REMARK  10 active torsions:
REMARK  status: ('A' for Active; 'I' for Inactive)
REMARK    1  A    between atoms: O_3  and  C_29
REMARK    2  A    between atoms: N_6  and  C_20
REMARK    3  A    between atoms: N_7  and  C_17
REMARK    4  A    between atoms: C_10  and  C_16
REMARK    5  A    between atoms: C_11  and  C_17
REMARK    6  A    between atoms: C_19  and  C_22
REMARK    7  A    between atoms: C_21  and  C_23
REMARK    8  A    between atoms: C_23  and  C_24
REMARK    9  A    between atoms: C_24  and  C_26
REMARK   10  A    between atoms: C_26  and  C_29
REMARK                            x       y       z     vdW  Elec       q    Type
REMARK                         _______ _______ _______ _____ _____    ______ ____
ROOT
ATOM      5  N   UNL     1      13.041   7.117  21.327  0.00  0.00    -0.297 NA
ATOM      9  C   UNL     1      11.403   8.843  20.268  0.00  0.00    +0.002 C 
ATOM     10  C   UNL     1      12.217   8.118  19.162  0.00  0.00    +0.055 C 
ATOM     11  C   UNL     1      13.184   8.434  22.002  0.00  0.00    +0.074 C 
ATOM     12  C   UNL     1      12.376   9.518  21.257  0.00  0.00    +0.024 C 
ATOM     13  C   UNL     1      10.645   7.751  21.052  0.00  0.00    +0.019 C 
ATOM     14  C   UNL     1      13.303   7.261  19.873  0.00  0.00    +0.094 C 
ATOM     15  C   UNL     1      11.640   6.666  21.502  0.00  0.00    +0.085 C 
ENDROOT
BRANCH  10  16
ATOM      6  N   UNL     1      12.114   9.202  16.870  0.00  0.00    -0.270 N 
ATOM      8  N   UNL     1      12.795   9.959  15.993  0.00  0.00    -0.171 NA
ATOM     16  C   UNL     1      12.791   8.953  18.027  0.00  0.00    +0.044 A 
ATOM     18  C   UNL     1      14.001   9.592  17.899  0.00  0.00    +0.053 A 
ATOM     19  C   UNL     1      13.947  10.194  16.628  0.00  0.00    +0.100 A 
ATOM     20  C   UNL     1      10.789   8.743  16.523  0.00  0.00    +0.172 C 
BRANCH  19  22
ATOM      1  S   UNL     1      15.572  10.788  14.413  0.00  0.00    -0.095 S 
ATOM     22  C   UNL     1      15.016  11.005  16.019  0.00  0.00    +0.039 A 
ATOM     25  C   UNL     1      15.686  12.021  16.665  0.00  0.00    +0.018 A 
ATOM     27  C   UNL     1      16.668  12.631  15.830  0.00  0.00    +0.008 A 
ATOM     28  C   UNL     1      16.711  12.056  14.579  0.00  0.00    +0.046 A 
ENDBRANCH  19  22
ENDBRANCH  10  16
BRANCH  11  17
ATOM     17  C   UNL     1      14.649   8.839  22.185  0.00  0.00    +0.123 C 
BRANCH  17   7
ATOM      2  O   UNL     1      17.009   8.793  20.554  0.00  0.00    -0.276 OA
ATOM      7  N   UNL     1      15.517   7.722  21.975  0.00  0.00    -0.314 N 
ATOM     21  C   UNL     1      16.648   7.789  21.161  0.00  0.00    +0.213 C 
ATOM     30  H   UNL     1      15.250   6.832  22.385  0.00  0.00    +0.149 HD
BRANCH  21  23
ATOM     23  C   UNL     1      17.377   6.458  21.085  0.00  0.00    +0.096 C 
BRANCH  23  24
ATOM     24  C   UNL     1      18.697   6.522  20.322  0.00  0.00    +0.020 C 
BRANCH  24  26
ATOM     26  C   UNL     1      19.335   5.144  20.144  0.00  0.00    +0.121 C 
BRANCH  26  29
ATOM      4  O   UNL     1      21.029   5.303  21.886  0.00  0.00    -0.251 OA
ATOM     29  C   UNL     1      20.733   5.092  20.718  0.00  0.00    +0.305 C 
BRANCH  29   3
ATOM      3  O   UNL     1      21.649   4.775  19.766  0.00  0.00    -0.481 OA
ATOM     31  H   UNL     1      21.864   5.544  19.196  0.00  0.00    +0.295 HD
ENDBRANCH  29   3
ENDBRANCH  26  29
ENDBRANCH  24  26
ENDBRANCH  23  24
ENDBRANCH  21  23
ENDBRANCH  17   7
ENDBRANCH  11  17
TORSDOF 9
ENDMDL
MODEL 2
REMARK VINA RESULT:      -6.9      3.588      5.282
REMARK  Name = 40779355
REMARK  10 active torsions:
REMARK  status: ('A' for Active; 'I' for Inactive)
REMARK    1  A    between atoms: O_3  and  C_29
REMARK    2  A    between atoms: N_6  and  C_20
REMARK    3  A    between atoms: N_7  and  C_17
REMARK    4  A    between atoms: C_10  and  C_16
REMARK    5  A    between atoms: C_11  and  C_17
REMARK    6  A    between atoms: C_19  and  C_22
REMARK    7  A    between atoms: C_21  and  C_23
REMARK    8  A    between atoms: C_23  and  C_24
REMARK    9  A    between atoms: C_24  and  C_26
REMARK   10  A    between atoms: C_26  and  C_29
REMARK                            x       y       z     vdW  Elec       q    Type
REMARK                         _______ _______ _______ _____ _____    ______ ____
ROOT
ATOM      5  N   UNL     1      13.042   7.373  21.394  0.00  0.00    -0.297 NA
ATOM      9  C   UNL     1      11.366   8.957  20.184  0.00  0.00    +0.002 C 
ATOM     10  C   UNL     1      12.243   8.202  19.149  0.00  0.00    +0.055 C 
ATOM     11  C   UNL     1      13.109   8.734  21.990  0.00  0.00    +0.074 C 
ATOM     12  C   UNL     1      12.278   9.734  21.156  0.00  0.00    +0.024 C 
ATOM     13  C   UNL     1      10.631   7.882  21.013  0.00  0.00    +0.019 C 
ATOM     14  C   UNL     1      13.343   7.439  19.942  0.00  0.00    +0.094 C 
ATOM     15  C   UNL     1      11.657   6.872  21.557  0.00  0.00    +0.085 C 
ENDROOT
BRANCH  10  16
ATOM      6  N   UNL     1      12.149   9.170  16.805  0.00  0.00    -0.270 N 
ATOM      8  N   UNL     1      12.826   9.895  15.900  0.00  0.00    -0.171 NA
ATOM     16  C   UNL     1      12.816   8.991  17.981  0.00  0.00    +0.044 A 
ATOM     18  C   UNL     1      14.015   9.645  17.835  0.00  0.00    +0.053 A 
ATOM     19  C   UNL     1      13.966  10.183  16.534  0.00  0.00    +0.100 A 
ATOM     20  C   UNL     1      10.836   8.670  16.467  0.00  0.00    +0.172 C 
BRANCH  19  22
ATOM      1  S   UNL     1      15.774  12.332  16.646  0.00  0.00    -0.095 S 
ATOM     22  C   UNL     1      15.028  10.983  15.898  0.00  0.00    +0.039 A 
ATOM     25  C   UNL     1      15.537  10.741  14.641  0.00  0.00    +0.018 A 
ATOM     27  C   UNL     1      16.554  11.675  14.287  0.00  0.00    +0.008 A 
ATOM     28  C   UNL     1      16.782  12.595  15.286  0.00  0.00    +0.046 A 
ENDBRANCH  19  22
ENDBRANCH  10  16
BRANCH  11  17
ATOM     17  C   UNL     1      14.548   9.214  22.188  0.00  0.00    +0.123 C 
BRANCH  17   7
ATOM      2  O   UNL     1      14.964  12.046  22.401  0.00  0.00    -0.276 OA
ATOM      7  N   UNL     1      14.672   9.968  23.397  0.00  0.00    -0.314 N 
ATOM     21  C   UNL     1      14.874  11.349  23.408  0.00  0.00    +0.213 C 
ATOM     30  H   UNL     1      14.679   9.457  24.274  0.00  0.00    +0.149 HD
BRANCH  21  23
ATOM     23  C   UNL     1      14.999  11.897  24.819  0.00  0.00    +0.096 C 
BRANCH  23  24
ATOM     24  C   UNL     1      13.657  12.165  25.496  0.00  0.00    +0.020 C 
BRANCH  24  26
ATOM     26  C   UNL     1      12.559  12.520  24.493  0.00  0.00    +0.121 C 
BRANCH  26  29
ATOM      4  O   UNL     1      10.144  12.214  24.565  0.00  0.00    -0.251 OA
ATOM     29  C   UNL     1      11.268  11.789  24.789  0.00  0.00    +0.305 C 
BRANCH  29   3
ATOM      3  O   UNL     1      11.504  10.573  25.348  0.00  0.00    -0.481 OA
ATOM     31  H   UNL     1      10.933   9.876  24.960  0.00  0.00    +0.295 HD
ENDBRANCH  29   3
ENDBRANCH  26  29
ENDBRANCH  24  26
ENDBRANCH  23  24
ENDBRANCH  21  23
ENDBRANCH  17   7
ENDBRANCH  11  17
TORSDOF 9
ENDMDL
MODEL 3
REMARK VINA RESULT:      -6.8     27.290     29.439
REMARK  Name = 40779355
REMARK  10 active torsions:
REMARK  status: ('A' for Active; 'I' for Inactive)
REMARK    1  A    between atoms: O_3  and  C_29
REMARK    2  A    between atoms: N_6  and  C_20
REMARK    3  A    between atoms: N_7  and  C_17
REMARK    4  A    between atoms: C_10  and  C_16
REMARK    5  A    between atoms: C_11  and  C_17
REMARK    6  A    between atoms: C_19  and  C_22
REMARK    7  A    between atoms: C_21  and  C_23
REMARK    8  A    between atoms: C_23  and  C_24
REMARK    9  A    between atoms: C_24  and  C_26
REMARK   10  A    between atoms: C_26  and  C_29
REMARK                            x       y       z     vdW  Elec       q    Type
REMARK                         _______ _______ _______ _____ _____    ______ ____
ROOT
ATOM      5  N   UNL     1      -5.438 -10.720  18.216  0.00  0.00    -0.297 NA
ATOM      9  C   UNL     1      -5.520 -12.505  16.321  0.00  0.00    +0.002 C 
ATOM     10  C   UNL     1      -4.272 -11.595  16.157  0.00  0.00    +0.055 C 
ATOM     11  C   UNL     1      -6.785 -10.730  17.586  0.00  0.00    +0.074 C 
ATOM     12  C   UNL     1      -6.792 -11.630  16.331  0.00  0.00    +0.024 C 
ATOM     13  C   UNL     1      -5.411 -13.163  17.713  0.00  0.00    +0.019 C 
ATOM     14  C   UNL     1      -4.400 -10.441  17.192  0.00  0.00    +0.094 C 
ATOM     15  C   UNL     1      -5.187 -12.070  18.774  0.00  0.00    +0.085 C 
ENDROOT
BRANCH  10  16
ATOM      6  N   UNL     1      -2.662 -11.064  14.268  0.00  0.00    -0.270 N 
ATOM      8  N   UNL     1      -2.573 -10.576  13.019  0.00  0.00    -0.171 NA
ATOM     16  C   UNL     1      -3.933 -11.085  14.764  0.00  0.00    +0.044 A 
ATOM     18  C   UNL     1      -4.732 -10.575  13.769  0.00  0.00    +0.053 A 
ATOM     19  C   UNL     1      -3.841 -10.279  12.720  0.00  0.00    +0.100 A 
ATOM     20  C   UNL     1      -1.461 -11.502  14.940  0.00  0.00    +0.172 C 
BRANCH  19  22
ATOM      1  S   UNL     1      -5.767  -9.064  11.073  0.00  0.00    -0.095 S 
ATOM     22  C   UNL     1      -4.216  -9.705  11.415  0.00  0.00    +0.039 A 
ATOM     25  C   UNL     1      -3.371  -9.619  10.331  0.00  0.00    +0.018 A 
ATOM     27  C   UNL     1      -4.004  -9.019   9.204  0.00  0.00    +0.008 A 
ATOM     28  C   UNL     1      -5.309  -8.669   9.470  0.00  0.00    +0.046 A 
ENDBRANCH  19  22
ENDBRANCH  10  16
BRANCH  11  17
ATOM     17  C   UNL     1      -7.296  -9.321  17.279  0.00  0.00    +0.123 C 
BRANCH  17   7
ATOM      2  O   UNL     1      -9.557  -8.437  15.748  0.00  0.00    -0.276 OA
ATOM      7  N   UNL     1      -8.634  -9.149  17.756  0.00  0.00    -0.314 N 
ATOM     21  C   UNL     1      -9.676  -8.713  16.938  0.00  0.00    +0.213 C 
ATOM     30  H   UNL     1      -8.803  -9.287  18.748  0.00  0.00    +0.149 HD
BRANCH  21  23
ATOM     23  C   UNL     1     -10.985  -8.588  17.698  0.00  0.00    +0.096 C 
BRANCH  23  24
ATOM     24  C   UNL     1     -11.533  -9.921  18.202  0.00  0.00    +0.020 C 
BRANCH  24  26
ATOM     26  C   UNL     1     -11.531 -10.012  19.729  0.00  0.00    +0.121 C 
BRANCH  26  29
ATOM      4  O   UNL     1      -9.282 -10.862  20.112  0.00  0.00    -0.251 OA
ATOM     29  C   UNL     1     -10.492 -10.988  20.233  0.00  0.00    +0.305 C 
BRANCH  29   3
ATOM      3  O   UNL     1     -11.070 -12.050  20.853  0.00  0.00    -0.481 OA
ATOM     31  H   UNL     1     -10.872 -12.064  21.814  0.00  0.00    +0.295 HD
ENDBRANCH  29   3
ENDBRANCH  26  29
ENDBRANCH  24  26
ENDBRANCH  23  24
ENDBRANCH  21  23
ENDBRANCH  17   7
ENDBRANCH  11  17
TORSDOF 9
ENDMDL
MODEL 4
REMARK VINA RESULT:      -6.8     26.993     29.218
REMARK  Name = 40779355
REMARK  10 active torsions:
REMARK  status: ('A' for Active; 'I' for Inactive)
REMARK    1  A    between atoms: O_3  and  C_29
REMARK    2  A    between atoms: N_6  and  C_20
REMARK    3  A    between atoms: N_7  and  C_17
REMARK    4  A    between atoms: C_10  and  C_16
REMARK    5  A    between atoms: C_11  and  C_17
REMARK    6  A    between atoms: C_19  and  C_22
REMARK    7  A    between atoms: C_21  and  C_23
REMARK    8  A    between atoms: C_23  and  C_24
REMARK    9  A    between atoms: C_24  and  C_26
REMARK   10  A    between atoms: C_26  and  C_29
REMARK                            x       y       z     vdW  Elec       q    Type
REMARK                         _______ _______ _______ _____ _____    ______ ____
ROOT
ATOM      5  N   UNL     1      -5.269 -10.909  18.255  0.00  0.00    -0.297 NA
ATOM      9  C   UNL     1      -5.494 -12.591  16.279  0.00  0.00    +0.002 C 
ATOM     10  C   UNL     1      -4.196 -11.751  16.132  0.00  0.00    +0.055 C 
ATOM     11  C   UNL     1      -6.625 -10.807  17.652  0.00  0.00    +0.074 C 
ATOM     12  C   UNL     1      -6.709 -11.643  16.357  0.00  0.00    +0.024 C 
ATOM     13  C   UNL     1      -5.401 -13.321  17.636  0.00  0.00    +0.019 C 
ATOM     14  C   UNL     1      -4.234 -10.644  17.224  0.00  0.00    +0.094 C 
ATOM     15  C   UNL     1      -5.091 -12.298  18.743  0.00  0.00    +0.085 C 
ENDROOT
BRANCH  10  16
ATOM      6  N   UNL     1      -2.569 -10.996  14.337  0.00  0.00    -0.270 N 
ATOM      8  N   UNL     1      -2.477 -10.498  13.093  0.00  0.00    -0.171 NA
ATOM     16  C   UNL     1      -3.851 -11.196  14.758  0.00  0.00    +0.044 A 
ATOM     18  C   UNL     1      -4.654 -10.802  13.716  0.00  0.00    +0.053 A 
ATOM     19  C   UNL     1      -3.754 -10.381  12.718  0.00  0.00    +0.100 A 
ATOM     20  C   UNL     1      -1.359 -11.262  15.081  0.00  0.00    +0.172 C 
BRANCH  19  22
ATOM      1  S   UNL     1      -5.747  -9.762  10.835  0.00  0.00    -0.095 S 
ATOM     22  C   UNL     1      -4.129  -9.863  11.390  0.00  0.00    +0.039 A 
ATOM     25  C   UNL     1      -3.231  -9.406  10.452  0.00  0.00    +0.018 A 
ATOM     27  C   UNL     1      -3.878  -8.965   9.261  0.00  0.00    +0.008 A 
ATOM     28  C   UNL     1      -5.247  -9.104   9.335  0.00  0.00    +0.046 A 
ENDBRANCH  19  22
ENDBRANCH  10  16
BRANCH  11  17
ATOM     17  C   UNL     1      -7.054  -9.356  17.424  0.00  0.00    +0.123 C 
BRANCH  17   7
ATOM      2  O   UNL     1      -9.228  -8.838  15.624  0.00  0.00    -0.276 OA
ATOM      7  N   UNL     1      -8.427  -9.169  17.779  0.00  0.00    -0.314 N 
ATOM     21  C   UNL     1      -9.423  -8.920  16.834  0.00  0.00    +0.213 C 
ATOM     30  H   UNL     1      -8.661  -9.150  18.766  0.00  0.00    +0.149 HD
BRANCH  21  23
ATOM     23  C   UNL     1     -10.786  -8.731  17.477  0.00  0.00    +0.096 C 
BRANCH  23  24
ATOM     24  C   UNL     1     -11.776  -7.962  16.605  0.00  0.00    +0.020 C 
BRANCH  24  26
ATOM     26  C   UNL     1     -11.566  -6.449  16.682  0.00  0.00    +0.121 C 
BRANCH  26  29
ATOM      4  O   UNL     1     -11.768  -5.544  14.430  0.00  0.00    -0.251 OA
ATOM     29  C   UNL     1     -11.065  -5.883  15.372  0.00  0.00    +0.305 C 
BRANCH  29   3
ATOM      3  O   UNL     1      -9.710  -5.789  15.358  0.00  0.00    -0.481 OA
ATOM     31  H   UNL     1      -9.363  -5.392  16.185  0.00  0.00    +0.295 HD
ENDBRANCH  29   3
ENDBRANCH  26  29
ENDBRANCH  24  26
ENDBRANCH  23  24
ENDBRANCH  21  23
ENDBRANCH  17   7
ENDBRANCH  11  17
TORSDOF 9
ENDMDL
MODEL 5
REMARK VINA RESULT:      -6.6     26.636     29.463
REMARK  Name = 40779355
REMARK  10 active torsions:
REMARK  status: ('A' for Active; 'I' for Inactive)
REMARK    1  A    between atoms: O_3  and  C_29
REMARK    2  A    between atoms: N_6  and  C_20
REMARK    3  A    between atoms: N_7  and  C_17
REMARK    4  A    between atoms: C_10  and  C_16
REMARK    5  A    between atoms: C_11  and  C_17
REMARK    6  A    between atoms: C_19  and  C_22
REMARK    7  A    between atoms: C_21  and  C_23
REMARK    8  A    between atoms: C_23  and  C_24
REMARK    9  A    between atoms: C_24  and  C_26
REMARK   10  A    between atoms: C_26  and  C_29
REMARK                            x       y       z     vdW  Elec       q    Type
REMARK                         _______ _______ _______ _____ _____    ______ ____
ROOT
ATOM      5  N   UNL     1      -6.377 -10.469  17.752  0.00  0.00    -0.297 NA
ATOM      9  C   UNL     1      -4.457 -12.095  17.079  0.00  0.00    +0.002 C 
ATOM     10  C   UNL     1      -4.224 -10.691  16.456  0.00  0.00    +0.055 C 
ATOM     11  C   UNL     1      -6.946 -11.738  17.226  0.00  0.00    +0.074 C 
ATOM     12  C   UNL     1      -5.834 -12.628  16.631  0.00  0.00    +0.024 C 
ATOM     13  C   UNL     1      -4.521 -11.898  18.608  0.00  0.00    +0.019 C 
ATOM     14  C   UNL     1      -5.499  -9.844  16.731  0.00  0.00    +0.094 C 
ATOM     15  C   UNL     1      -5.547 -10.799  18.936  0.00  0.00    +0.085 C 
ENDROOT
BRANCH  10  16
ATOM      6  N   UNL     1      -2.473 -10.555  14.624  0.00  0.00    -0.270 N 
ATOM      8  N   UNL     1      -2.293 -10.491  13.294  0.00  0.00    -0.171 NA
ATOM     16  C   UNL     1      -3.782 -10.614  15.002  0.00  0.00    +0.044 A 
ATOM     18  C   UNL     1      -4.511 -10.586  13.837  0.00  0.00    +0.053 A 
ATOM     19  C   UNL     1      -3.542 -10.510  12.818  0.00  0.00    +0.100 A 
ATOM     20  C   UNL     1      -1.317 -10.557  15.491  0.00  0.00    +0.172 C 
BRANCH  19  22
ATOM      1  S   UNL     1      -4.212 -11.834  10.432  0.00  0.00    -0.095 S 
ATOM     22  C   UNL     1      -3.822 -10.457  11.372  0.00  0.00    +0.039 A 
ATOM     25  C   UNL     1      -3.803  -9.304  10.618  0.00  0.00    +0.018 A 
ATOM     27  C   UNL     1      -4.113  -9.555   9.250  0.00  0.00    +0.008 A 
ATOM     28  C   UNL     1      -4.357 -10.889   9.011  0.00  0.00    +0.046 A 
ENDBRANCH  19  22
ENDBRANCH  10  16
BRANCH  11  17
ATOM     17  C   UNL     1      -8.080 -11.498  16.226  0.00  0.00    +0.123 C 
BRANCH  17   7
ATOM      2  O   UNL     1     -10.604 -12.420  17.233  0.00  0.00    -0.276 OA
ATOM      7  N   UNL     1      -9.110 -10.694  16.807  0.00  0.00    -0.314 N 
ATOM     21  C   UNL     1     -10.312 -11.228  17.272  0.00  0.00    +0.213 C 
ATOM     30  H   UNL     1      -8.978  -9.687  16.812  0.00  0.00    +0.149 HD
BRANCH  21  23
ATOM     23  C   UNL     1     -11.242 -10.157  17.814  0.00  0.00    +0.096 C 
BRANCH  23  24
ATOM     24  C   UNL     1     -10.669  -8.744  17.730  0.00  0.00    +0.020 C 
BRANCH  24  26
ATOM     26  C   UNL     1     -11.313  -7.920  16.614  0.00  0.00    +0.121 C 
BRANCH  26  29
ATOM      4  O   UNL     1     -10.344  -5.984  15.499  0.00  0.00    -0.251 OA
ATOM     29  C   UNL     1     -10.281  -7.166  15.804  0.00  0.00    +0.305 C 
BRANCH  29   3
ATOM      3  O   UNL     1      -9.249  -7.972  15.443  0.00  0.00    -0.481 OA
ATOM     31  H   UNL     1      -8.718  -7.582  14.716  0.00  0.00    +0.295 HD
ENDBRANCH  29   3
ENDBRANCH  26  29
ENDBRANCH  24  26
ENDBRANCH  23  24
ENDBRANCH  21  23
ENDBRANCH  17   7
ENDBRANCH  11  17
TORSDOF 9
ENDMDL
MODEL 6
REMARK VINA RESULT:      -6.4     16.503     19.321
REMARK  Name = 40779355
REMARK  10 active torsions:
REMARK  status: ('A' for Active; 'I' for Inactive)
REMARK    1  A    between atoms: O_3  and  C_29
REMARK    2  A    between atoms: N_6  and  C_20
REMARK    3  A    between atoms: N_7  and  C_17
REMARK    4  A    between atoms: C_10  and  C_16
REMARK    5  A    between atoms: C_11  and  C_17
REMARK    6  A    between atoms: C_19  and  C_22
REMARK    7  A    between atoms: C_21  and  C_23
REMARK    8  A    between atoms: C_23  and  C_24
REMARK    9  A    between atoms: C_24  and  C_26
REMARK   10  A    between atoms: C_26  and  C_29
REMARK                            x       y       z     vdW  Elec       q    Type
REMARK                         _______ _______ _______ _____ _____    ______ ____
ROOT
ATOM      5  N   UNL     1      13.431   5.753   1.628  0.00  0.00    -0.297 NA
ATOM      9  C   UNL     1      12.614   3.407   0.847  0.00  0.00    +0.002 C 
ATOM     10  C   UNL     1      12.675   4.389  -0.355  0.00  0.00    +0.055 C 
ATOM     11  C   UNL     1      12.327   5.281   2.506  0.00  0.00    +0.074 C 
ATOM     12  C   UNL     1      11.693   3.994   1.937  0.00  0.00    +0.024 C 
ATOM     13  C   UNL     1      14.036   3.341   1.442  0.00  0.00    +0.019 C 
ATOM     14  C   UNL     1      12.972   5.804   0.218  0.00  0.00    +0.094 C 
ATOM     15  C   UNL     1      14.536   4.769   1.720  0.00  0.00    +0.085 C 
ENDROOT
BRANCH  10  16
ATOM      6  N   UNL     1      11.224   3.342  -2.154  0.00  0.00    -0.270 N 
ATOM      8  N   UNL     1      10.160   3.547  -2.949  0.00  0.00    -0.171 NA
ATOM     16  C   UNL     1      11.514   4.396  -1.339  0.00  0.00    +0.044 A 
ATOM     18  C   UNL     1      10.575   5.358  -1.620  0.00  0.00    +0.053 A 
ATOM     19  C   UNL     1       9.768   4.781  -2.619  0.00  0.00    +0.100 A 
ATOM     20  C   UNL     1      11.929   2.083  -2.231  0.00  0.00    +0.172 C 
BRANCH  19  22
ATOM      1  S   UNL     1       8.069   5.046  -4.842  0.00  0.00    -0.095 S 
ATOM     22  C   UNL     1       8.607   5.423  -3.259  0.00  0.00    +0.039 A 
ATOM     25  C   UNL     1       7.828   6.392  -2.666  0.00  0.00    +0.018 A 
ATOM     27  C   UNL     1       6.776   6.831  -3.520  0.00  0.00    +0.008 A 
ATOM     28  C   UNL     1       6.790   6.181  -4.735  0.00  0.00    +0.046 A 
ENDBRANCH  19  22
ENDBRANCH  10  16
BRANCH  11  17
ATOM     17  C   UNL     1      11.280   6.368   2.761  0.00  0.00    +0.123 C 
BRANCH  17   7
ATOM      2  O   UNL     1      10.411   5.104   5.186  0.00  0.00    -0.276 OA
ATOM      7  N   UNL     1      11.403   6.892   4.086  0.00  0.00    -0.314 N 
ATOM     21  C   UNL     1      10.950   6.206   5.213  0.00  0.00    +0.213 C 
ATOM     30  H   UNL     1      11.773   7.832   4.190  0.00  0.00    +0.149 HD
BRANCH  21  23
ATOM     23  C   UNL     1      11.175   6.996   6.491  0.00  0.00    +0.096 C 
BRANCH  23  24
ATOM     24  C   UNL     1      11.173   6.137   7.754  0.00  0.00    +0.020 C 
BRANCH  24  26
ATOM     26  C   UNL     1       9.785   6.035   8.387  0.00  0.00    +0.121 C 
BRANCH  26  29
ATOM      4  O   UNL     1       8.839   4.495  10.019  0.00  0.00    -0.251 OA
ATOM     29  C   UNL     1       9.569   4.698   9.060  0.00  0.00    +0.305 C 
BRANCH  29   3
ATOM      3  O   UNL     1      10.298   3.719   8.461  0.00  0.00    -0.481 OA
ATOM     31  H   UNL     1      11.216   4.009   8.276  0.00  0.00    +0.295 HD
ENDBRANCH  29   3
ENDBRANCH  26  29
ENDBRANCH  24  26
ENDBRANCH  23  24
ENDBRANCH  21  23
ENDBRANCH  17   7
ENDBRANCH  11  17
TORSDOF 9
ENDMDL
MODEL 7
REMARK VINA RESULT:      -6.3     27.205     29.345
REMARK  Name = 40779355
REMARK  10 active torsions:
REMARK  status: ('A' for Active; 'I' for Inactive)
REMARK    1  A    between atoms: O_3  and  C_29
REMARK    2  A    between atoms: N_6  and  C_20
REMARK    3  A    between atoms: N_7  and  C_17
REMARK    4  A    between atoms: C_10  and  C_16
REMARK    5  A    between atoms: C_11  and  C_17
REMARK    6  A    between atoms: C_19  and  C_22
REMARK    7  A    between atoms: C_21  and  C_23
REMARK    8  A    between atoms: C_23  and  C_24
REMARK    9  A    between atoms: C_24  and  C_26
REMARK   10  A    between atoms: C_26  and  C_29
REMARK                            x       y       z     vdW  Elec       q    Type
REMARK                         _______ _______ _______ _____ _____    ______ ____
ROOT
ATOM      5  N   UNL     1      -5.341 -12.294  16.475  0.00  0.00    -0.297 NA
ATOM      9  C   UNL     1      -5.922 -10.908  18.603  0.00  0.00    +0.002 C 
ATOM     10  C   UNL     1      -7.213 -11.489  17.964  0.00  0.00    +0.055 C 
ATOM     11  C   UNL     1      -4.680 -10.963  16.411  0.00  0.00    +0.074 C 
ATOM     12  C   UNL     1      -5.175 -10.054  17.556  0.00  0.00    +0.024 C 
ATOM     13  C   UNL     1      -5.013 -12.109  18.940  0.00  0.00    +0.019 C 
ATOM     14  C   UNL     1      -6.811 -12.125  16.602  0.00  0.00    +0.094 C 
ATOM     15  C   UNL     1      -4.849 -12.988  17.688  0.00  0.00    +0.085 C 
ENDROOT
BRANCH  10  16
ATOM      6  N   UNL     1      -9.477 -10.618  18.709  0.00  0.00    -0.270 N 
ATOM      8  N   UNL     1     -10.450  -9.735  18.427  0.00  0.00    -0.171 NA
ATOM     16  C   UNL     1      -8.427 -10.580  17.840  0.00  0.00    +0.044 A 
ATOM     18  C   UNL     1      -8.733  -9.603  16.924  0.00  0.00    +0.053 A 
ATOM     19  C   UNL     1      -9.989  -9.118  17.335  0.00  0.00    +0.100 A 
ATOM     20  C   UNL     1      -9.626 -11.487  19.854  0.00  0.00    +0.172 C 
BRANCH  19  22
ATOM      1  S   UNL     1     -12.458  -8.062  16.504  0.00  0.00    -0.095 S 
ATOM     22  C   UNL     1     -10.753  -8.047  16.669  0.00  0.00    +0.039 A 
ATOM     25  C   UNL     1     -10.189  -6.922  16.108  0.00  0.00    +0.018 A 
ATOM     27  C   UNL     1     -11.170  -6.061  15.535  0.00  0.00    +0.008 A 
ATOM     28  C   UNL     1     -12.445  -6.561  15.680  0.00  0.00    +0.046 A 
ENDBRANCH  19  22
ENDBRANCH  10  16
BRANCH  11  17
ATOM     17  C   UNL     1      -4.842 -10.296  15.043  0.00  0.00    +0.123 C 
BRANCH  17   7
ATOM      2  O   UNL     1      -2.002 -10.091  14.689  0.00  0.00    -0.276 OA
ATOM      7  N   UNL     1      -4.057 -10.967  14.054  0.00  0.00    -0.314 N 
ATOM     21  C   UNL     1      -2.674 -10.808  13.953  0.00  0.00    +0.213 C 
ATOM     30  H   UNL     1      -4.546 -11.524  13.360  0.00  0.00    +0.149 HD
BRANCH  21  23
ATOM     23  C   UNL     1      -2.090 -11.607  12.801  0.00  0.00    +0.096 C 
BRANCH  23  24
ATOM     24  C   UNL     1      -2.782 -11.356  11.464  0.00  0.00    +0.020 C 
BRANCH  24  26
ATOM     26  C   UNL     1      -2.581  -9.924  10.964  0.00  0.00    +0.121 C 
BRANCH  26  29
ATOM      4  O   UNL     1      -4.037  -8.796   9.371  0.00  0.00    -0.251 OA
ATOM     29  C   UNL     1      -3.873  -9.316  10.465  0.00  0.00    +0.305 C 
BRANCH  29   3
ATOM      3  O   UNL     1      -4.859  -9.414  11.395  0.00  0.00    -0.481 OA
ATOM     31  H   UNL     1      -5.693  -9.758  11.009  0.00  0.00    +0.295 HD
ENDBRANCH  29   3
ENDBRANCH  26  29
ENDBRANCH  24  26
ENDBRANCH  23  24
ENDBRANCH  21  23
ENDBRANCH  17   7
ENDBRANCH  11  17
TORSDOF 9
ENDMDL
MODEL 8
REMARK VINA RESULT:      -6.1     28.099     30.599
REMARK  Name = 40779355
REMARK  10 active torsions:
REMARK  status: ('A' for Active; 'I' for Inactive)
REMARK    1  A    between atoms: O_3  and  C_29
REMARK    2  A    between atoms: N_6  and  C_20
REMARK    3  A    between atoms: N_7  and  C_17
REMARK    4  A    between atoms: C_10  and  C_16
REMARK    5  A    between atoms: C_11  and  C_17
REMARK    6  A    between atoms: C_19  and  C_22
REMARK    7  A    between atoms: C_21  and  C_23
REMARK    8  A    between atoms: C_23  and  C_24
REMARK    9  A    between atoms: C_24  and  C_26
REMARK   10  A    between atoms: C_26  and  C_29
REMARK                            x       y       z     vdW  Elec       q    Type
REMARK                         _______ _______ _______ _____ _____    ______ ____
ROOT
ATOM      5  N   UNL     1     -10.421 -10.606  16.464  0.00  0.00    -0.297 NA
ATOM      9  C   UNL     1     -11.263  -8.390  17.542  0.00  0.00    +0.002 C 
ATOM     10  C   UNL     1     -12.157  -8.780  16.334  0.00  0.00    +0.055 C 
ATOM     11  C   UNL     1      -9.287  -9.659  16.630  0.00  0.00    +0.074 C 
ATOM     12  C   UNL     1      -9.797  -8.272  17.074  0.00  0.00    +0.024 C 
ATOM     13  C   UNL     1     -11.326  -9.565  18.541  0.00  0.00    +0.019 C 
ATOM     14  C   UNL     1     -11.479  -9.988  15.626  0.00  0.00    +0.094 C 
ATOM     15  C   UNL     1     -10.990 -10.875  17.806  0.00  0.00    +0.085 C 
ENDROOT
BRANCH  10  16
ATOM      6  N   UNL     1     -13.751  -7.029  15.421  0.00  0.00    -0.270 N 
ATOM      8  N   UNL     1     -13.914  -6.100  14.464  0.00  0.00    -0.171 NA
ATOM     16  C   UNL     1     -12.559  -7.688  15.354  0.00  0.00    +0.044 A 
ATOM     18  C   UNL     1     -11.895  -7.153  14.276  0.00  0.00    +0.053 A 
ATOM     19  C   UNL     1     -12.777  -6.181  13.767  0.00  0.00    +0.100 A 
ATOM     20  C   UNL     1     -14.803  -7.234  16.390  0.00  0.00    +0.172 C 
BRANCH  19  22
ATOM      1  S   UNL     1     -12.388  -5.913  10.997  0.00  0.00    -0.095 S 
ATOM     22  C   UNL     1     -12.521  -5.320  12.599  0.00  0.00    +0.039 A 
ATOM     25  C   UNL     1     -12.360  -3.954  12.659  0.00  0.00    +0.018 A 
ATOM     27  C   UNL     1     -12.124  -3.385  11.374  0.00  0.00    +0.008 A 
ATOM     28  C   UNL     1     -12.114  -4.339  10.380  0.00  0.00    +0.046 A 
ENDBRANCH  19  22
ENDBRANCH  10  16
BRANCH  11  17
ATOM     17  C   UNL     1      -8.411  -9.572  15.378  0.00  0.00    +0.123 C 
BRANCH  17   7
ATOM      2  O   UNL     1      -6.631 -11.793  15.016  0.00  0.00    -0.276 OA
ATOM      7  N   UNL     1      -7.024  -9.616  15.722  0.00  0.00    -0.314 N 
ATOM     21  C   UNL     1      -6.230 -10.743  15.511  0.00  0.00    +0.213 C 
ATOM     30  H   UNL     1      -6.630  -8.812  16.202  0.00  0.00    +0.149 HD
BRANCH  21  23
ATOM     23  C   UNL     1      -4.803 -10.536  15.991  0.00  0.00    +0.096 C 
BRANCH  23  24
ATOM     24  C   UNL     1      -4.693 -10.259  17.489  0.00  0.00    +0.020 C 
BRANCH  24  26
ATOM     26  C   UNL     1      -5.308 -11.374  18.334  0.00  0.00    +0.121 C 
BRANCH  26  29
ATOM      4  O   UNL     1      -6.157 -11.204  20.610  0.00  0.00    -0.251 OA
ATOM     29  C   UNL     1      -6.172 -10.826  19.448  0.00  0.00    +0.305 C 
BRANCH  29   3
ATOM      3  O   UNL     1      -6.989  -9.837  19.000  0.00  0.00    -0.481 OA
ATOM     31  H   UNL     1      -7.669  -9.595  19.665  0.00  0.00    +0.295 HD
ENDBRANCH  29   3
ENDBRANCH  26  29
ENDBRANCH  24  26
ENDBRANCH  23  24
ENDBRANCH  21  23
ENDBRANCH  17   7
ENDBRANCH  11  17
TORSDOF 9
ENDMDL
MODEL 9
REMARK VINA RESULT:      -6.1     27.870     29.433
REMARK  Name = 40779355
REMARK  10 active torsions:
REMARK  status: ('A' for Active; 'I' for Inactive)
REMARK    1  A    between atoms: O_3  and  C_29
REMARK    2  A    between atoms: N_6  and  C_20
REMARK    3  A    between atoms: N_7  and  C_17
REMARK    4  A    between atoms: C_10  and  C_16
REMARK    5  A    between atoms: C_11  and  C_17
REMARK    6  A    between atoms: C_19  and  C_22
REMARK    7  A    between atoms: C_21  and  C_23
REMARK    8  A    between atoms: C_23  and  C_24
REMARK    9  A    between atoms: C_24  and  C_26
REMARK   10  A    between atoms: C_26  and  C_29
REMARK                            x       y       z     vdW  Elec       q    Type
REMARK                         _______ _______ _______ _____ _____    ______ ____
ROOT
ATOM      5  N   UNL     1      -3.716 -10.316  12.041  0.00  0.00    -0.297 NA
ATOM      9  C   UNL     1      -5.023 -11.600  10.190  0.00  0.00    +0.002 C 
ATOM     10  C   UNL     1      -4.799 -10.121   9.770  0.00  0.00    +0.055 C 
ATOM     11  C   UNL     1      -4.865 -11.044  12.642  0.00  0.00    +0.074 C 
ATOM     12  C   UNL     1      -5.768 -11.639  11.540  0.00  0.00    +0.024 C 
ATOM     13  C   UNL     1      -3.626 -12.213  10.425  0.00  0.00    +0.019 C 
ATOM     14  C   UNL     1      -4.200  -9.377  10.998  0.00  0.00    +0.094 C 
ATOM     15  C   UNL     1      -2.834 -11.315  11.392  0.00  0.00    +0.085 C 
ENDROOT
BRANCH  10  16
ATOM      6  N   UNL     1      -6.279  -9.441   7.824  0.00  0.00    -0.270 N 
ATOM      8  N   UNL     1      -7.342  -8.698   7.474  0.00  0.00    -0.171 NA
ATOM     16  C   UNL     1      -5.964  -9.366   9.149  0.00  0.00    +0.044 A 
ATOM     18  C   UNL     1      -6.887  -8.513   9.706  0.00  0.00    +0.053 A 
ATOM     19  C   UNL     1      -7.709  -8.133   8.628  0.00  0.00    +0.100 A 
ATOM     20  C   UNL     1      -5.598 -10.217   6.813  0.00  0.00    +0.172 C 
BRANCH  19  22
ATOM      1  S   UNL     1     -10.402  -7.685   9.296  0.00  0.00    -0.095 S 
ATOM     22  C   UNL     1      -8.861  -7.218   8.711  0.00  0.00    +0.039 A 
ATOM     25  C   UNL     1      -8.832  -5.894   8.332  0.00  0.00    +0.018 A 
ATOM     27  C   UNL     1     -10.091  -5.254   8.524  0.00  0.00    +0.008 A 
ATOM     28  C   UNL     1     -11.034  -6.114   9.043  0.00  0.00    +0.046 A 
ENDBRANCH  19  22
ENDBRANCH  10  16
BRANCH  11  17
ATOM     17  C   UNL     1      -5.658 -10.176  13.622  0.00  0.00    +0.123 C 
BRANCH  17   7
ATOM      2  O   UNL     1      -5.853 -11.967  15.854  0.00  0.00    -0.276 OA
ATOM      7  N   UNL     1      -4.971 -10.058  14.870  0.00  0.00    -0.314 N 
ATOM     21  C   UNL     1      -5.126 -10.980  15.906  0.00  0.00    +0.213 C 
ATOM     30  H   UNL     1      -4.403  -9.230  15.021  0.00  0.00    +0.149 HD
BRANCH  21  23
ATOM     23  C   UNL     1      -4.307 -10.607  17.130  0.00  0.00    +0.096 C 
BRANCH  23  24
ATOM     24  C   UNL     1      -4.732 -11.339  18.401  0.00  0.00    +0.020 C 
BRANCH  24  26
ATOM     26  C   UNL     1      -5.801 -10.574  19.184  0.00  0.00    +0.121 C 
BRANCH  26  29
ATOM      4  O   UNL     1      -7.239 -12.525  18.951  0.00  0.00    -0.251 OA
ATOM     29  C   UNL     1      -7.084 -11.365  19.304  0.00  0.00    +0.305 C 
BRANCH  29   3
ATOM      3  O   UNL     1      -8.073 -10.622  19.866  0.00  0.00    -0.481 OA
ATOM     31  H   UNL     1      -7.917  -9.660  19.751  0.00  0.00    +0.295 HD
ENDBRANCH  29   3
ENDBRANCH  26  29
ENDBRANCH  24  26
ENDBRANCH  23  24
ENDBRANCH  21  23
ENDBRANCH  17   7
ENDBRANCH  11  17
TORSDOF 9
ENDMDL
MODEL 10
REMARK VINA RESULT:      -6.1      3.747      7.167
REMARK  Name = 40779355
REMARK  10 active torsions:
REMARK  status: ('A' for Active; 'I' for Inactive)
REMARK    1  A    between atoms: O_3  and  C_29
REMARK    2  A    between atoms: N_6  and  C_20
REMARK    3  A    between atoms: N_7  and  C_17
REMARK    4  A    between atoms: C_10  and  C_16
REMARK    5  A    between atoms: C_11  and  C_17
REMARK    6  A    between atoms: C_19  and  C_22
REMARK    7  A    between atoms: C_21  and  C_23
REMARK    8  A    between atoms: C_23  and  C_24
REMARK    9  A    between atoms: C_24  and  C_26
REMARK   10  A    between atoms: C_26  and  C_29
REMARK                            x       y       z     vdW  Elec       q    Type
REMARK                         _______ _______ _______ _____ _____    ______ ____
ROOT
ATOM      5  N   UNL     1      14.083  12.535  18.007  0.00  0.00    -0.297 NA
ATOM      9  C   UNL     1      14.119  12.565  20.611  0.00  0.00    +0.002 C 
ATOM     10  C   UNL     1      15.566  12.522  20.048  0.00  0.00    +0.055 C 
ATOM     11  C   UNL     1      13.164  11.495  18.540  0.00  0.00    +0.074 C 
ATOM     12  C   UNL     1      13.325  11.357  20.069  0.00  0.00    +0.024 C 
ATOM     13  C   UNL     1      13.456  13.836  20.039  0.00  0.00    +0.019 C 
ATOM     14  C   UNL     1      15.460  12.302  18.512  0.00  0.00    +0.094 C 
ATOM     15  C   UNL     1      13.622  13.851  18.509  0.00  0.00    +0.085 C 
ENDROOT
BRANCH  10  16
ATOM      6  N   UNL     1      17.463  11.974  21.642  0.00  0.00    -0.270 N 
ATOM      8  N   UNL     1      18.255  10.986  22.092  0.00  0.00    -0.171 NA
ATOM     16  C   UNL     1      16.563  11.574  20.699  0.00  0.00    +0.044 A 
ATOM     18  C   UNL     1      16.781  10.230  20.518  0.00  0.00    +0.053 A 
ATOM     19  C   UNL     1      17.834   9.923  21.401  0.00  0.00    +0.100 A 
ATOM     20  C   UNL     1      17.629  13.307  22.175  0.00  0.00    +0.172 C 
BRANCH  19  22
ATOM      1  S   UNL     1      19.717   8.272  22.677  0.00  0.00    -0.095 S 
ATOM     22  C   UNL     1      18.439   8.591  21.582  0.00  0.00    +0.039 A 
ATOM     25  C   UNL     1      18.050   7.460  20.899  0.00  0.00    +0.018 A 
ATOM     27  C   UNL     1      18.810   6.316  21.278  0.00  0.00    +0.008 A 
ATOM     28  C   UNL     1      19.752   6.617  22.237  0.00  0.00    +0.046 A 
ENDBRANCH  19  22
ENDBRANCH  10  16
BRANCH  11  17
ATOM     17  C   UNL     1      13.327  10.150  17.826  0.00  0.00    +0.123 C 
BRANCH  17   7
ATOM      2  O   UNL     1      13.428   7.337  17.270  0.00  0.00    -0.276 OA
ATOM      7  N   UNL     1      13.606   9.107  18.763  0.00  0.00    -0.314 N 
ATOM     21  C   UNL     1      13.634   7.759  18.404  0.00  0.00    +0.213 C 
ATOM     30  H   UNL     1      13.719   9.365  19.739  0.00  0.00    +0.149 HD
BRANCH  21  23
ATOM     23  C   UNL     1      13.925   6.857  19.592  0.00  0.00    +0.096 C 
BRANCH  23  24
ATOM     24  C   UNL     1      13.290   7.334  20.896  0.00  0.00    +0.020 C 
BRANCH  24  26
ATOM     26  C   UNL     1      11.867   6.805  21.079  0.00  0.00    +0.121 C 
BRANCH  26  29
ATOM      4  O   UNL     1      10.642   8.463  19.783  0.00  0.00    -0.251 OA
ATOM     29  C   UNL     1      10.831   7.880  20.841  0.00  0.00    +0.305 C 
BRANCH  29   3
ATOM      3  O   UNL     1      10.113   8.134  21.967  0.00  0.00    -0.481 OA
ATOM     31  H   UNL     1       9.537   8.921  21.862  0.00  0.00    +0.295 HD
ENDBRANCH  29   3
ENDBRANCH  26  29
ENDBRANCH  24  26
ENDBRANCH  23  24
ENDBRANCH  21  23
ENDBRANCH  17   7
ENDBRANCH  11  17
TORSDOF 9
ENDMDL
