MODEL 1
REMARK VINA RESULT:      -6.5      0.000      0.000
REMARK  Name = 11882853
REMARK  11 active torsions:
REMARK  status: ('A' for Active; 'I' for Inactive)
REMARK    1  A    between atoms: O_2  and  C_15
REMARK    2  A    between atoms: O_3  and  C_20
REMARK    3  A    between atoms: O_6  and  C_37
REMARK    4  A    between atoms: O_6  and  C_38
REMARK    5  A    between atoms: N_8  and  C_26
REMARK    6  A    between atoms: C_10  and  C_18
REMARK    7  A    between atoms: C_12  and  C_20
REMARK    8  A    between atoms: C_12  and  C_21
REMARK    9  A    between atoms: C_13  and  C_23
REMARK   10  A    between atoms: C_23  and  C_24
REMARK   11  A    between atoms: C_31  and  C_32
REMARK                            x       y       z     vdW  Elec       q    Type
REMARK                         _______ _______ _______ _____ _____    ______ ____
ROOT
ATOM      1  S   UNL     1      -9.706 -10.194  13.370  0.00  0.00    -0.057 S 
ATOM      5  O   UNL     1      -6.076  -9.041  10.692  0.00  0.00    -0.270 OA
ATOM      7  N   UNL     1      -7.125 -10.045  13.268  0.00  0.00    -0.229 NA
ATOM      9  N   UNL     1      -8.331  -9.361  11.298  0.00  0.00    -0.261 N 
ATOM     10  C   UNL     1      -7.054 -11.004  17.003  0.00  0.00    -0.019 C 
ATOM     11  C   UNL     1      -8.379 -11.879  16.884  0.00  0.00    +0.011 C 
ATOM     12  C   UNL     1      -8.959 -12.485  18.220  0.00  0.00    +0.021 C 
ATOM     13  C   UNL     1      -6.417 -10.874  15.543  0.00  0.00    +0.054 C 
ATOM     14  C   UNL     1      -6.035 -11.732  17.918  0.00  0.00    +0.010 C 
ATOM     15  C   UNL     1      -7.802 -13.131  19.034  0.00  0.00    +0.123 C 
ATOM     16  C   UNL     1      -9.448 -11.176  15.998  0.00  0.00    +0.049 C 
ATOM     17  C   UNL     1      -6.619 -12.194  19.246  0.00  0.00    +0.032 C 
ATOM     18  C   UNL     1      -7.317  -9.590  17.578  0.00  0.00    +0.012 C 
ATOM     19  C   UNL     1      -7.466 -10.516  14.523  0.00  0.00    +0.058 A 
ATOM     21  C   UNL     1      -9.966 -13.616  17.869  0.00  0.00    +0.016 C 
ATOM     22  C   UNL     1      -8.819 -10.677  14.741  0.00  0.00    +0.015 A 
ATOM     25  C   UNL     1      -8.224  -9.834  12.578  0.00  0.00    +0.165 A 
ATOM     31  C   UNL     1      -7.276  -8.999  10.444  0.00  0.00    +0.250 C 
ATOM     42  H   UNL     1      -9.287  -9.321  10.959  0.00  0.00    +0.157 HD
ENDROOT
BRANCH  31  32
ATOM     32  C   UNL     1      -7.682  -8.544   9.088  0.00  0.00    +0.037 A 
ATOM     33  C   UNL     1      -7.081  -9.099   7.958  0.00  0.00    +0.016 A 
ATOM     34  C   UNL     1      -8.663  -7.564   8.945  0.00  0.00    +0.016 A 
ATOM     35  C   UNL     1      -7.461  -8.674   6.685  0.00  0.00    +0.046 A 
ATOM     36  C   UNL     1      -9.045  -7.139   7.672  0.00  0.00    +0.046 A 
ATOM     37  C   UNL     1      -8.444  -7.694   6.543  0.00  0.00    +0.120 A 
BRANCH  37   6
ATOM      6  O   UNL     1      -8.817  -7.280   5.301  0.00  0.00    -0.495 OA
ATOM     38  C   UNL     1     -10.216  -7.140   5.056  0.00  0.00    +0.277 C 
ENDBRANCH  37   6
ENDBRANCH  31  32
BRANCH  15   2
ATOM      2  O   UNL     1      -8.270 -13.575  20.308  0.00  0.00    -0.391 OA
ATOM     39  H   UNL     1      -8.423 -12.787  20.856  0.00  0.00    +0.210 HD
ENDBRANCH  15   2
BRANCH  12  20
ATOM     20  C   UNL     1      -9.749 -11.481  19.088  0.00  0.00    +0.165 C 
BRANCH  20   3
ATOM      3  O   UNL     1     -10.634 -12.217  19.903  0.00  0.00    -0.394 OA
ATOM     40  H   UNL     1     -10.702 -11.750  20.752  0.00  0.00    +0.209 HD
ENDBRANCH  20   3
ENDBRANCH  12  20
BRANCH  13  23
ATOM     23  C   UNL     1      -5.206  -9.935  15.458  0.00  0.00    +0.106 C 
BRANCH  23  24
ATOM      4  O   UNL     1      -3.135 -11.145  15.779  0.00  0.00    -0.276 OA
ATOM      8  N   UNL     1      -3.876 -10.693  13.623  0.00  0.00    -0.312 N 
ATOM     24  C   UNL     1      -3.958 -10.659  15.008  0.00  0.00    +0.214 C 
ATOM     41  H   UNL     1      -4.640 -10.302  13.079  0.00  0.00    +0.149 HD
BRANCH   8  26
ATOM     26  C   UNL     1      -2.787 -11.318  12.913  0.00  0.00    +0.073 C 
ATOM     27  C   UNL     1      -3.281 -12.164  11.746  0.00  0.00    +0.022 C 
ATOM     28  C   UNL     1      -1.897 -10.288  12.230  0.00  0.00    +0.022 C 
ATOM     29  C   UNL     1      -3.480 -11.177  10.598  0.00  0.00    +0.002 C 
ATOM     30  C   UNL     1      -2.624  -9.954  10.930  0.00  0.00    +0.002 C 
ENDBRANCH   8  26
ENDBRANCH  23  24
ENDBRANCH  13  23
TORSDOF 8
ENDMDL
MODEL 2
REMARK VINA RESULT:      -6.2      3.330      4.348
REMARK  Name = 11882853
REMARK  11 active torsions:
REMARK  status: ('A' for Active; 'I' for Inactive)
REMARK    1  A    between atoms: O_2  and  C_15
REMARK    2  A    between atoms: O_3  and  C_20
REMARK    3  A    between atoms: O_6  and  C_37
REMARK    4  A    between atoms: O_6  and  C_38
REMARK    5  A    between atoms: N_8  and  C_26
REMARK    6  A    between atoms: C_10  and  C_18
REMARK    7  A    between atoms: C_12  and  C_20
REMARK    8  A    between atoms: C_12  and  C_21
REMARK    9  A    between atoms: C_13  and  C_23
REMARK   10  A    between atoms: C_23  and  C_24
REMARK   11  A    between atoms: C_31  and  C_32
REMARK                            x       y       z     vdW  Elec       q    Type
REMARK                         _______ _______ _______ _____ _____    ______ ____
ROOT
ATOM      1  S   UNL     1      -6.992 -10.843  12.497  0.00  0.00    -0.057 S 
ATOM      5  O   UNL     1      -3.332 -12.480  10.130  0.00  0.00    -0.270 OA
ATOM      7  N   UNL     1      -4.649 -11.917  12.718  0.00  0.00    -0.229 NA
ATOM      9  N   UNL     1      -5.453 -11.513  10.483  0.00  0.00    -0.261 N 
ATOM     10  C   UNL     1      -4.920 -11.409  16.532  0.00  0.00    -0.019 C 
ATOM     11  C   UNL     1      -6.504 -11.573  16.520  0.00  0.00    +0.011 C 
ATOM     12  C   UNL     1      -7.258 -11.335  17.884  0.00  0.00    +0.021 C 
ATOM     13  C   UNL     1      -4.343 -12.108  15.215  0.00  0.00    +0.054 C 
ATOM     14  C   UNL     1      -4.335 -12.140  17.769  0.00  0.00    +0.010 C 
ATOM     15  C   UNL     1      -6.517 -12.096  19.019  0.00  0.00    +0.123 C 
ATOM     16  C   UNL     1      -7.144 -10.831  15.310  0.00  0.00    +0.049 C 
ATOM     17  C   UNL     1      -5.026 -11.785  19.077  0.00  0.00    +0.032 C 
ATOM     18  C   UNL     1      -4.470  -9.928  16.569  0.00  0.00    +0.012 C 
ATOM     19  C   UNL     1      -5.131 -11.704  13.996  0.00  0.00    +0.058 A 
ATOM     21  C   UNL     1      -8.690 -11.934  17.784  0.00  0.00    +0.016 C 
ATOM     22  C   UNL     1      -6.394 -11.150  14.062  0.00  0.00    +0.015 A 
ATOM     25  C   UNL     1      -5.541 -11.495  11.849  0.00  0.00    +0.165 A 
ATOM     31  C   UNL     1      -4.379 -11.994   9.716  0.00  0.00    +0.250 C 
ATOM     42  H   UNL     1      -6.288 -11.171  10.018  0.00  0.00    +0.157 HD
ENDROOT
BRANCH  31  32
ATOM     32  C   UNL     1      -4.566 -11.920   8.243  0.00  0.00    +0.037 A 
ATOM     33  C   UNL     1      -5.225 -10.828   7.677  0.00  0.00    +0.016 A 
ATOM     34  C   UNL     1      -4.082 -12.941   7.425  0.00  0.00    +0.016 A 
ATOM     35  C   UNL     1      -5.400 -10.757   6.296  0.00  0.00    +0.046 A 
ATOM     36  C   UNL     1      -4.257 -12.870   6.043  0.00  0.00    +0.046 A 
ATOM     37  C   UNL     1      -4.915 -11.778   5.479  0.00  0.00    +0.120 A 
BRANCH  37   6
ATOM      6  O   UNL     1      -5.084 -11.708   4.130  0.00  0.00    -0.495 OA
ATOM     38  C   UNL     1      -4.502 -12.751   3.348  0.00  0.00    +0.277 C 
ENDBRANCH  37   6
ENDBRANCH  31  32
BRANCH  15   2
ATOM      2  O   UNL     1      -7.098 -11.797  20.288  0.00  0.00    -0.391 OA
ATOM     39  H   UNL     1      -6.517 -12.167  20.973  0.00  0.00    +0.210 HD
ENDBRANCH  15   2
BRANCH  12  20
ATOM     20  C   UNL     1      -7.456  -9.849  18.255  0.00  0.00    +0.165 C 
BRANCH  20   3
ATOM      3  O   UNL     1      -8.841  -9.583  18.250  0.00  0.00    -0.394 OA
ATOM     40  H   UNL     1      -9.039  -9.088  17.437  0.00  0.00    +0.209 HD
ENDBRANCH  20   3
ENDBRANCH  12  20
BRANCH  13  23
ATOM     23  C   UNL     1      -2.836 -11.913  14.999  0.00  0.00    +0.106 C 
BRANCH  23  24
ATOM      4  O   UNL     1      -1.278 -12.939  13.458  0.00  0.00    -0.276 OA
ATOM      8  N   UNL     1      -2.863 -14.256  14.533  0.00  0.00    -0.312 N 
ATOM     24  C   UNL     1      -2.220 -13.063  14.236  0.00  0.00    +0.214 C 
ATOM     41  H   UNL     1      -3.601 -14.253  15.232  0.00  0.00    +0.149 HD
BRANCH   8  26
ATOM     26  C   UNL     1      -2.488 -15.520  13.948  0.00  0.00    +0.073 C 
ATOM     27  C   UNL     1      -1.526 -16.296  14.839  0.00  0.00    +0.022 C 
ATOM     28  C   UNL     1      -3.680 -16.463  13.837  0.00  0.00    +0.022 C 
ATOM     29  C   UNL     1      -2.416 -17.014  15.852  0.00  0.00    +0.002 C 
ATOM     30  C   UNL     1      -3.809 -17.083  15.226  0.00  0.00    +0.002 C 
ENDBRANCH   8  26
ENDBRANCH  23  24
ENDBRANCH  13  23
TORSDOF 8
ENDMDL
MODEL 3
REMARK VINA RESULT:      -6.2     24.149     28.887
REMARK  Name = 11882853
REMARK  11 active torsions:
REMARK  status: ('A' for Active; 'I' for Inactive)
REMARK    1  A    between atoms: O_2  and  C_15
REMARK    2  A    between atoms: O_3  and  C_20
REMARK    3  A    between atoms: O_6  and  C_37
REMARK    4  A    between atoms: O_6  and  C_38
REMARK    5  A    between atoms: N_8  and  C_26
REMARK    6  A    between atoms: C_10  and  C_18
REMARK    7  A    between atoms: C_12  and  C_20
REMARK    8  A    between atoms: C_12  and  C_21
REMARK    9  A    between atoms: C_13  and  C_23
REMARK   10  A    between atoms: C_23  and  C_24
REMARK   11  A    between atoms: C_31  and  C_32
REMARK                            x       y       z     vdW  Elec       q    Type
REMARK                         _______ _______ _______ _____ _____    ______ ____
ROOT
ATOM      1  S   UNL     1       9.220   8.595   1.893  0.00  0.00    -0.057 S 
ATOM      5  O   UNL     1      10.589   4.425   3.444  0.00  0.00    -0.270 OA
ATOM      7  N   UNL     1      10.074   6.260   1.182  0.00  0.00    -0.229 NA
ATOM      9  N   UNL     1       9.807   6.646   3.545  0.00  0.00    -0.261 N 
ATOM     10  C   UNL     1       9.486   7.305  -2.483  0.00  0.00    -0.019 C 
ATOM     11  C   UNL     1       9.791   8.837  -2.177  0.00  0.00    +0.011 C 
ATOM     12  C   UNL     1       9.583   9.859  -3.361  0.00  0.00    +0.021 C 
ATOM     13  C   UNL     1      10.167   6.428  -1.333  0.00  0.00    +0.054 C 
ATOM     14  C   UNL     1      10.126   6.913  -3.841  0.00  0.00    +0.010 C 
ATOM     15  C   UNL     1      10.242   9.291  -4.649  0.00  0.00    +0.123 C 
ATOM     16  C   UNL     1       9.143   9.290  -0.836  0.00  0.00    +0.049 C 
ATOM     17  C   UNL     1       9.798   7.871  -4.977  0.00  0.00    +0.032 C 
ATOM     18  C   UNL     1       7.970   6.994  -2.539  0.00  0.00    +0.012 C 
ATOM     19  C   UNL     1       9.870   6.996   0.030  0.00  0.00    +0.058 A 
ATOM     21  C   UNL     1      10.310  11.190  -3.017  0.00  0.00    +0.016 C 
ATOM     22  C   UNL     1       9.428   8.289   0.231  0.00  0.00    +0.015 A 
ATOM     25  C   UNL     1       9.758   6.998   2.223  0.00  0.00    +0.165 A 
ATOM     31  C   UNL     1      10.211   5.408   4.072  0.00  0.00    +0.250 C 
ATOM     42  H   UNL     1       9.553   7.400   4.176  0.00  0.00    +0.157 HD
ENDROOT
BRANCH  31  32
ATOM     32  C   UNL     1      10.195   5.311   5.555  0.00  0.00    +0.037 A 
ATOM     33  C   UNL     1      10.570   6.409   6.329  0.00  0.00    +0.016 A 
ATOM     34  C   UNL     1       9.806   4.123   6.173  0.00  0.00    +0.016 A 
ATOM     35  C   UNL     1      10.555   6.320   7.721  0.00  0.00    +0.046 A 
ATOM     36  C   UNL     1       9.790   4.034   7.565  0.00  0.00    +0.046 A 
ATOM     37  C   UNL     1      10.165   5.132   8.338  0.00  0.00    +0.120 A 
BRANCH  37   6
ATOM      6  O   UNL     1      10.148   5.045   9.697  0.00  0.00    -0.495 OA
ATOM     38  C   UNL     1       8.918   4.654  10.307  0.00  0.00    +0.277 C 
ENDBRANCH  37   6
ENDBRANCH  31  32
BRANCH  15   2
ATOM      2  O   UNL     1       9.961  10.130  -5.770  0.00  0.00    -0.391 OA
ATOM     39  H   UNL     1      10.470  10.951  -5.659  0.00  0.00    +0.210 HD
ENDBRANCH  15   2
BRANCH  12  20
ATOM     20  C   UNL     1       8.110  10.246  -3.620  0.00  0.00    +0.165 C 
BRANCH  20   3
ATOM      3  O   UNL     1       8.076  11.617  -3.952  0.00  0.00    -0.394 OA
ATOM     40  H   UNL     1       7.907  11.680  -4.907  0.00  0.00    +0.209 HD
ENDBRANCH  20   3
ENDBRANCH  12  20
BRANCH  13  23
ATOM     23  C   UNL     1       9.844   4.929  -1.400  0.00  0.00    +0.106 C 
BRANCH  23  24
ATOM      4  O   UNL     1      11.416   3.470  -2.520  0.00  0.00    -0.276 OA
ATOM      8  N   UNL     1      11.808   4.104  -0.319  0.00  0.00    -0.312 N 
ATOM     24  C   UNL     1      11.093   4.085  -1.508  0.00  0.00    +0.214 C 
ATOM     41  H   UNL     1      11.475   4.688   0.442  0.00  0.00    +0.149 HD
BRANCH   8  26
ATOM     26  C   UNL     1      13.043   3.384  -0.131  0.00  0.00    +0.073 C 
ATOM     27  C   UNL     1      14.238   4.147  -0.691  0.00  0.00    +0.022 C 
ATOM     28  C   UNL     1      13.395   3.245   1.345  0.00  0.00    +0.022 C 
ATOM     29  C   UNL     1      14.629   5.132   0.409  0.00  0.00    +0.002 C 
ATOM     30  C   UNL     1      14.051   4.574   1.710  0.00  0.00    +0.002 C 
ENDBRANCH   8  26
ENDBRANCH  23  24
ENDBRANCH  13  23
TORSDOF 8
ENDMDL
MODEL 4
REMARK VINA RESULT:      -6.2      6.226     10.229
REMARK  Name = 11882853
REMARK  11 active torsions:
REMARK  status: ('A' for Active; 'I' for Inactive)
REMARK    1  A    between atoms: O_2  and  C_15
REMARK    2  A    between atoms: O_3  and  C_20
REMARK    3  A    between atoms: O_6  and  C_37
REMARK    4  A    between atoms: O_6  and  C_38
REMARK    5  A    between atoms: N_8  and  C_26
REMARK    6  A    between atoms: C_10  and  C_18
REMARK    7  A    between atoms: C_12  and  C_20
REMARK    8  A    between atoms: C_12  and  C_21
REMARK    9  A    between atoms: C_13  and  C_23
REMARK   10  A    between atoms: C_23  and  C_24
REMARK   11  A    between atoms: C_31  and  C_32
REMARK                            x       y       z     vdW  Elec       q    Type
REMARK                         _______ _______ _______ _____ _____    ______ ____
ROOT
ATOM      1  S   UNL     1     -12.212 -10.338  18.524  0.00  0.00    -0.057 S 
ATOM      5  O   UNL     1      -8.744  -8.462  16.050  0.00  0.00    -0.270 OA
ATOM      7  N   UNL     1     -11.625  -8.599  16.702  0.00  0.00    -0.229 NA
ATOM      9  N   UNL     1      -9.796  -9.868  17.623  0.00  0.00    -0.261 N 
ATOM     10  C   UNL     1     -15.408  -8.009  16.232  0.00  0.00    -0.019 C 
ATOM     11  C   UNL     1     -15.728  -8.337  17.756  0.00  0.00    +0.011 C 
ATOM     12  C   UNL     1     -17.248  -8.374  18.177  0.00  0.00    +0.021 C 
ATOM     13  C   UNL     1     -13.867  -7.593  16.130  0.00  0.00    +0.054 C 
ATOM     14  C   UNL     1     -16.270  -6.805  15.771  0.00  0.00    +0.010 C 
ATOM     15  C   UNL     1     -17.970  -7.125  17.596  0.00  0.00    +0.123 C 
ATOM     16  C   UNL     1     -14.907  -9.560  18.260  0.00  0.00    +0.049 C 
ATOM     17  C   UNL     1     -17.749  -6.945  16.099  0.00  0.00    +0.032 C 
ATOM     18  C   UNL     1     -15.681  -9.207  15.289  0.00  0.00    +0.012 C 
ATOM     19  C   UNL     1     -12.994  -8.556  16.892  0.00  0.00    +0.058 A 
ATOM     21  C   UNL     1     -17.348  -8.288  19.726  0.00  0.00    +0.016 C 
ATOM     22  C   UNL     1     -13.479  -9.417  17.856  0.00  0.00    +0.015 A 
ATOM     25  C   UNL     1     -11.111  -9.506  17.503  0.00  0.00    +0.165 A 
ATOM     31  C   UNL     1      -8.709  -9.338  16.907  0.00  0.00    +0.250 C 
ATOM     42  H   UNL     1      -9.631 -10.565  18.341  0.00  0.00    +0.157 HD
ENDROOT
BRANCH  31  32
ATOM     32  C   UNL     1      -7.379  -9.898  17.263  0.00  0.00    +0.037 A 
ATOM     33  C   UNL     1      -6.274  -9.642  16.450  0.00  0.00    +0.016 A 
ATOM     34  C   UNL     1      -7.234 -10.678  18.410  0.00  0.00    +0.016 A 
ATOM     35  C   UNL     1      -5.026 -10.166  16.783  0.00  0.00    +0.046 A 
ATOM     36  C   UNL     1      -5.985 -11.202  18.744  0.00  0.00    +0.046 A 
ATOM     37  C   UNL     1      -4.881 -10.946  17.931  0.00  0.00    +0.120 A 
BRANCH  37   6
ATOM      6  O   UNL     1      -3.662 -11.455  18.258  0.00  0.00    -0.495 OA
ATOM     38  C   UNL     1      -3.576 -12.206  19.469  0.00  0.00    +0.277 C 
ENDBRANCH  37   6
ENDBRANCH  31  32
BRANCH  15   2
ATOM      2  O   UNL     1     -19.374  -7.194  17.849  0.00  0.00    -0.391 OA
ATOM     39  H   UNL     1     -19.509  -7.058  18.801  0.00  0.00    +0.210 HD
ENDBRANCH  15   2
BRANCH  12  20
ATOM     20  C   UNL     1     -17.988  -9.671  17.785  0.00  0.00    +0.165 C 
BRANCH  20   3
ATOM      3  O   UNL     1     -18.933  -9.951  18.794  0.00  0.00    -0.394 OA
ATOM     40  H   UNL     1     -18.441 -10.246  19.578  0.00  0.00    +0.209 HD
ENDBRANCH  20   3
ENDBRANCH  12  20
BRANCH  13  23
ATOM     23  C   UNL     1     -13.357  -7.384  14.698  0.00  0.00    +0.106 C 
BRANCH  23  24
ATOM      4  O   UNL     1     -11.853  -5.512  14.995  0.00  0.00    -0.276 OA
ATOM      8  N   UNL     1     -13.705  -5.286  13.610  0.00  0.00    -0.312 N 
ATOM     24  C   UNL     1     -12.864  -5.974  14.473  0.00  0.00    +0.214 C 
ATOM     41  H   UNL     1     -14.490  -5.781  13.195  0.00  0.00    +0.149 HD
BRANCH   8  26
ATOM     26  C   UNL     1     -13.482  -3.916  13.217  0.00  0.00    +0.073 C 
ATOM     27  C   UNL     1     -12.514  -3.811  12.045  0.00  0.00    +0.022 C 
ATOM     28  C   UNL     1     -14.750  -3.277  12.665  0.00  0.00    +0.022 C 
ATOM     29  C   UNL     1     -13.371  -4.043  10.802  0.00  0.00    +0.002 C 
ATOM     30  C   UNL     1     -14.813  -3.740  11.212  0.00  0.00    +0.002 C 
ENDBRANCH   8  26
ENDBRANCH  23  24
ENDBRANCH  13  23
TORSDOF 8
ENDMDL
MODEL 5
REMARK VINA RESULT:      -6.2     24.561     27.824
REMARK  Name = 11882853
REMARK  11 active torsions:
REMARK  status: ('A' for Active; 'I' for Inactive)
REMARK    1  A    between atoms: O_2  and  C_15
REMARK    2  A    between atoms: O_3  and  C_20
REMARK    3  A    between atoms: O_6  and  C_37
REMARK    4  A    between atoms: O_6  and  C_38
REMARK    5  A    between atoms: N_8  and  C_26
REMARK    6  A    between atoms: C_10  and  C_18
REMARK    7  A    between atoms: C_12  and  C_20
REMARK    8  A    between atoms: C_12  and  C_21
REMARK    9  A    between atoms: C_13  and  C_23
REMARK   10  A    between atoms: C_23  and  C_24
REMARK   11  A    between atoms: C_31  and  C_32
REMARK                            x       y       z     vdW  Elec       q    Type
REMARK                         _______ _______ _______ _____ _____    ______ ____
ROOT
ATOM      1  S   UNL     1       9.260   7.857  -0.061  0.00  0.00    -0.057 S 
ATOM      5  O   UNL     1       7.819   8.854   4.251  0.00  0.00    -0.270 OA
ATOM      7  N   UNL     1       9.734   7.494   2.456  0.00  0.00    -0.229 NA
ATOM      9  N   UNL     1       7.833   8.863   1.894  0.00  0.00    -0.261 N 
ATOM     10  C   UNL     1      12.509   5.015   1.441  0.00  0.00    -0.019 C 
ATOM     11  C   UNL     1      12.822   5.796   0.090  0.00  0.00    +0.011 C 
ATOM     12  C   UNL     1      13.875   5.144  -0.887  0.00  0.00    +0.021 C 
ATOM     13  C   UNL     1      11.790   6.032   2.443  0.00  0.00    +0.054 C 
ATOM     14  C   UNL     1      13.840   4.550   2.088  0.00  0.00    +0.010 C 
ATOM     15  C   UNL     1      15.121   4.696  -0.071  0.00  0.00    +0.123 C 
ATOM     16  C   UNL     1      11.514   6.259  -0.616  0.00  0.00    +0.049 C 
ATOM     17  C   UNL     1      14.771   3.823   1.129  0.00  0.00    +0.032 C 
ATOM     18  C   UNL     1      11.603   3.778   1.224  0.00  0.00    +0.012 C 
ATOM     19  C   UNL     1      10.695   6.797   1.747  0.00  0.00    +0.058 A 
ATOM     21  C   UNL     1      14.352   6.216  -1.908  0.00  0.00    +0.016 C 
ATOM     22  C   UNL     1      10.601   6.901   0.373  0.00  0.00    +0.015 A 
ATOM     25  C   UNL     1       8.922   8.084   1.607  0.00  0.00    +0.165 A 
ATOM     31  C   UNL     1       7.352   9.198   3.171  0.00  0.00    +0.250 C 
ATOM     42  H   UNL     1       7.380   9.247   1.071  0.00  0.00    +0.157 HD
ENDROOT
BRANCH  31  32
ATOM     32  C   UNL     1       6.163  10.090   3.189  0.00  0.00    +0.037 A 
ATOM     33  C   UNL     1       5.239  10.042   2.144  0.00  0.00    +0.016 A 
ATOM     34  C   UNL     1       5.969  10.975   4.249  0.00  0.00    +0.016 A 
ATOM     35  C   UNL     1       4.123  10.878   2.160  0.00  0.00    +0.046 A 
ATOM     36  C   UNL     1       4.852  11.810   4.266  0.00  0.00    +0.046 A 
ATOM     37  C   UNL     1       3.930  11.762   3.221  0.00  0.00    +0.120 A 
BRANCH  37   6
ATOM      6  O   UNL     1       2.839  12.576   3.238  0.00  0.00    -0.495 OA
ATOM     38  C   UNL     1       1.764  12.203   4.102  0.00  0.00    +0.277 C 
ENDBRANCH  37   6
ENDBRANCH  31  32
BRANCH  15   2
ATOM      2  O   UNL     1      16.038   3.985  -0.904  0.00  0.00    -0.391 OA
ATOM     39  H   UNL     1      16.698   4.622  -1.225  0.00  0.00    +0.210 HD
ENDBRANCH  15   2
BRANCH  12  20
ATOM     20  C   UNL     1      13.324   3.979  -1.737  0.00  0.00    +0.165 C 
BRANCH  20   3
ATOM      3  O   UNL     1      14.040   3.953  -2.952  0.00  0.00    -0.394 OA
ATOM     40  H   UNL     1      14.486   4.812  -3.043  0.00  0.00    +0.209 HD
ENDBRANCH  20   3
ENDBRANCH  12  20
BRANCH  13  23
ATOM     23  C   UNL     1      11.289   5.394   3.747  0.00  0.00    +0.106 C 
BRANCH  23  24
ATOM      4  O   UNL     1      12.535   7.086   4.945  0.00  0.00    -0.276 OA
ATOM      8  N   UNL     1      10.955   5.810   6.075  0.00  0.00    -0.312 N 
ATOM     24  C   UNL     1      11.682   6.204   4.960  0.00  0.00    +0.214 C 
ATOM     41  H   UNL     1      10.236   5.101   5.965  0.00  0.00    +0.149 HD
BRANCH   8  26
ATOM     26  C   UNL     1      11.124   6.409   7.377  0.00  0.00    +0.073 C 
ATOM     27  C   UNL     1      10.331   7.703   7.514  0.00  0.00    +0.022 C 
ATOM     28  C   UNL     1      10.535   5.535   8.478  0.00  0.00    +0.022 C 
ATOM     29  C   UNL     1       8.916   7.262   7.885  0.00  0.00    +0.002 C 
ATOM     30  C   UNL     1       9.043   5.853   8.464  0.00  0.00    +0.002 C 
ENDBRANCH   8  26
ENDBRANCH  23  24
ENDBRANCH  13  23
TORSDOF 8
ENDMDL
MODEL 6
REMARK VINA RESULT:      -6.1      2.033      2.757
REMARK  Name = 11882853
REMARK  11 active torsions:
REMARK  status: ('A' for Active; 'I' for Inactive)
REMARK    1  A    between atoms: O_2  and  C_15
REMARK    2  A    between atoms: O_3  and  C_20
REMARK    3  A    between atoms: O_6  and  C_37
REMARK    4  A    between atoms: O_6  and  C_38
REMARK    5  A    between atoms: N_8  and  C_26
REMARK    6  A    between atoms: C_10  and  C_18
REMARK    7  A    between atoms: C_12  and  C_20
REMARK    8  A    between atoms: C_12  and  C_21
REMARK    9  A    between atoms: C_13  and  C_23
REMARK   10  A    between atoms: C_23  and  C_24
REMARK   11  A    between atoms: C_31  and  C_32
REMARK                            x       y       z     vdW  Elec       q    Type
REMARK                         _______ _______ _______ _____ _____    ______ ____
ROOT
ATOM      1  S   UNL     1      -8.313  -9.547  12.842  0.00  0.00    -0.057 S 
ATOM      5  O   UNL     1      -5.141  -9.907   9.454  0.00  0.00    -0.270 OA
ATOM      7  N   UNL     1      -5.903 -10.302  12.284  0.00  0.00    -0.229 NA
ATOM      9  N   UNL     1      -7.202  -9.387  10.472  0.00  0.00    -0.261 N 
ATOM     10  C   UNL     1      -5.378 -10.958  16.048  0.00  0.00    -0.019 C 
ATOM     11  C   UNL     1      -6.908 -11.331  16.276  0.00  0.00    +0.011 C 
ATOM     12  C   UNL     1      -7.365 -11.603  17.762  0.00  0.00    +0.021 C 
ATOM     13  C   UNL     1      -5.048 -11.161  14.497  0.00  0.00    +0.054 C 
ATOM     14  C   UNL     1      -4.483 -11.925  16.867  0.00  0.00    +0.010 C 
ATOM     15  C   UNL     1      -6.338 -12.548  18.448  0.00  0.00    +0.123 C 
ATOM     16  C   UNL     1      -7.851 -10.367  15.497  0.00  0.00    +0.049 C 
ATOM     17  C   UNL     1      -4.899 -12.063  18.325  0.00  0.00    +0.032 C 
ATOM     18  C   UNL     1      -5.045  -9.503  16.460  0.00  0.00    +0.012 C 
ATOM     19  C   UNL     1      -6.111 -10.536  13.631  0.00  0.00    +0.058 A 
ATOM     21  C   UNL     1      -8.734 -12.340  17.745  0.00  0.00    +0.016 C 
ATOM     22  C   UNL     1      -7.368 -10.206  14.096  0.00  0.00    +0.015 A 
ATOM     25  C   UNL     1      -6.992  -9.776  11.768  0.00  0.00    +0.165 A 
ATOM     31  C   UNL     1      -6.287  -9.472   9.410  0.00  0.00    +0.250 C 
ATOM     42  H   UNL     1      -8.141  -9.045  10.299  0.00  0.00    +0.157 HD
ENDROOT
BRANCH  31  32
ATOM     32  C   UNL     1      -6.794  -9.004   8.094  0.00  0.00    +0.037 A 
ATOM     33  C   UNL     1      -7.731  -7.972   8.035  0.00  0.00    +0.016 A 
ATOM     34  C   UNL     1      -6.333  -9.594   6.917  0.00  0.00    +0.016 A 
ATOM     35  C   UNL     1      -8.208  -7.531   6.801  0.00  0.00    +0.046 A 
ATOM     36  C   UNL     1      -6.808  -9.152   5.682  0.00  0.00    +0.046 A 
ATOM     37  C   UNL     1      -7.745  -8.121   5.625  0.00  0.00    +0.120 A 
BRANCH  37   6
ATOM      6  O   UNL     1      -8.208  -7.689   4.419  0.00  0.00    -0.495 OA
ATOM     38  C   UNL     1      -7.837  -8.451   3.271  0.00  0.00    +0.277 C 
ENDBRANCH  37   6
ENDBRANCH  31  32
BRANCH  15   2
ATOM      2  O   UNL     1      -6.651 -12.711  19.831  0.00  0.00    -0.391 OA
ATOM     39  H   UNL     1      -7.266 -13.460  19.908  0.00  0.00    +0.210 HD
ENDBRANCH  15   2
BRANCH  12  20
ATOM     20  C   UNL     1      -7.591 -10.329  18.605  0.00  0.00    +0.165 C 
BRANCH  20   3
ATOM      3  O   UNL     1      -8.423 -10.672  19.692  0.00  0.00    -0.394 OA
ATOM     40  H   UNL     1      -8.418 -11.641  19.765  0.00  0.00    +0.209 HD
ENDBRANCH  20   3
ENDBRANCH  12  20
BRANCH  13  23
ATOM     23  C   UNL     1      -3.643 -10.704  14.079  0.00  0.00    +0.106 C 
BRANCH  23  24
ATOM      4  O   UNL     1      -1.832 -11.624  12.765  0.00  0.00    -0.276 OA
ATOM      8  N   UNL     1      -3.489 -13.035  13.581  0.00  0.00    -0.312 N 
ATOM     24  C   UNL     1      -2.869 -11.808  13.397  0.00  0.00    +0.214 C 
ATOM     41  H   UNL     1      -4.319 -13.081  14.165  0.00  0.00    +0.149 HD
BRANCH   8  26
ATOM     26  C   UNL     1      -2.973 -14.268  13.038  0.00  0.00    +0.073 C 
ATOM     27  C   UNL     1      -2.038 -14.972  14.013  0.00  0.00    +0.022 C 
ATOM     28  C   UNL     1      -4.078 -15.296  12.829  0.00  0.00    +0.022 C 
ATOM     29  C   UNL     1      -2.959 -15.754  14.949  0.00  0.00    +0.002 C 
ATOM     30  C   UNL     1      -4.283 -15.925  14.204  0.00  0.00    +0.002 C 
ENDBRANCH   8  26
ENDBRANCH  23  24
ENDBRANCH  13  23
TORSDOF 8
ENDMDL
MODEL 7
REMARK VINA RESULT:      -6.1     27.049     30.568
REMARK  Name = 11882853
REMARK  11 active torsions:
REMARK  status: ('A' for Active; 'I' for Inactive)
REMARK    1  A    between atoms: O_2  and  C_15
REMARK    2  A    between atoms: O_3  and  C_20
REMARK    3  A    between atoms: O_6  and  C_37
REMARK    4  A    between atoms: O_6  and  C_38
REMARK    5  A    between atoms: N_8  and  C_26
REMARK    6  A    between atoms: C_10  and  C_18
REMARK    7  A    between atoms: C_12  and  C_20
REMARK    8  A    between atoms: C_12  and  C_21
REMARK    9  A    between atoms: C_13  and  C_23
REMARK   10  A    between atoms: C_23  and  C_24
REMARK   11  A    between atoms: C_31  and  C_32
REMARK                            x       y       z     vdW  Elec       q    Type
REMARK                         _______ _______ _______ _____ _____    ______ ____
ROOT
ATOM      1  S   UNL     1      19.530  -2.026  29.341  0.00  0.00    -0.057 S 
ATOM      5  O   UNL     1      20.942  -2.117  24.906  0.00  0.00    -0.270 OA
ATOM      7  N   UNL     1      19.226  -3.201  27.057  0.00  0.00    -0.229 NA
ATOM      9  N   UNL     1      20.834  -1.410  27.152  0.00  0.00    -0.261 N 
ATOM     10  C   UNL     1      16.891  -5.720  28.812  0.00  0.00    -0.019 C 
ATOM     11  C   UNL     1      16.393  -4.640  29.871  0.00  0.00    +0.011 C 
ATOM     12  C   UNL     1      15.434  -5.149  31.014  0.00  0.00    +0.021 C 
ATOM     13  C   UNL     1      17.459  -4.936  27.539  0.00  0.00    +0.054 C 
ATOM     14  C   UNL     1      15.689  -6.587  28.355  0.00  0.00    +0.010 C 
ATOM     15  C   UNL     1      14.319  -6.036  30.391  0.00  0.00    +0.123 C 
ATOM     16  C   UNL     1      17.571  -3.762  30.385  0.00  0.00    +0.049 C 
ATOM     17  C   UNL     1      14.863  -7.149  29.503  0.00  0.00    +0.032 C 
ATOM     18  C   UNL     1      17.991  -6.652  29.376  0.00  0.00    +0.012 C 
ATOM     19  C   UNL     1      18.375  -3.815  27.957  0.00  0.00    +0.058 A 
ATOM     21  C   UNL     1      14.737  -3.925  31.674  0.00  0.00    +0.016 C 
ATOM     22  C   UNL     1      18.395  -3.291  29.234  0.00  0.00    +0.015 A 
ATOM     25  C   UNL     1      19.888  -2.249  27.676  0.00  0.00    +0.165 A 
ATOM     31  C   UNL     1      21.298  -1.389  25.826  0.00  0.00    +0.250 C 
ATOM     42  H   UNL     1      21.180  -0.723  27.815  0.00  0.00    +0.157 HD
ENDROOT
BRANCH  31  32
ATOM     32  C   UNL     1      22.312  -0.345  25.523  0.00  0.00    +0.037 A 
ATOM     33  C   UNL     1      21.905   0.946  25.187  0.00  0.00    +0.016 A 
ATOM     34  C   UNL     1      23.671  -0.656  25.573  0.00  0.00    +0.016 A 
ATOM     35  C   UNL     1      22.855   1.927  24.903  0.00  0.00    +0.046 A 
ATOM     36  C   UNL     1      24.622   0.325  25.290  0.00  0.00    +0.046 A 
ATOM     37  C   UNL     1      24.214   1.615  24.955  0.00  0.00    +0.120 A 
BRANCH  37   6
ATOM      6  O   UNL     1      25.141   2.573  24.680  0.00  0.00    -0.495 OA
ATOM     38  C   UNL     1      26.091   2.869  25.703  0.00  0.00    +0.277 C 
ENDBRANCH  37   6
ENDBRANCH  31  32
BRANCH  15   2
ATOM      2  O   UNL     1      13.509  -6.618  31.413  0.00  0.00    -0.391 OA
ATOM     39  H   UNL     1      13.021  -5.898  31.847  0.00  0.00    +0.210 HD
ENDBRANCH  15   2
BRANCH  12  20
ATOM     20  C   UNL     1      16.147  -5.890  32.166  0.00  0.00    +0.165 C 
BRANCH  20   3
ATOM      3  O   UNL     1      15.456  -5.599  33.361  0.00  0.00    -0.394 OA
ATOM     40  H   UNL     1      15.339  -4.635  33.401  0.00  0.00    +0.209 HD
ENDBRANCH  20   3
ENDBRANCH  12  20
BRANCH  13  23
ATOM     23  C   UNL     1      18.115  -5.832  26.480  0.00  0.00    +0.106 C 
BRANCH  23  24
ATOM      4  O   UNL     1      16.931  -6.632  24.527  0.00  0.00    -0.276 OA
ATOM      8  N   UNL     1      17.505  -4.385  24.680  0.00  0.00    -0.312 N 
ATOM     24  C   UNL     1      17.448  -5.696  25.131  0.00  0.00    +0.214 C 
ATOM     41  H   UNL     1      17.913  -3.677  25.284  0.00  0.00    +0.149 HD
BRANCH   8  26
ATOM     26  C   UNL     1      16.950  -3.961  23.419  0.00  0.00    +0.073 C 
ATOM     27  C   UNL     1      15.876  -2.894  23.599  0.00  0.00    +0.022 C 
ATOM     28  C   UNL     1      17.988  -3.252  22.557  0.00  0.00    +0.022 C 
ATOM     29  C   UNL     1      16.643  -1.578  23.720  0.00  0.00    +0.002 C 
ATOM     30  C   UNL     1      18.014  -1.821  23.088  0.00  0.00    +0.002 C 
ENDBRANCH   8  26
ENDBRANCH  23  24
ENDBRANCH  13  23
TORSDOF 8
ENDMDL
MODEL 8
REMARK VINA RESULT:      -6.0      2.763      5.953
REMARK  Name = 11882853
REMARK  11 active torsions:
REMARK  status: ('A' for Active; 'I' for Inactive)
REMARK    1  A    between atoms: O_2  and  C_15
REMARK    2  A    between atoms: O_3  and  C_20
REMARK    3  A    between atoms: O_6  and  C_37
REMARK    4  A    between atoms: O_6  and  C_38
REMARK    5  A    between atoms: N_8  and  C_26
REMARK    6  A    between atoms: C_10  and  C_18
REMARK    7  A    between atoms: C_12  and  C_20
REMARK    8  A    between atoms: C_12  and  C_21
REMARK    9  A    between atoms: C_13  and  C_23
REMARK   10  A    between atoms: C_23  and  C_24
REMARK   11  A    between atoms: C_31  and  C_32
REMARK                            x       y       z     vdW  Elec       q    Type
REMARK                         _______ _______ _______ _____ _____    ______ ____
ROOT
ATOM      1  S   UNL     1      -5.965 -10.084  10.388  0.00  0.00    -0.057 S 
ATOM      5  O   UNL     1     -10.286  -8.422  10.873  0.00  0.00    -0.270 OA
ATOM      7  N   UNL     1      -7.797  -9.446  12.099  0.00  0.00    -0.229 NA
ATOM      9  N   UNL     1      -8.330  -9.137   9.769  0.00  0.00    -0.261 N 
ATOM     10  C   UNL     1      -5.529 -10.885  14.867  0.00  0.00    -0.019 C 
ATOM     11  C   UNL     1      -4.197 -10.501  14.083  0.00  0.00    +0.011 C 
ATOM     12  C   UNL     1      -2.833 -10.977  14.715  0.00  0.00    +0.021 C 
ATOM     13  C   UNL     1      -6.709  -9.957  14.317  0.00  0.00    +0.054 C 
ATOM     14  C   UNL     1      -5.342 -10.592  16.378  0.00  0.00    +0.010 C 
ATOM     15  C   UNL     1      -2.831 -10.650  16.235  0.00  0.00    +0.123 C 
ATOM     16  C   UNL     1      -4.324 -10.806  12.562  0.00  0.00    +0.049 C 
ATOM     17  C   UNL     1      -4.063 -11.174  16.964  0.00  0.00    +0.032 C 
ATOM     18  C   UNL     1      -5.921 -12.373  14.693  0.00  0.00    +0.012 C 
ATOM     19  C   UNL     1      -6.708  -9.914  12.811  0.00  0.00    +0.058 A 
ATOM     21  C   UNL     1      -1.667 -10.177  14.069  0.00  0.00    +0.016 C 
ATOM     22  C   UNL     1      -5.621 -10.282  12.044  0.00  0.00    +0.015 A 
ATOM     25  C   UNL     1      -7.522  -9.497  10.814  0.00  0.00    +0.165 A 
ATOM     31  C   UNL     1      -9.637  -8.630   9.854  0.00  0.00    +0.250 C 
ATOM     42  H   UNL     1      -7.884  -9.225   8.862  0.00  0.00    +0.157 HD
ENDROOT
BRANCH  31  32
ATOM     32  C   UNL     1     -10.274  -8.291   8.553  0.00  0.00    +0.037 A 
ATOM     33  C   UNL     1      -9.600  -7.483   7.637  0.00  0.00    +0.016 A 
ATOM     34  C   UNL     1     -11.543  -8.781   8.248  0.00  0.00    +0.016 A 
ATOM     35  C   UNL     1     -10.195  -7.164   6.417  0.00  0.00    +0.046 A 
ATOM     36  C   UNL     1     -12.139  -8.463   7.028  0.00  0.00    +0.046 A 
ATOM     37  C   UNL     1     -11.465  -7.655   6.112  0.00  0.00    +0.120 A 
BRANCH  37   6
ATOM      6  O   UNL     1     -12.045  -7.347   4.920  0.00  0.00    -0.495 OA
ATOM     38  C   UNL     1     -12.846  -8.358   4.307  0.00  0.00    +0.277 C 
ENDBRANCH  37   6
ENDBRANCH  31  32
BRANCH  15   2
ATOM      2  O   UNL     1      -1.665 -11.184  16.863  0.00  0.00    -0.391 OA
ATOM     39  H   UNL     1      -0.917 -10.608  16.634  0.00  0.00    +0.210 HD
ENDBRANCH  15   2
BRANCH  12  20
ATOM     20  C   UNL     1      -2.499 -12.465  14.471  0.00  0.00    +0.165 C 
BRANCH  20   3
ATOM      3  O   UNL     1      -1.124 -12.556  14.171  0.00  0.00    -0.394 OA
ATOM     40  H   UNL     1      -0.752 -13.262  14.726  0.00  0.00    +0.209 HD
ENDBRANCH  20   3
ENDBRANCH  12  20
BRANCH  13  23
ATOM     23  C   UNL     1      -8.100 -10.300  14.868  0.00  0.00    +0.106 C 
BRANCH  23  24
ATOM      4  O   UNL     1      -8.108  -9.427  17.125  0.00  0.00    -0.276 OA
ATOM      8  N   UNL     1      -9.425  -8.415  15.499  0.00  0.00    -0.312 N 
ATOM     24  C   UNL     1      -8.520  -9.356  15.970  0.00  0.00    +0.214 C 
ATOM     41  H   UNL     1      -9.660  -8.416  14.511  0.00  0.00    +0.149 HD
BRANCH   8  26
ATOM     26  C   UNL     1      -9.999  -7.388  16.333  0.00  0.00    +0.073 C 
ATOM     27  C   UNL     1     -10.586  -6.248  15.508  0.00  0.00    +0.022 C 
ATOM     28  C   UNL     1     -11.208  -7.901  17.105  0.00  0.00    +0.022 C 
ATOM     29  C   UNL     1     -11.981  -6.725  15.111  0.00  0.00    +0.002 C 
ATOM     30  C   UNL     1     -12.363  -7.816  16.111  0.00  0.00    +0.002 C 
ENDBRANCH   8  26
ENDBRANCH  23  24
ENDBRANCH  13  23
TORSDOF 8
ENDMDL
MODEL 9
REMARK VINA RESULT:      -5.9     20.168     24.681
REMARK  Name = 11882853
REMARK  11 active torsions:
REMARK  status: ('A' for Active; 'I' for Inactive)
REMARK    1  A    between atoms: O_2  and  C_15
REMARK    2  A    between atoms: O_3  and  C_20
REMARK    3  A    between atoms: O_6  and  C_37
REMARK    4  A    between atoms: O_6  and  C_38
REMARK    5  A    between atoms: N_8  and  C_26
REMARK    6  A    between atoms: C_10  and  C_18
REMARK    7  A    between atoms: C_12  and  C_20
REMARK    8  A    between atoms: C_12  and  C_21
REMARK    9  A    between atoms: C_13  and  C_23
REMARK   10  A    between atoms: C_23  and  C_24
REMARK   11  A    between atoms: C_31  and  C_32
REMARK                            x       y       z     vdW  Elec       q    Type
REMARK                         _______ _______ _______ _____ _____    ______ ____
ROOT
ATOM      1  S   UNL     1       7.320  -9.155  30.895  0.00  0.00    -0.057 S 
ATOM      5  O   UNL     1       5.943 -13.470  31.970  0.00  0.00    -0.270 OA
ATOM      7  N   UNL     1       6.696 -10.745  32.838  0.00  0.00    -0.229 NA
ATOM      9  N   UNL     1       6.592 -11.658  30.611  0.00  0.00    -0.261 N 
ATOM     10  C   UNL     1       7.765  -7.963  35.285  0.00  0.00    -0.019 C 
ATOM     11  C   UNL     1       7.344  -6.805  34.277  0.00  0.00    +0.011 C 
ATOM     12  C   UNL     1       7.674  -5.324  34.708  0.00  0.00    +0.021 C 
ATOM     13  C   UNL     1       6.966  -9.286  34.878  0.00  0.00    +0.054 C 
ATOM     14  C   UNL     1       7.353  -7.567  36.727  0.00  0.00    +0.010 C 
ATOM     15  C   UNL     1       7.240  -5.113  36.186  0.00  0.00    +0.123 C 
ATOM     16  C   UNL     1       7.764  -7.142  32.816  0.00  0.00    +0.049 C 
ATOM     17  C   UNL     1       7.797  -6.169  37.133  0.00  0.00    +0.032 C 
ATOM     18  C   UNL     1       9.286  -8.253  35.265  0.00  0.00    +0.012 C 
ATOM     19  C   UNL     1       7.031  -9.523  33.392  0.00  0.00    +0.058 A 
ATOM     21  C   UNL     1       6.840  -4.344  33.836  0.00  0.00    +0.016 C 
ATOM     22  C   UNL     1       7.374  -8.542  32.483  0.00  0.00    +0.015 A 
ATOM     25  C   UNL     1       6.818 -10.670  31.531  0.00  0.00    +0.165 A 
ATOM     31  C   UNL     1       6.176 -12.973  30.874  0.00  0.00    +0.250 C 
ATOM     42  H   UNL     1       6.713 -11.353  29.650  0.00  0.00    +0.157 HD
ENDROOT
BRANCH  31  32
ATOM     32  C   UNL     1       5.978 -13.830  29.675  0.00  0.00    +0.037 A 
ATOM     33  C   UNL     1       4.760 -14.482  29.478  0.00  0.00    +0.016 A 
ATOM     34  C   UNL     1       7.007 -13.983  28.748  0.00  0.00    +0.016 A 
ATOM     35  C   UNL     1       4.572 -15.285  28.354  0.00  0.00    +0.046 A 
ATOM     36  C   UNL     1       6.820 -14.786  27.623  0.00  0.00    +0.046 A 
ATOM     37  C   UNL     1       5.603 -15.437  27.426  0.00  0.00    +0.120 A 
BRANCH  37   6
ATOM      6  O   UNL     1       5.419 -16.219  26.327  0.00  0.00    -0.495 OA
ATOM     38  C   UNL     1       5.998 -15.766  25.104  0.00  0.00    +0.277 C 
ENDBRANCH  37   6
ENDBRANCH  31  32
BRANCH  15   2
ATOM      2  O   UNL     1       7.642  -3.823  36.648  0.00  0.00    -0.391 OA
ATOM     39  H   UNL     1       7.337  -3.731  37.567  0.00  0.00    +0.210 HD
ENDBRANCH  15   2
BRANCH  12  20
ATOM     20  C   UNL     1       9.148  -4.911  34.502  0.00  0.00    +0.165 C 
BRANCH  20   3
ATOM      3  O   UNL     1       9.162  -3.737  33.721  0.00  0.00    -0.394 OA
ATOM     40  H   UNL     1       8.258  -3.380  33.718  0.00  0.00    +0.209 HD
ENDBRANCH  20   3
ENDBRANCH  12  20
BRANCH  13  23
ATOM     23  C   UNL     1       7.368 -10.541  35.666  0.00  0.00    +0.106 C 
BRANCH  23  24
ATOM      4  O   UNL     1       6.188 -11.286  37.642  0.00  0.00    -0.276 OA
ATOM      8  N   UNL     1       5.170 -11.469  35.561  0.00  0.00    -0.312 N 
ATOM     24  C   UNL     1       6.202 -11.131  36.424  0.00  0.00    +0.214 C 
ATOM     41  H   UNL     1       5.267 -11.251  34.574  0.00  0.00    +0.149 HD
BRANCH   8  26
ATOM     26  C   UNL     1       3.930 -12.056  36.008  0.00  0.00    +0.073 C 
ATOM     27  C   UNL     1       2.776 -11.731  35.067  0.00  0.00    +0.022 C 
ATOM     28  C   UNL     1       3.982 -13.579  35.964  0.00  0.00    +0.022 C 
ATOM     29  C   UNL     1       2.877 -12.764  33.946  0.00  0.00    +0.002 C 
ATOM     30  C   UNL     1       3.687 -13.932  34.509  0.00  0.00    +0.002 C 
ENDBRANCH   8  26
ENDBRANCH  23  24
ENDBRANCH  13  23
TORSDOF 8
ENDMDL
MODEL 10
REMARK VINA RESULT:      -5.9     26.623     31.078
REMARK  Name = 11882853
REMARK  11 active torsions:
REMARK  status: ('A' for Active; 'I' for Inactive)
REMARK    1  A    between atoms: O_2  and  C_15
REMARK    2  A    between atoms: O_3  and  C_20
REMARK    3  A    between atoms: O_6  and  C_37
REMARK    4  A    between atoms: O_6  and  C_38
REMARK    5  A    between atoms: N_8  and  C_26
REMARK    6  A    between atoms: C_10  and  C_18
REMARK    7  A    between atoms: C_12  and  C_20
REMARK    8  A    between atoms: C_12  and  C_21
REMARK    9  A    between atoms: C_13  and  C_23
REMARK   10  A    between atoms: C_23  and  C_24
REMARK   11  A    between atoms: C_31  and  C_32
REMARK                            x       y       z     vdW  Elec       q    Type
REMARK                         _______ _______ _______ _____ _____    ______ ____
ROOT
ATOM      1  S   UNL     1      15.840   7.934   5.032  0.00  0.00    -0.057 S 
ATOM      5  O   UNL     1      11.642   6.378   3.757  0.00  0.00    -0.270 OA
ATOM      7  N   UNL     1      14.369   7.251   3.017  0.00  0.00    -0.229 NA
ATOM      9  N   UNL     1      13.361   7.099   5.200  0.00  0.00    -0.261 N 
ATOM     10  C   UNL     1      17.211   8.451   0.702  0.00  0.00    -0.019 C 
ATOM     11  C   UNL     1      18.338   8.074   1.761  0.00  0.00    +0.011 C 
ATOM     12  C   UNL     1      19.822   8.470   1.399  0.00  0.00    +0.021 C 
ATOM     13  C   UNL     1      15.906   7.594   1.046  0.00  0.00    +0.054 C 
ATOM     14  C   UNL     1      17.690   8.062  -0.721  0.00  0.00    +0.010 C 
ATOM     15  C   UNL     1      20.119   8.052  -0.069  0.00  0.00    +0.123 C 
ATOM     16  C   UNL     1      17.918   8.474   3.206  0.00  0.00    +0.049 C 
ATOM     17  C   UNL     1      19.084   8.568  -1.062  0.00  0.00    +0.032 C 
ATOM     18  C   UNL     1      16.855   9.958   0.713  0.00  0.00    +0.012 C 
ATOM     19  C   UNL     1      15.599   7.641   2.520  0.00  0.00    +0.058 A 
ATOM     21  C   UNL     1      20.797   7.675   2.313  0.00  0.00    +0.016 C 
ATOM     22  C   UNL     1      16.522   8.022   3.474  0.00  0.00    +0.015 A 
ATOM     25  C   UNL     1      14.379   7.371   4.326  0.00  0.00    +0.165 A 
ATOM     31  C   UNL     1      12.078   6.628   4.876  0.00  0.00    +0.250 C 
ATOM     42  H   UNL     1      13.617   7.228   6.174  0.00  0.00    +0.157 HD
ENDROOT
BRANCH  31  32
ATOM     32  C   UNL     1      11.177   6.387   6.034  0.00  0.00    +0.037 A 
ATOM     33  C   UNL     1      11.713   6.203   7.308  0.00  0.00    +0.016 A 
ATOM     34  C   UNL     1       9.796   6.347   5.847  0.00  0.00    +0.016 A 
ATOM     35  C   UNL     1      10.869   5.978   8.395  0.00  0.00    +0.046 A 
ATOM     36  C   UNL     1       8.951   6.122   6.934  0.00  0.00    +0.046 A 
ATOM     37  C   UNL     1       9.488   5.938   8.208  0.00  0.00    +0.120 A 
BRANCH  37   6
ATOM      6  O   UNL     1       8.663   5.721   9.269  0.00  0.00    -0.495 OA
ATOM     38  C   UNL     1       9.033   4.682  10.176  0.00  0.00    +0.277 C 
ENDBRANCH  37   6
ENDBRANCH  31  32
BRANCH  15   2
ATOM      2  O   UNL     1      21.409   8.512  -0.471  0.00  0.00    -0.391 OA
ATOM     39  H   UNL     1      21.536   8.257  -1.400  0.00  0.00    +0.210 HD
ENDBRANCH  15   2
BRANCH  12  20
ATOM     20  C   UNL     1      20.161   9.959   1.628  0.00  0.00    +0.165 C 
BRANCH  20   3
ATOM      3  O   UNL     1      21.140  10.028   2.641  0.00  0.00    -0.394 OA
ATOM     40  H   UNL     1      22.007   9.931   2.212  0.00  0.00    +0.209 HD
ENDBRANCH  20   3
ENDBRANCH  12  20
BRANCH  13  23
ATOM     23  C   UNL     1      14.672   7.945   0.203  0.00  0.00    +0.106 C 
BRANCH  23  24
ATOM      4  O   UNL     1      14.456   6.493  -1.720  0.00  0.00    -0.276 OA
ATOM      8  N   UNL     1      13.283   6.002   0.226  0.00  0.00    -0.312 N 
ATOM     24  C   UNL     1      14.149   6.750  -0.559  0.00  0.00    +0.214 C 
ATOM     41  H   UNL     1      13.137   6.278   1.192  0.00  0.00    +0.149 HD
BRANCH   8  26
ATOM     26  C   UNL     1      12.630   4.805  -0.243  0.00  0.00    +0.073 C 
ATOM     27  C   UNL     1      13.492   3.566  -0.032  0.00  0.00    +0.022 C 
ATOM     28  C   UNL     1      11.382   4.489   0.572  0.00  0.00    +0.022 C 
ATOM     29  C   UNL     1      13.240   3.151   1.416  0.00  0.00    +0.002 C 
ATOM     30  C   UNL     1      11.905   3.780   1.817  0.00  0.00    +0.002 C 
ENDBRANCH   8  26
ENDBRANCH  23  24
ENDBRANCH  13  23
TORSDOF 8
ENDMDL
