MODEL 1
REMARK VINA RESULT:      -6.8      0.000      0.000
REMARK  Name = 11882080
REMARK  12 active torsions:
REMARK  status: ('A' for Active; 'I' for Inactive)
REMARK    1  A    between atoms: S_1  and  C_19
REMARK    2  A    between atoms: S_1  and  C_27
REMARK    3  A    between atoms: S_2  and  C_33
REMARK    4  A    between atoms: S_2  and  C_36
REMARK    5  A    between atoms: N_8  and  C_12
REMARK    6  A    between atoms: N_9  and  C_18
REMARK    7  A    between atoms: N_10  and  C_24
REMARK    8  A    between atoms: C_13  and  C_16
REMARK    9  A    between atoms: C_17  and  C_19
REMARK   10  A    between atoms: C_18  and  C_21
REMARK   11  A    between atoms: C_18  and  C_22
REMARK   12  A    between atoms: C_21  and  C_23
REMARK                            x       y       z     vdW  Elec       q    Type
REMARK                         _______ _______ _______ _____ _____    ______ ____
ROOT
ATOM      4  O   UNL     1      -5.959 -13.598  15.140  0.00  0.00    -0.275 OA
ATOM      7  N   UNL     1      -5.283 -12.808  17.208  0.00  0.00    -0.287 N 
ATOM     12  C   UNL     1      -6.000 -11.016  18.585  0.00  0.00    +0.105 C 
ATOM     13  C   UNL     1      -6.017 -11.548  17.153  0.00  0.00    +0.182 C 
ATOM     14  C   UNL     1      -4.717 -11.612  19.172  0.00  0.00    +0.043 C 
ATOM     15  C   UNL     1      -4.602 -12.970  18.490  0.00  0.00    +0.110 C 
ATOM     17  C   UNL     1      -5.378 -13.769  16.213  0.00  0.00    +0.226 C 
ENDROOT
BRANCH  12   8
ATOM      5  O   UNL     1      -8.692 -10.111  18.220  0.00  0.00    -0.252 OA
ATOM      8  N   UNL     1      -7.165 -11.456  19.316  0.00  0.00    -0.294 N 
ATOM     10  N   UNL     1      -9.373 -11.569  19.929  0.00  0.00    -0.269 N 
ATOM     20  C   UNL     1      -8.451 -10.961  19.073  0.00  0.00    +0.304 C 
ATOM     37  H   UNL     1      -7.058 -12.205  19.992  0.00  0.00    +0.151 HD
ATOM     39  H   UNL     1      -9.006 -12.256  20.582  0.00  0.00    +0.156 HD
BRANCH  10  24
ATOM     24  C   UNL     1     -10.768 -11.345  20.002  0.00  0.00    +0.036 A 
ATOM     28  C   UNL     1     -11.652 -12.422  19.938  0.00  0.00    +0.038 A 
ATOM     29  C   UNL     1     -11.259 -10.047  20.137  0.00  0.00    +0.023 A 
ATOM     33  C   UNL     1     -13.028 -12.200  20.009  0.00  0.00    +0.009 A 
ATOM     34  C   UNL     1     -12.634  -9.825  20.208  0.00  0.00    +0.003 A 
ATOM     35  C   UNL     1     -13.518 -10.901  20.145  0.00  0.00    +0.015 A 
BRANCH  33   2
ATOM      2  S   UNL     1     -14.159 -13.575  19.928  0.00  0.00    -0.129 S 
ATOM     36  C   UNL     1     -13.425 -14.578  18.606  0.00  0.00    +0.090 C 
ENDBRANCH  33   2
ENDBRANCH  10  24
ENDBRANCH  12   8
BRANCH  13  16
ATOM      3  O   UNL     1      -5.695  -9.559  15.872  0.00  0.00    -0.274 OA
ATOM      9  N   UNL     1      -4.056 -11.211  15.820  0.00  0.00    -0.302 N 
ATOM     16  C   UNL     1      -5.256 -10.650  16.224  0.00  0.00    +0.236 C 
ATOM     38  H   UNL     1      -3.770 -12.101  16.218  0.00  0.00    +0.150 HD
BRANCH   9  18
ATOM     18  C   UNL     1      -3.146 -10.558  14.907  0.00  0.00    +0.163 C 
BRANCH  18  22
ATOM      6  O   UNL     1      -0.857  -9.795  15.188  0.00  0.00    -0.274 OA
ATOM     11  N   UNL     1      -1.762 -11.168  16.792  0.00  0.00    -0.328 N 
ATOM     22  C   UNL     1      -1.799 -10.463  15.607  0.00  0.00    +0.231 C 
ATOM     40  H   UNL     1      -0.926 -11.177  17.366  0.00  0.00    +0.145 HD
ATOM     41  H   UNL     1      -2.557 -11.696  17.138  0.00  0.00    +0.145 HD
ENDBRANCH  18  22
BRANCH  18  21
ATOM     21  C   UNL     1      -3.008 -11.320  13.583  0.00  0.00    +0.067 C 
BRANCH  21  23
ATOM     23  C   UNL     1      -3.378 -10.481  12.384  0.00  0.00    -0.045 A 
ATOM     25  C   UNL     1      -4.701 -10.083  12.194  0.00  0.00    +0.004 A 
ATOM     26  C   UNL     1      -2.397 -10.102  11.468  0.00  0.00    +0.004 A 
ATOM     30  C   UNL     1      -5.044  -9.307  11.087  0.00  0.00    +0.000 A 
ATOM     31  C   UNL     1      -2.740  -9.326  10.361  0.00  0.00    +0.000 A 
ATOM     32  C   UNL     1      -4.063  -8.928  10.170  0.00  0.00    +0.000 A 
ENDBRANCH  21  23
ENDBRANCH  18  21
ENDBRANCH   9  18
ENDBRANCH  13  16
BRANCH  17  19
ATOM     19  C   UNL     1      -4.699 -15.083  16.511  0.00  0.00    +0.164 C 
BRANCH  19   1
ATOM      1  S   UNL     1      -4.340 -15.881  14.940  0.00  0.00    -0.155 S 
ATOM     27  C   UNL     1      -2.825 -14.988  14.512  0.00  0.00    +0.085 C 
ENDBRANCH  19   1
ENDBRANCH  17  19
TORSDOF 10
ENDMDL
MODEL 2
REMARK VINA RESULT:      -6.6     28.664     32.365
REMARK  Name = 11882080
REMARK  12 active torsions:
REMARK  status: ('A' for Active; 'I' for Inactive)
REMARK    1  A    between atoms: S_1  and  C_19
REMARK    2  A    between atoms: S_1  and  C_27
REMARK    3  A    between atoms: S_2  and  C_33
REMARK    4  A    between atoms: S_2  and  C_36
REMARK    5  A    between atoms: N_8  and  C_12
REMARK    6  A    between atoms: N_9  and  C_18
REMARK    7  A    between atoms: N_10  and  C_24
REMARK    8  A    between atoms: C_13  and  C_16
REMARK    9  A    between atoms: C_17  and  C_19
REMARK   10  A    between atoms: C_18  and  C_21
REMARK   11  A    between atoms: C_18  and  C_22
REMARK   12  A    between atoms: C_21  and  C_23
REMARK                            x       y       z     vdW  Elec       q    Type
REMARK                         _______ _______ _______ _____ _____    ______ ____
ROOT
ATOM      4  O   UNL     1      21.119   5.838  24.250  0.00  0.00    -0.275 OA
ATOM      7  N   UNL     1      20.044   7.409  22.931  0.00  0.00    -0.287 N 
ATOM     12  C   UNL     1      18.448   7.257  21.184  0.00  0.00    +0.105 C 
ATOM     13  C   UNL     1      19.502   6.466  21.958  0.00  0.00    +0.182 C 
ATOM     14  C   UNL     1      18.945   8.703  21.281  0.00  0.00    +0.043 C 
ATOM     15  C   UNL     1      19.597   8.772  22.657  0.00  0.00    +0.110 C 
ATOM     17  C   UNL     1      20.755   6.998  24.049  0.00  0.00    +0.226 C 
ENDROOT
BRANCH  12   8
ATOM      5  O   UNL     1      15.978   8.319  20.199  0.00  0.00    -0.252 OA
ATOM      8  N   UNL     1      17.144   7.109  21.787  0.00  0.00    -0.294 N 
ATOM     10  N   UNL     1      14.876   7.355  22.035  0.00  0.00    -0.269 N 
ATOM     20  C   UNL     1      15.982   7.662  21.237  0.00  0.00    +0.304 C 
ATOM     37  H   UNL     1      17.055   6.524  22.611  0.00  0.00    +0.151 HD
ATOM     39  H   UNL     1      15.053   6.799  22.867  0.00  0.00    +0.156 HD
BRANCH  10  24
ATOM     24  C   UNL     1      13.526   7.726  21.827  0.00  0.00    +0.036 A 
ATOM     28  C   UNL     1      13.110   9.028  22.106  0.00  0.00    +0.038 A 
ATOM     29  C   UNL     1      12.614   6.790  21.343  0.00  0.00    +0.023 A 
ATOM     33  C   UNL     1      11.779   9.393  21.901  0.00  0.00    +0.009 A 
ATOM     34  C   UNL     1      11.283   7.155  21.138  0.00  0.00    +0.003 A 
ATOM     35  C   UNL     1      10.866   8.457  21.417  0.00  0.00    +0.015 A 
BRANCH  33   2
ATOM      2  S   UNL     1      11.245  11.056  22.258  0.00  0.00    -0.129 S 
ATOM     36  C   UNL     1      11.089  11.013  24.065  0.00  0.00    +0.090 C 
ENDBRANCH  33   2
ENDBRANCH  10  24
ENDBRANCH  12   8
BRANCH  13  16
ATOM      3  O   UNL     1      20.573   5.089  20.328  0.00  0.00    -0.274 OA
ATOM      9  N   UNL     1      21.744   6.888  21.229  0.00  0.00    -0.302 N 
ATOM     16  C   UNL     1      20.644   6.062  21.074  0.00  0.00    +0.236 C 
ATOM     38  H   UNL     1      21.671   7.697  21.839  0.00  0.00    +0.150 HD
BRANCH   9  18
ATOM     18  C   UNL     1      22.982   6.699  20.508  0.00  0.00    +0.163 C 
BRANCH  18  22
ATOM      6  O   UNL     1      24.575   8.305  19.621  0.00  0.00    -0.274 OA
ATOM     11  N   UNL     1      22.443   9.019  20.095  0.00  0.00    -0.328 N 
ATOM     22  C   UNL     1      23.444   8.071  20.043  0.00  0.00    +0.231 C 
ATOM     40  H   UNL     1      22.615   9.974  19.800  0.00  0.00    +0.145 HD
ATOM     41  H   UNL     1      21.507   8.805  20.423  0.00  0.00    +0.145 HD
ENDBRANCH  18  22
BRANCH  18  21
ATOM     21  C   UNL     1      24.061   6.037  21.374  0.00  0.00    +0.067 C 
BRANCH  21  23
ATOM     23  C   UNL     1      24.063   4.532  21.256  0.00  0.00    -0.045 A 
ATOM     25  C   UNL     1      24.682   3.920  20.166  0.00  0.00    +0.004 A 
ATOM     26  C   UNL     1      23.447   3.754  22.235  0.00  0.00    +0.004 A 
ATOM     30  C   UNL     1      24.684   2.529  20.056  0.00  0.00    +0.000 A 
ATOM     31  C   UNL     1      23.449   2.364  22.125  0.00  0.00    +0.000 A 
ATOM     32  C   UNL     1      24.067   1.751  21.036  0.00  0.00    +0.000 A 
ENDBRANCH  21  23
ENDBRANCH  18  21
ENDBRANCH   9  18
ENDBRANCH  13  16
BRANCH  17  19
ATOM     19  C   UNL     1      21.087   8.083  25.043  0.00  0.00    +0.164 C 
BRANCH  19   1
ATOM      1  S   UNL     1      20.317   7.644  26.608  0.00  0.00    -0.155 S 
ATOM     27  C   UNL     1      21.812   7.456  27.612  0.00  0.00    +0.085 C 
ENDBRANCH  19   1
ENDBRANCH  17  19
TORSDOF 10
ENDMDL
MODEL 3
REMARK VINA RESULT:      -6.5     27.098     30.950
REMARK  Name = 11882080
REMARK  12 active torsions:
REMARK  status: ('A' for Active; 'I' for Inactive)
REMARK    1  A    between atoms: S_1  and  C_19
REMARK    2  A    between atoms: S_1  and  C_27
REMARK    3  A    between atoms: S_2  and  C_33
REMARK    4  A    between atoms: S_2  and  C_36
REMARK    5  A    between atoms: N_8  and  C_12
REMARK    6  A    between atoms: N_9  and  C_18
REMARK    7  A    between atoms: N_10  and  C_24
REMARK    8  A    between atoms: C_13  and  C_16
REMARK    9  A    between atoms: C_17  and  C_19
REMARK   10  A    between atoms: C_18  and  C_21
REMARK   11  A    between atoms: C_18  and  C_22
REMARK   12  A    between atoms: C_21  and  C_23
REMARK                            x       y       z     vdW  Elec       q    Type
REMARK                         _______ _______ _______ _____ _____    ______ ____
ROOT
ATOM      4  O   UNL     1      16.137  -5.798  -3.170  0.00  0.00    -0.275 OA
ATOM      7  N   UNL     1      17.291  -7.747  -3.647  0.00  0.00    -0.287 N 
ATOM     12  C   UNL     1      18.423  -9.342  -2.307  0.00  0.00    +0.105 C 
ATOM     13  C   UNL     1      17.895  -7.909  -2.328  0.00  0.00    +0.182 C 
ATOM     14  C   UNL     1      18.707  -9.640  -3.782  0.00  0.00    +0.043 C 
ATOM     15  C   UNL     1      17.623  -8.866  -4.524  0.00  0.00    +0.110 C 
ATOM     17  C   UNL     1      16.394  -6.730  -3.934  0.00  0.00    +0.226 C 
ENDROOT
BRANCH  12   8
ATOM      5  O   UNL     1      18.569 -10.745   0.185  0.00  0.00    -0.252 OA
ATOM      8  N   UNL     1      17.437 -10.250  -1.769  0.00  0.00    -0.294 N 
ATOM     10  N   UNL     1      16.479 -11.709  -0.280  0.00  0.00    -0.269 N 
ATOM     20  C   UNL     1      17.587 -10.897  -0.537  0.00  0.00    +0.304 C 
ATOM     37  H   UNL     1      16.567 -10.376  -2.276  0.00  0.00    +0.151 HD
ATOM     39  H   UNL     1      15.748 -11.722  -0.986  0.00  0.00    +0.156 HD
BRANCH  10  24
ATOM     24  C   UNL     1      16.245 -12.525   0.853  0.00  0.00    +0.036 A 
ATOM     28  C   UNL     1      16.847 -13.779   0.945  0.00  0.00    +0.038 A 
ATOM     29  C   UNL     1      15.413 -12.073   1.876  0.00  0.00    +0.023 A 
ATOM     33  C   UNL     1      16.616 -14.583   2.062  0.00  0.00    +0.009 A 
ATOM     34  C   UNL     1      15.183 -12.876   2.993  0.00  0.00    +0.003 A 
ATOM     35  C   UNL     1      15.784 -14.132   3.085  0.00  0.00    +0.015 A 
BRANCH  33   2
ATOM      2  S   UNL     1      17.385 -16.187   2.181  0.00  0.00    -0.129 S 
ATOM     36  C   UNL     1      16.773 -16.771   3.787  0.00  0.00    +0.090 C 
ENDBRANCH  33   2
ENDBRANCH  10  24
ENDBRANCH  12   8
BRANCH  13  16
ATOM      3  O   UNL     1      19.992  -6.973  -2.981  0.00  0.00    -0.274 OA
ATOM      9  N   UNL     1      18.800  -5.969  -1.252  0.00  0.00    -0.302 N 
ATOM     16  C   UNL     1      19.011  -6.911  -2.245  0.00  0.00    +0.236 C 
ATOM     38  H   UNL     1      17.924  -5.985  -0.737  0.00  0.00    +0.150 HD
BRANCH   9  18
ATOM     18  C   UNL     1      19.738  -4.911  -0.954  0.00  0.00    +0.163 C 
BRANCH  18  22
ATOM      6  O   UNL     1      19.904  -2.769  -2.088  0.00  0.00    -0.274 OA
ATOM     11  N   UNL     1      17.817  -3.588  -1.588  0.00  0.00    -0.328 N 
ATOM     22  C   UNL     1      19.195  -3.639  -1.587  0.00  0.00    +0.231 C 
ATOM     40  H   UNL     1      17.326  -2.798  -1.993  0.00  0.00    +0.145 HD
ATOM     41  H   UNL     1      17.243  -4.326  -1.192  0.00  0.00    +0.145 HD
ENDBRANCH  18  22
BRANCH  18  21
ATOM     21  C   UNL     1      19.930  -4.717   0.556  0.00  0.00    +0.067 C 
BRANCH  21  23
ATOM     23  C   UNL     1      21.315  -5.092   1.021  0.00  0.00    -0.045 A 
ATOM     25  C   UNL     1      21.681  -4.891   2.352  0.00  0.00    +0.004 A 
ATOM     26  C   UNL     1      22.229  -5.640   0.122  0.00  0.00    +0.004 A 
ATOM     30  C   UNL     1      22.962  -5.238   2.783  0.00  0.00    +0.000 A 
ATOM     31  C   UNL     1      23.510  -5.986   0.553  0.00  0.00    +0.000 A 
ATOM     32  C   UNL     1      23.876  -5.785   1.883  0.00  0.00    +0.000 A 
ENDBRANCH  21  23
ENDBRANCH  18  21
ENDBRANCH   9  18
ENDBRANCH  13  16
BRANCH  17  19
ATOM     19  C   UNL     1      15.727  -6.813  -5.285  0.00  0.00    +0.164 C 
BRANCH  19   1
ATOM      1  S   UNL     1      13.973  -7.101  -5.013  0.00  0.00    -0.155 S 
ATOM     27  C   UNL     1      13.564  -7.860  -6.604  0.00  0.00    +0.085 C 
ENDBRANCH  19   1
ENDBRANCH  17  19
TORSDOF 10
ENDMDL
MODEL 4
REMARK VINA RESULT:      -6.5     25.662     30.468
REMARK  Name = 11882080
REMARK  12 active torsions:
REMARK  status: ('A' for Active; 'I' for Inactive)
REMARK    1  A    between atoms: S_1  and  C_19
REMARK    2  A    between atoms: S_1  and  C_27
REMARK    3  A    between atoms: S_2  and  C_33
REMARK    4  A    between atoms: S_2  and  C_36
REMARK    5  A    between atoms: N_8  and  C_12
REMARK    6  A    between atoms: N_9  and  C_18
REMARK    7  A    between atoms: N_10  and  C_24
REMARK    8  A    between atoms: C_13  and  C_16
REMARK    9  A    between atoms: C_17  and  C_19
REMARK   10  A    between atoms: C_18  and  C_21
REMARK   11  A    between atoms: C_18  and  C_22
REMARK   12  A    between atoms: C_21  and  C_23
REMARK                            x       y       z     vdW  Elec       q    Type
REMARK                         _______ _______ _______ _____ _____    ______ ____
ROOT
ATOM      4  O   UNL     1      11.841   3.798   2.610  0.00  0.00    -0.275 OA
ATOM      7  N   UNL     1      11.586   6.096   2.732  0.00  0.00    -0.287 N 
ATOM     12  C   UNL     1      12.137   7.715   4.374  0.00  0.00    +0.105 C 
ATOM     13  C   UNL     1      11.896   6.222   4.153  0.00  0.00    +0.182 C 
ATOM     14  C   UNL     1      11.290   8.379   3.285  0.00  0.00    +0.043 C 
ATOM     15  C   UNL     1      11.368   7.403   2.117  0.00  0.00    +0.110 C 
ATOM     17  C   UNL     1      11.657   4.885   2.060  0.00  0.00    +0.226 C 
ENDROOT
BRANCH  12   8
ATOM      5  O   UNL     1      13.809   9.014   6.302  0.00  0.00    -0.252 OA
ATOM      8  N   UNL     1      13.536   8.041   4.222  0.00  0.00    -0.294 N 
ATOM     10  N   UNL     1      15.601   8.864   4.792  0.00  0.00    -0.269 N 
ATOM     20  C   UNL     1      14.283   8.680   5.219  0.00  0.00    +0.304 C 
ATOM     37  H   UNL     1      14.016   7.737   3.382  0.00  0.00    +0.151 HD
ATOM     39  H   UNL     1      15.831   8.528   3.860  0.00  0.00    +0.156 HD
BRANCH  10  24
ATOM     24  C   UNL     1      16.666   9.468   5.501  0.00  0.00    +0.036 A 
ATOM     28  C   UNL     1      17.827   8.743   5.766  0.00  0.00    +0.038 A 
ATOM     29  C   UNL     1      16.554  10.789   5.933  0.00  0.00    +0.023 A 
ATOM     33  C   UNL     1      18.877   9.340   6.466  0.00  0.00    +0.009 A 
ATOM     34  C   UNL     1      17.603  11.386   6.631  0.00  0.00    +0.003 A 
ATOM     35  C   UNL     1      18.765  10.661   6.898  0.00  0.00    +0.015 A 
BRANCH  33   2
ATOM      2  S   UNL     1      20.362   8.414   6.807  0.00  0.00    -0.129 S 
ATOM     36  C   UNL     1      20.572   7.475   5.268  0.00  0.00    +0.090 C 
ENDBRANCH  33   2
ENDBRANCH  10  24
ENDBRANCH  12   8
BRANCH  13  16
ATOM      3  O   UNL     1       9.817   5.067   4.355  0.00  0.00    -0.274 OA
ATOM      9  N   UNL     1      10.675   6.177   6.213  0.00  0.00    -0.302 N 
ATOM     16  C   UNL     1      10.685   5.745   4.898  0.00  0.00    +0.236 C 
ATOM     38  H   UNL     1      11.476   6.692   6.568  0.00  0.00    +0.150 HD
BRANCH   9  18
ATOM     18  C   UNL     1       9.607   5.872   7.137  0.00  0.00    +0.163 C 
BRANCH  18  22
ATOM      6  O   UNL     1      10.561   5.456   9.332  0.00  0.00    -0.274 OA
ATOM     11  N   UNL     1      10.251   3.675   7.915  0.00  0.00    -0.328 N 
ATOM     22  C   UNL     1      10.203   5.014   8.243  0.00  0.00    +0.231 C 
ATOM     40  H   UNL     1      10.614   2.992   8.570  0.00  0.00    +0.145 HD
ATOM     41  H   UNL     1       9.929   3.321   7.019  0.00  0.00    +0.145 HD
ENDBRANCH  18  22
BRANCH  18  21
ATOM     21  C   UNL     1       8.971   7.137   7.725  0.00  0.00    +0.067 C 
BRANCH  21  23
ATOM     23  C   UNL     1       8.759   8.218   6.693  0.00  0.00    -0.045 A 
ATOM     25  C   UNL     1       7.958   7.969   5.579  0.00  0.00    +0.004 A 
ATOM     26  C   UNL     1       9.362   9.465   6.854  0.00  0.00    +0.004 A 
ATOM     30  C   UNL     1       7.761   8.968   4.625  0.00  0.00    +0.000 A 
ATOM     31  C   UNL     1       9.165  10.463   5.900  0.00  0.00    +0.000 A 
ATOM     32  C   UNL     1       8.365  10.215   4.785  0.00  0.00    +0.000 A 
ENDBRANCH  21  23
ENDBRANCH  18  21
ENDBRANCH   9  18
ENDBRANCH  13  16
BRANCH  17  19
ATOM     19  C   UNL     1      11.482   4.960   0.563  0.00  0.00    +0.164 C 
BRANCH  19   1
ATOM      1  S   UNL     1      12.795   3.991  -0.191  0.00  0.00    -0.155 S 
ATOM     27  C   UNL     1      14.201   5.049   0.230  0.00  0.00    +0.085 C 
ENDBRANCH  19   1
ENDBRANCH  17  19
TORSDOF 10
ENDMDL
MODEL 5
REMARK VINA RESULT:      -6.4     26.414     32.378
REMARK  Name = 11882080
REMARK  12 active torsions:
REMARK  status: ('A' for Active; 'I' for Inactive)
REMARK    1  A    between atoms: S_1  and  C_19
REMARK    2  A    between atoms: S_1  and  C_27
REMARK    3  A    between atoms: S_2  and  C_33
REMARK    4  A    between atoms: S_2  and  C_36
REMARK    5  A    between atoms: N_8  and  C_12
REMARK    6  A    between atoms: N_9  and  C_18
REMARK    7  A    between atoms: N_10  and  C_24
REMARK    8  A    between atoms: C_13  and  C_16
REMARK    9  A    between atoms: C_17  and  C_19
REMARK   10  A    between atoms: C_18  and  C_21
REMARK   11  A    between atoms: C_18  and  C_22
REMARK   12  A    between atoms: C_21  and  C_23
REMARK                            x       y       z     vdW  Elec       q    Type
REMARK                         _______ _______ _______ _____ _____    ______ ____
ROOT
ATOM      4  O   UNL     1      13.004   4.534   1.790  0.00  0.00    -0.275 OA
ATOM      7  N   UNL     1      14.064   6.589   1.673  0.00  0.00    -0.287 N 
ATOM     12  C   UNL     1      15.150   7.959   3.275  0.00  0.00    +0.105 C 
ATOM     13  C   UNL     1      14.154   6.812   3.113  0.00  0.00    +0.182 C 
ATOM     14  C   UNL     1      15.013   8.738   1.964  0.00  0.00    +0.043 C 
ATOM     15  C   UNL     1      14.721   7.660   0.928  0.00  0.00    +0.110 C 
ATOM     17  C   UNL     1      13.554   5.418   1.132  0.00  0.00    +0.226 C 
ENDROOT
BRANCH  12   8
ATOM      5  O   UNL     1      17.416   9.433   4.219  0.00  0.00    -0.252 OA
ATOM      8  N   UNL     1      16.493   7.458   3.449  0.00  0.00    -0.294 N 
ATOM     10  N   UNL     1      18.724   7.498   3.984  0.00  0.00    -0.269 N 
ATOM     20  C   UNL     1      17.548   8.249   3.918  0.00  0.00    +0.304 C 
ATOM     37  H   UNL     1      16.667   6.472   3.286  0.00  0.00    +0.151 HD
ATOM     39  H   UNL     1      18.662   6.525   3.696  0.00  0.00    +0.156 HD
BRANCH  10  24
ATOM     24  C   UNL     1      20.006   7.926   4.404  0.00  0.00    +0.036 A 
ATOM     28  C   UNL     1      20.947   8.338   3.462  0.00  0.00    +0.038 A 
ATOM     29  C   UNL     1      20.326   7.937   5.761  0.00  0.00    +0.023 A 
ATOM     33  C   UNL     1      22.211   8.760   3.877  0.00  0.00    +0.009 A 
ATOM     34  C   UNL     1      21.588   8.359   6.176  0.00  0.00    +0.003 A 
ATOM     35  C   UNL     1      22.531   8.771   5.234  0.00  0.00    +0.015 A 
BRANCH  33   2
ATOM      2  S   UNL     1      23.416   9.287   2.674  0.00  0.00    -0.129 S 
ATOM     36  C   UNL     1      24.971   9.023   3.570  0.00  0.00    +0.090 C 
ENDBRANCH  33   2
ENDBRANCH  10  24
ENDBRANCH  12   8
BRANCH  13  16
ATOM      3  O   UNL     1      12.433   8.382   3.634  0.00  0.00    -0.274 OA
ATOM      9  N   UNL     1      12.009   6.111   3.915  0.00  0.00    -0.302 N 
ATOM     16  C   UNL     1      12.781   7.206   3.570  0.00  0.00    +0.236 C 
ATOM     38  H   UNL     1      12.385   5.178   3.771  0.00  0.00    +0.150 HD
BRANCH   9  18
ATOM     18  C   UNL     1      10.655   6.222   4.407  0.00  0.00    +0.163 C 
BRANCH  18  22
ATOM      6  O   UNL     1       9.886   6.021   2.111  0.00  0.00    -0.274 OA
ATOM     11  N   UNL     1       8.783   7.466   3.516  0.00  0.00    -0.328 N 
ATOM     22  C   UNL     1       9.769   6.549   3.214  0.00  0.00    +0.231 C 
ATOM     40  H   UNL     1       8.115   7.761   2.812  0.00  0.00    +0.145 HD
ATOM     41  H   UNL     1       8.684   7.876   4.439  0.00  0.00    +0.145 HD
ENDBRANCH  18  22
BRANCH  18  21
ATOM     21  C   UNL     1      10.178   4.934   5.090  0.00  0.00    +0.067 C 
BRANCH  21  23
ATOM     23  C   UNL     1       9.815   5.141   6.540  0.00  0.00    -0.045 A 
ATOM     25  C   UNL     1       9.370   6.389   6.974  0.00  0.00    +0.004 A 
ATOM     26  C   UNL     1       9.922   4.085   7.444  0.00  0.00    +0.004 A 
ATOM     30  C   UNL     1       9.033   6.581   8.314  0.00  0.00    +0.000 A 
ATOM     31  C   UNL     1       9.585   4.277   8.784  0.00  0.00    +0.000 A 
ATOM     32  C   UNL     1       9.141   5.525   9.219  0.00  0.00    +0.000 A 
ENDBRANCH  21  23
ENDBRANCH  18  21
ENDBRANCH   9  18
ENDBRANCH  13  16
BRANCH  17  19
ATOM     19  C   UNL     1      13.700   5.276  -0.363  0.00  0.00    +0.164 C 
BRANCH  19   1
ATOM      1  S   UNL     1      15.074   4.159  -0.675  0.00  0.00    -0.155 S 
ATOM     27  C   UNL     1      16.094   5.250  -1.698  0.00  0.00    +0.085 C 
ENDBRANCH  19   1
ENDBRANCH  17  19
TORSDOF 10
ENDMDL
MODEL 6
REMARK VINA RESULT:      -6.3     25.516     29.635
REMARK  Name = 11882080
REMARK  12 active torsions:
REMARK  status: ('A' for Active; 'I' for Inactive)
REMARK    1  A    between atoms: S_1  and  C_19
REMARK    2  A    between atoms: S_1  and  C_27
REMARK    3  A    between atoms: S_2  and  C_33
REMARK    4  A    between atoms: S_2  and  C_36
REMARK    5  A    between atoms: N_8  and  C_12
REMARK    6  A    between atoms: N_9  and  C_18
REMARK    7  A    between atoms: N_10  and  C_24
REMARK    8  A    between atoms: C_13  and  C_16
REMARK    9  A    between atoms: C_17  and  C_19
REMARK   10  A    between atoms: C_18  and  C_21
REMARK   11  A    between atoms: C_18  and  C_22
REMARK   12  A    between atoms: C_21  and  C_23
REMARK                            x       y       z     vdW  Elec       q    Type
REMARK                         _______ _______ _______ _____ _____    ______ ____
ROOT
ATOM      4  O   UNL     1      14.955   6.960   5.990  0.00  0.00    -0.275 OA
ATOM      7  N   UNL     1      13.473   8.727   5.781  0.00  0.00    -0.287 N 
ATOM     12  C   UNL     1      11.789   9.620   7.189  0.00  0.00    +0.105 C 
ATOM     13  C   UNL     1      12.634   8.375   6.922  0.00  0.00    +0.182 C 
ATOM     14  C   UNL     1      11.697  10.291   5.816  0.00  0.00    +0.043 C 
ATOM     15  C   UNL     1      13.041   9.980   5.169  0.00  0.00    +0.110 C 
ATOM     17  C   UNL     1      14.620   8.018   5.454  0.00  0.00    +0.226 C 
ENDROOT
BRANCH  12   8
ATOM      5  O   UNL     1      10.525  10.988   9.365  0.00  0.00    -0.252 OA
ATOM      8  N   UNL     1      12.429  10.483   8.154  0.00  0.00    -0.294 N 
ATOM     10  N   UNL     1      12.611  11.884   9.962  0.00  0.00    -0.269 N 
ATOM     20  C   UNL     1      11.735  11.116   9.191  0.00  0.00    +0.304 C 
ATOM     37  H   UNL     1      13.437  10.586   8.118  0.00  0.00    +0.151 HD
ATOM     39  H   UNL     1      13.588  11.883   9.681  0.00  0.00    +0.156 HD
BRANCH  10  24
ATOM     24  C   UNL     1      12.306  12.673  11.097  0.00  0.00    +0.036 A 
ATOM     28  C   UNL     1      11.261  13.596  11.044  0.00  0.00    +0.038 A 
ATOM     29  C   UNL     1      13.050  12.528  12.267  0.00  0.00    +0.023 A 
ATOM     33  C   UNL     1      10.961  14.374  12.163  0.00  0.00    +0.009 A 
ATOM     34  C   UNL     1      12.750  13.305  13.385  0.00  0.00    +0.003 A 
ATOM     35  C   UNL     1      11.706  14.228  13.333  0.00  0.00    +0.015 A 
BRANCH  33   2
ATOM      2  S   UNL     1       9.627  15.553  12.097  0.00  0.00    -0.129 S 
ATOM     36  C   UNL     1       8.242  14.514  11.553  0.00  0.00    +0.090 C 
ENDBRANCH  33   2
ENDBRANCH  10  24
ENDBRANCH  12   8
BRANCH  13  16
ATOM      3  O   UNL     1      12.035   6.578   5.469  0.00  0.00    -0.274 OA
ATOM      9  N   UNL     1      10.720   6.999   7.344  0.00  0.00    -0.302 N 
ATOM     16  C   UNL     1      11.786   7.218   6.487  0.00  0.00    +0.236 C 
ATOM     38  H   UNL     1      10.642   7.560   8.187  0.00  0.00    +0.150 HD
BRANCH   9  18
ATOM     18  C   UNL     1       9.741   5.957   7.135  0.00  0.00    +0.163 C 
BRANCH  18  22
ATOM      6  O   UNL     1       9.043   5.444   9.406  0.00  0.00    -0.274 OA
ATOM     11  N   UNL     1      10.408   3.953   8.313  0.00  0.00    -0.328 N 
ATOM     22  C   UNL     1       9.690   5.128   8.410  0.00  0.00    +0.231 C 
ATOM     40  H   UNL     1      10.446   3.302   9.089  0.00  0.00    +0.145 HD
ATOM     41  H   UNL     1      10.918   3.694   7.475  0.00  0.00    +0.145 HD
ENDBRANCH  18  22
BRANCH  18  21
ATOM     21  C   UNL     1       8.353   6.523   6.811  0.00  0.00    +0.067 C 
BRANCH  21  23
ATOM     23  C   UNL     1       8.355   7.412   5.592  0.00  0.00    -0.045 A 
ATOM     25  C   UNL     1       8.048   8.767   5.717  0.00  0.00    +0.004 A 
ATOM     26  C   UNL     1       8.666   6.881   4.341  0.00  0.00    +0.004 A 
ATOM     30  C   UNL     1       8.050   9.590   4.591  0.00  0.00    +0.000 A 
ATOM     31  C   UNL     1       8.668   7.703   3.214  0.00  0.00    +0.000 A 
ATOM     32  C   UNL     1       8.360   9.058   3.339  0.00  0.00    +0.000 A 
ENDBRANCH  21  23
ENDBRANCH  18  21
ENDBRANCH   9  18
ENDBRANCH  13  16
BRANCH  17  19
ATOM     19  C   UNL     1      15.466   8.619   4.360  0.00  0.00    +0.164 C 
BRANCH  19   1
ATOM      1  S   UNL     1      17.133   8.819   5.005  0.00  0.00    -0.155 S 
ATOM     27  C   UNL     1      16.820  10.167   6.173  0.00  0.00    +0.085 C 
ENDBRANCH  19   1
ENDBRANCH  17  19
TORSDOF 10
ENDMDL
MODEL 7
REMARK VINA RESULT:      -6.3      3.250      4.240
REMARK  Name = 11882080
REMARK  12 active torsions:
REMARK  status: ('A' for Active; 'I' for Inactive)
REMARK    1  A    between atoms: S_1  and  C_19
REMARK    2  A    between atoms: S_1  and  C_27
REMARK    3  A    between atoms: S_2  and  C_33
REMARK    4  A    between atoms: S_2  and  C_36
REMARK    5  A    between atoms: N_8  and  C_12
REMARK    6  A    between atoms: N_9  and  C_18
REMARK    7  A    between atoms: N_10  and  C_24
REMARK    8  A    between atoms: C_13  and  C_16
REMARK    9  A    between atoms: C_17  and  C_19
REMARK   10  A    between atoms: C_18  and  C_21
REMARK   11  A    between atoms: C_18  and  C_22
REMARK   12  A    between atoms: C_21  and  C_23
REMARK                            x       y       z     vdW  Elec       q    Type
REMARK                         _______ _______ _______ _____ _____    ______ ____
ROOT
ATOM      4  O   UNL     1      -8.169 -13.628  16.221  0.00  0.00    -0.275 OA
ATOM      7  N   UNL     1      -7.382 -12.288  17.938  0.00  0.00    -0.287 N 
ATOM     12  C   UNL     1      -6.724 -10.014  18.063  0.00  0.00    +0.105 C 
ATOM     13  C   UNL     1      -6.954 -11.175  17.096  0.00  0.00    +0.182 C 
ATOM     14  C   UNL     1      -6.361 -10.710  19.377  0.00  0.00    +0.043 C 
ATOM     15  C   UNL     1      -7.192 -11.987  19.354  0.00  0.00    +0.110 C 
ATOM     17  C   UNL     1      -8.028 -13.403  17.424  0.00  0.00    +0.226 C 
ENDROOT
BRANCH  12   8
ATOM      5  O   UNL     1      -8.496  -9.198  15.966  0.00  0.00    -0.252 OA
ATOM      8  N   UNL     1      -7.918  -9.214  18.205  0.00  0.00    -0.294 N 
ATOM     10  N   UNL     1      -9.811  -8.086  17.563  0.00  0.00    -0.269 N 
ATOM     20  C   UNL     1      -8.732  -8.858  17.124  0.00  0.00    +0.304 C 
ATOM     37  H   UNL     1      -8.217  -8.951  19.138  0.00  0.00    +0.151 HD
ATOM     39  H   UNL     1      -9.858  -7.893  18.560  0.00  0.00    +0.156 HD
BRANCH  10  24
ATOM     24  C   UNL     1     -10.855  -7.531  16.786  0.00  0.00    +0.036 A 
ATOM     28  C   UNL     1     -12.121  -8.114  16.801  0.00  0.00    +0.038 A 
ATOM     29  C   UNL     1     -10.616  -6.401  16.005  0.00  0.00    +0.023 A 
ATOM     33  C   UNL     1     -13.150  -7.567  16.033  0.00  0.00    +0.009 A 
ATOM     34  C   UNL     1     -11.645  -5.854  15.238  0.00  0.00    +0.003 A 
ATOM     35  C   UNL     1     -12.912  -6.437  15.253  0.00  0.00    +0.015 A 
BRANCH  33   2
ATOM      2  S   UNL     1     -14.770  -8.311  16.051  0.00  0.00    -0.129 S 
ATOM     36  C   UNL     1     -14.907  -8.937  14.354  0.00  0.00    +0.090 C 
ENDBRANCH  33   2
ENDBRANCH  10  24
ENDBRANCH  12   8
BRANCH  13  16
ATOM      3  O   UNL     1      -4.629 -11.715  17.069  0.00  0.00    -0.274 OA
ATOM      9  N   UNL     1      -5.834 -11.822  15.081  0.00  0.00    -0.302 N 
ATOM     16  C   UNL     1      -5.676 -11.603  16.439  0.00  0.00    +0.236 C 
ATOM     38  H   UNL     1      -6.763 -11.749  14.675  0.00  0.00    +0.150 HD
BRANCH   9  18
ATOM     18  C   UNL     1      -4.749 -12.221  14.213  0.00  0.00    +0.163 C 
BRANCH  18  22
ATOM      6  O   UNL     1      -5.266 -14.587  14.020  0.00  0.00    -0.274 OA
ATOM     11  N   UNL     1      -3.348 -13.968  15.123  0.00  0.00    -0.328 N 
ATOM     22  C   UNL     1      -4.518 -13.707  14.440  0.00  0.00    +0.231 C 
ATOM     40  H   UNL     1      -3.068 -14.921  15.329  0.00  0.00    +0.145 HD
ATOM     41  H   UNL     1      -2.728 -13.231  15.443  0.00  0.00    +0.145 HD
ENDBRANCH  18  22
BRANCH  18  21
ATOM     21  C   UNL     1      -5.058 -11.947  12.736  0.00  0.00    +0.067 C 
BRANCH  21  23
ATOM     23  C   UNL     1      -4.033 -11.054  12.081  0.00  0.00    -0.045 A 
ATOM     25  C   UNL     1      -4.410 -10.213  11.033  0.00  0.00    +0.004 A 
ATOM     26  C   UNL     1      -2.711 -11.068  12.523  0.00  0.00    +0.004 A 
ATOM     30  C   UNL     1      -3.463  -9.387  10.428  0.00  0.00    +0.000 A 
ATOM     31  C   UNL     1      -1.764 -10.241  11.917  0.00  0.00    +0.000 A 
ATOM     32  C   UNL     1      -2.140  -9.401  10.870  0.00  0.00    +0.000 A 
ENDBRANCH  21  23
ENDBRANCH  18  21
ENDBRANCH   9  18
ENDBRANCH  13  16
BRANCH  17  19
ATOM     19  C   UNL     1      -8.561 -14.374  18.449  0.00  0.00    +0.164 C 
BRANCH  19   1
ATOM      1  S   UNL     1     -10.334 -14.526  18.187  0.00  0.00    -0.155 S 
ATOM     27  C   UNL     1     -10.854 -12.933  18.871  0.00  0.00    +0.085 C 
ENDBRANCH  19   1
ENDBRANCH  17  19
TORSDOF 10
ENDMDL
MODEL 8
REMARK VINA RESULT:      -6.2     28.965     32.795
REMARK  Name = 11882080
REMARK  12 active torsions:
REMARK  status: ('A' for Active; 'I' for Inactive)
REMARK    1  A    between atoms: S_1  and  C_19
REMARK    2  A    between atoms: S_1  and  C_27
REMARK    3  A    between atoms: S_2  and  C_33
REMARK    4  A    between atoms: S_2  and  C_36
REMARK    5  A    between atoms: N_8  and  C_12
REMARK    6  A    between atoms: N_9  and  C_18
REMARK    7  A    between atoms: N_10  and  C_24
REMARK    8  A    between atoms: C_13  and  C_16
REMARK    9  A    between atoms: C_17  and  C_19
REMARK   10  A    between atoms: C_18  and  C_21
REMARK   11  A    between atoms: C_18  and  C_22
REMARK   12  A    between atoms: C_21  and  C_23
REMARK                            x       y       z     vdW  Elec       q    Type
REMARK                         _______ _______ _______ _____ _____    ______ ____
ROOT
ATOM      4  O   UNL     1      20.462   6.491  25.833  0.00  0.00    -0.275 OA
ATOM      7  N   UNL     1      20.417   8.196  24.268  0.00  0.00    -0.287 N 
ATOM     12  C   UNL     1      19.700   8.322  22.011  0.00  0.00    +0.105 C 
ATOM     13  C   UNL     1      20.129   7.353  23.112  0.00  0.00    +0.182 C 
ATOM     14  C   UNL     1      20.424   9.621  22.377  0.00  0.00    +0.043 C 
ATOM     15  C   UNL     1      20.445   9.610  23.901  0.00  0.00    +0.110 C 
ATOM     17  C   UNL     1      20.488   7.692  25.558  0.00  0.00    +0.226 C 
ENDROOT
BRANCH  12   8
ATOM      5  O   UNL     1      17.826   7.134  20.201  0.00  0.00    -0.252 OA
ATOM      8  N   UNL     1      18.267   8.503  22.011  0.00  0.00    -0.294 N 
ATOM     10  N   UNL     1      16.091   8.242  21.330  0.00  0.00    -0.269 N 
ATOM     20  C   UNL     1      17.419   7.882  21.086  0.00  0.00    +0.304 C 
ATOM     37  H   UNL     1      17.848   9.053  22.753  0.00  0.00    +0.151 HD
ATOM     39  H   UNL     1      15.924   8.876  22.107  0.00  0.00    +0.156 HD
BRANCH  10  24
ATOM     24  C   UNL     1      14.937   7.831  20.622  0.00  0.00    +0.036 A 
ATOM     28  C   UNL     1      13.824   7.357  21.316  0.00  0.00    +0.038 A 
ATOM     29  C   UNL     1      14.913   7.901  19.229  0.00  0.00    +0.023 A 
ATOM     33  C   UNL     1      12.687   6.952  20.617  0.00  0.00    +0.009 A 
ATOM     34  C   UNL     1      13.776   7.496  18.531  0.00  0.00    +0.003 A 
ATOM     35  C   UNL     1      12.663   7.021  19.225  0.00  0.00    +0.015 A 
BRANCH  33   2
ATOM      2  S   UNL     1      11.264   6.345  21.503  0.00  0.00    -0.129 S 
ATOM     36  C   UNL     1      10.642   7.861  22.283  0.00  0.00    +0.090 C 
ENDBRANCH  33   2
ENDBRANCH  10  24
ENDBRANCH  12   8
BRANCH  13  16
ATOM      3  O   UNL     1      22.206   7.131  21.955  0.00  0.00    -0.274 OA
ATOM      9  N   UNL     1      21.551   5.452  23.428  0.00  0.00    -0.302 N 
ATOM     16  C   UNL     1      21.411   6.657  22.762  0.00  0.00    +0.236 C 
ATOM     38  H   UNL     1      20.851   5.184  24.114  0.00  0.00    +0.150 HD
BRANCH   9  18
ATOM     18  C   UNL     1      22.688   4.578  23.249  0.00  0.00    +0.163 C 
BRANCH  18  22
ATOM      6  O   UNL     1      22.799   2.484  24.477  0.00  0.00    -0.274 OA
ATOM     11  N   UNL     1      22.923   4.455  25.652  0.00  0.00    -0.328 N 
ATOM     22  C   UNL     1      22.790   3.713  24.496  0.00  0.00    +0.231 C 
ATOM     40  H   UNL     1      23.014   4.000  26.554  0.00  0.00    +0.145 HD
ATOM     41  H   UNL     1      22.938   5.470  25.649  0.00  0.00    +0.145 HD
ENDBRANCH  18  22
BRANCH  18  21
ATOM     21  C   UNL     1      22.551   3.699  21.999  0.00  0.00    +0.067 C 
BRANCH  21  23
ATOM     23  C   UNL     1      23.842   3.576  21.227  0.00  0.00    -0.045 A 
ATOM     25  C   UNL     1      24.090   4.420  20.145  0.00  0.00    +0.004 A 
ATOM     26  C   UNL     1      24.788   2.621  21.597  0.00  0.00    +0.004 A 
ATOM     30  C   UNL     1      25.283   4.308  19.431  0.00  0.00    +0.000 A 
ATOM     31  C   UNL     1      25.982   2.508  20.883  0.00  0.00    +0.000 A 
ATOM     32  C   UNL     1      26.229   3.351  19.801  0.00  0.00    +0.000 A 
ENDBRANCH  21  23
ENDBRANCH  18  21
ENDBRANCH   9  18
ENDBRANCH  13  16
BRANCH  17  19
ATOM     19  C   UNL     1      20.613   8.722  26.653  0.00  0.00    +0.164 C 
BRANCH  19   1
ATOM      1  S   UNL     1      21.908   8.174  27.773  0.00  0.00    -0.155 S 
ATOM     27  C   UNL     1      23.287   9.133  27.098  0.00  0.00    +0.085 C 
ENDBRANCH  19   1
ENDBRANCH  17  19
TORSDOF 10
ENDMDL
MODEL 9
REMARK VINA RESULT:      -6.2     21.957     25.111
REMARK  Name = 11882080
REMARK  12 active torsions:
REMARK  status: ('A' for Active; 'I' for Inactive)
REMARK    1  A    between atoms: S_1  and  C_19
REMARK    2  A    between atoms: S_1  and  C_27
REMARK    3  A    between atoms: S_2  and  C_33
REMARK    4  A    between atoms: S_2  and  C_36
REMARK    5  A    between atoms: N_8  and  C_12
REMARK    6  A    between atoms: N_9  and  C_18
REMARK    7  A    between atoms: N_10  and  C_24
REMARK    8  A    between atoms: C_13  and  C_16
REMARK    9  A    between atoms: C_17  and  C_19
REMARK   10  A    between atoms: C_18  and  C_21
REMARK   11  A    between atoms: C_18  and  C_22
REMARK   12  A    between atoms: C_21  and  C_23
REMARK                            x       y       z     vdW  Elec       q    Type
REMARK                         _______ _______ _______ _____ _____    ______ ____
ROOT
ATOM      4  O   UNL     1      -0.776   9.185   4.700  0.00  0.00    -0.275 OA
ATOM      7  N   UNL     1      -2.857  10.187   4.870  0.00  0.00    -0.287 N 
ATOM     12  C   UNL     1      -4.915   9.878   3.735  0.00  0.00    +0.105 C 
ATOM     13  C   UNL     1      -3.410   9.630   3.640  0.00  0.00    +0.182 C 
ATOM     14  C   UNL     1      -5.016  11.124   4.619  0.00  0.00    +0.043 C 
ATOM     15  C   UNL     1      -3.852  10.977   5.591  0.00  0.00    +0.110 C 
ATOM     17  C   UNL     1      -1.594   9.853   5.335  0.00  0.00    +0.226 C 
ENDROOT
BRANCH  12   8
ATOM      5  O   UNL     1      -7.592   9.006   3.213  0.00  0.00    -0.252 OA
ATOM      8  N   UNL     1      -5.588   8.751   4.337  0.00  0.00    -0.294 N 
ATOM     10  N   UNL     1      -7.286   7.266   4.760  0.00  0.00    -0.269 N 
ATOM     20  C   UNL     1      -6.904   8.392   4.025  0.00  0.00    +0.304 C 
ATOM     37  H   UNL     1      -5.064   8.154   4.968  0.00  0.00    +0.151 HD
ATOM     39  H   UNL     1      -6.593   6.877   5.394  0.00  0.00    +0.156 HD
BRANCH  10  24
ATOM     24  C   UNL     1      -8.531   6.594   4.734  0.00  0.00    +0.036 A 
ATOM     28  C   UNL     1      -9.656   7.186   5.306  0.00  0.00    +0.038 A 
ATOM     29  C   UNL     1      -8.631   5.338   4.135  0.00  0.00    +0.023 A 
ATOM     33  C   UNL     1     -10.883   6.522   5.280  0.00  0.00    +0.009 A 
ATOM     34  C   UNL     1      -9.858   4.675   4.109  0.00  0.00    +0.003 A 
ATOM     35  C   UNL     1     -10.984   5.267   4.681  0.00  0.00    +0.015 A 
BRANCH  33   2
ATOM      2  S   UNL     1     -12.322   7.278   6.011  0.00  0.00    -0.129 S 
ATOM     36  C   UNL     1     -13.659   6.253   5.337  0.00  0.00    +0.090 C 
ENDBRANCH  33   2
ENDBRANCH  10  24
ENDBRANCH  12   8
BRANCH  13  16
ATOM      3  O   UNL     1      -3.123  11.557   2.261  0.00  0.00    -0.274 OA
ATOM      9  N   UNL     1      -1.874   9.647   1.803  0.00  0.00    -0.302 N 
ATOM     16  C   UNL     1      -2.797  10.399   2.508  0.00  0.00    +0.236 C 
ATOM     38  H   UNL     1      -1.646   8.713   2.131  0.00  0.00    +0.150 HD
BRANCH   9  18
ATOM     18  C   UNL     1      -1.158  10.150   0.652  0.00  0.00    +0.163 C 
BRANCH  18  22
ATOM      6  O   UNL     1       1.214  10.475   0.241  0.00  0.00    -0.274 OA
ATOM     11  N   UNL     1       0.520  10.044   2.389  0.00  0.00    -0.328 N 
ATOM     22  C   UNL     1       0.311  10.228   1.038  0.00  0.00    +0.231 C 
ATOM     40  H   UNL     1       1.455  10.085   2.780  0.00  0.00    +0.145 HD
ATOM     41  H   UNL     1      -0.238   9.865   3.038  0.00  0.00    +0.145 HD
ENDBRANCH  18  22
BRANCH  18  21
ATOM     21  C   UNL     1      -1.341   9.255  -0.580  0.00  0.00    +0.067 C 
BRANCH  21  23
ATOM     23  C   UNL     1      -2.439   9.738  -1.495  0.00  0.00    -0.045 A 
ATOM     25  C   UNL     1      -2.118  10.390  -2.686  0.00  0.00    +0.004 A 
ATOM     26  C   UNL     1      -3.775   9.533  -1.151  0.00  0.00    +0.004 A 
ATOM     30  C   UNL     1      -3.133  10.836  -3.532  0.00  0.00    +0.000 A 
ATOM     31  C   UNL     1      -4.790   9.979  -1.997  0.00  0.00    +0.000 A 
ATOM     32  C   UNL     1      -4.470  10.631  -3.187  0.00  0.00    +0.000 A 
ENDBRANCH  21  23
ENDBRANCH  18  21
ENDBRANCH   9  18
ENDBRANCH  13  16
BRANCH  17  19
ATOM     19  C   UNL     1      -1.248  10.375   6.708  0.00  0.00    +0.164 C 
BRANCH  19   1
ATOM      1  S   UNL     1      -0.074  11.722   6.501  0.00  0.00    -0.155 S 
ATOM     27  C   UNL     1       0.183  12.140   8.243  0.00  0.00    +0.085 C 
ENDBRANCH  19   1
ENDBRANCH  17  19
TORSDOF 10
ENDMDL
MODEL 10
REMARK VINA RESULT:      -6.2     25.714     29.859
REMARK  Name = 11882080
REMARK  12 active torsions:
REMARK  status: ('A' for Active; 'I' for Inactive)
REMARK    1  A    between atoms: S_1  and  C_19
REMARK    2  A    between atoms: S_1  and  C_27
REMARK    3  A    between atoms: S_2  and  C_33
REMARK    4  A    between atoms: S_2  and  C_36
REMARK    5  A    between atoms: N_8  and  C_12
REMARK    6  A    between atoms: N_9  and  C_18
REMARK    7  A    between atoms: N_10  and  C_24
REMARK    8  A    between atoms: C_13  and  C_16
REMARK    9  A    between atoms: C_17  and  C_19
REMARK   10  A    between atoms: C_18  and  C_21
REMARK   11  A    between atoms: C_18  and  C_22
REMARK   12  A    between atoms: C_21  and  C_23
REMARK                            x       y       z     vdW  Elec       q    Type
REMARK                         _______ _______ _______ _____ _____    ______ ____
ROOT
ATOM      4  O   UNL     1      15.048   7.029   5.836  0.00  0.00    -0.275 OA
ATOM      7  N   UNL     1      13.588   8.819   5.679  0.00  0.00    -0.287 N 
ATOM     12  C   UNL     1      11.944   9.717   7.131  0.00  0.00    +0.105 C 
ATOM     13  C   UNL     1      12.765   8.464   6.831  0.00  0.00    +0.182 C 
ATOM     14  C   UNL     1      11.836  10.408   5.769  0.00  0.00    +0.043 C 
ATOM     15  C   UNL     1      13.163  10.087   5.092  0.00  0.00    +0.110 C 
ATOM     17  C   UNL     1      14.718   8.098   5.321  0.00  0.00    +0.226 C 
ENDROOT
BRANCH  12   8
ATOM      5  O   UNL     1      10.742  11.069   9.352  0.00  0.00    -0.252 OA
ATOM      8  N   UNL     1      12.614  10.558   8.095  0.00  0.00    -0.294 N 
ATOM     10  N   UNL     1      12.852  11.929   9.920  0.00  0.00    -0.269 N 
ATOM     20  C   UNL     1      11.950  11.184   9.156  0.00  0.00    +0.304 C 
ATOM     37  H   UNL     1      13.624  10.648   8.040  0.00  0.00    +0.151 HD
ATOM     39  H   UNL     1      13.823  11.919   9.619  0.00  0.00    +0.156 HD
BRANCH  10  24
ATOM     24  C   UNL     1      12.580  12.705  11.071  0.00  0.00    +0.036 A 
ATOM     28  C   UNL     1      13.383  12.578  12.204  0.00  0.00    +0.038 A 
ATOM     29  C   UNL     1      11.508  13.597  11.072  0.00  0.00    +0.023 A 
ATOM     33  C   UNL     1      13.114  13.344  13.339  0.00  0.00    +0.009 A 
ATOM     34  C   UNL     1      11.240  14.363  12.206  0.00  0.00    +0.003 A 
ATOM     35  C   UNL     1      12.043  14.236  13.340  0.00  0.00    +0.015 A 
BRANCH  33   2
ATOM      2  S   UNL     1      14.140  13.182  14.788  0.00  0.00    -0.129 S 
ATOM     36  C   UNL     1      14.601  11.428  14.719  0.00  0.00    +0.090 C 
ENDBRANCH  33   2
ENDBRANCH  10  24
ENDBRANCH  12   8
BRANCH  13  16
ATOM      3  O   UNL     1      11.958   6.853   5.265  0.00  0.00    -0.274 OA
ATOM      9  N   UNL     1      11.027   6.917   7.398  0.00  0.00    -0.302 N 
ATOM     16  C   UNL     1      11.892   7.325   6.397  0.00  0.00    +0.236 C 
ATOM     38  H   UNL     1      11.098   7.348   8.316  0.00  0.00    +0.150 HD
BRANCH   9  18
ATOM     18  C   UNL     1      10.067   5.851   7.226  0.00  0.00    +0.163 C 
BRANCH  18  22
ATOM      6  O   UNL     1      10.274   5.331   9.591  0.00  0.00    -0.274 OA
ATOM     11  N   UNL     1      10.168   3.595   8.089  0.00  0.00    -0.328 N 
ATOM     22  C   UNL     1      10.197   4.932   8.431  0.00  0.00    +0.231 C 
ATOM     40  H   UNL     1      10.232   2.875   8.800  0.00  0.00    +0.145 HD
ATOM     41  H   UNL     1      10.079   3.280   7.128  0.00  0.00    +0.145 HD
ENDBRANCH  18  22
BRANCH  18  21
ATOM     21  C   UNL     1       8.631   6.379   7.110  0.00  0.00    +0.067 C 
BRANCH  21  23
ATOM     23  C   UNL     1       8.455   7.343   5.962  0.00  0.00    -0.045 A 
ATOM     25  C   UNL     1       8.456   6.871   4.650  0.00  0.00    +0.004 A 
ATOM     26  C   UNL     1       8.290   8.705   6.214  0.00  0.00    +0.004 A 
ATOM     30  C   UNL     1       8.293   7.762   3.589  0.00  0.00    +0.000 A 
ATOM     31  C   UNL     1       8.127   9.595   5.152  0.00  0.00    +0.000 A 
ATOM     32  C   UNL     1       8.129   9.124   3.840  0.00  0.00    +0.000 A 
ENDBRANCH  21  23
ENDBRANCH  18  21
ENDBRANCH   9  18
ENDBRANCH  13  16
BRANCH  17  19
ATOM     19  C   UNL     1      15.552   8.702   4.219  0.00  0.00    +0.164 C 
BRANCH  19   1
ATOM      1  S   UNL     1      17.282   8.451   4.643  0.00  0.00    -0.155 S 
ATOM     27  C   UNL     1      17.945  10.031   4.061  0.00  0.00    +0.085 C 
ENDBRANCH  19   1
ENDBRANCH  17  19
TORSDOF 10
ENDMDL
