MODEL 1
REMARK VINA RESULT:      -7.9      0.000      0.000
REMARK  Name = 26742482
REMARK  9 active torsions:
REMARK  status: ('A' for Active; 'I' for Inactive)
REMARK    1  A    between atoms: N_4  and  C_15
REMARK    2  A    between atoms: N_7  and  C_29
REMARK    3  A    between atoms: N_7  and  C_32
REMARK    4  A    between atoms: N_7  and  C_33
REMARK    5  A    between atoms: C_9  and  C_16
REMARK    6  A    between atoms: C_10  and  C_15
REMARK    7  A    between atoms: C_18  and  C_21
REMARK    8  A    between atoms: C_19  and  C_22
REMARK    9  A    between atoms: C_20  and  C_23
REMARK                            x       y       z     vdW  Elec       q    Type
REMARK                         _______ _______ _______ _____ _____    ______ ____
ROOT
ATOM      3  N   UNL     1      12.707   7.065  19.635  0.00  0.00    -0.297 NA
ATOM      8  C   UNL     1      14.121   9.146  18.966  0.00  0.00    +0.002 C 
ATOM      9  C   UNL     1      15.047   7.944  19.299  0.00  0.00    +0.055 C 
ATOM     10  C   UNL     1      12.259   8.253  20.407  0.00  0.00    +0.074 C 
ATOM     11  C   UNL     1      13.215   9.444  20.179  0.00  0.00    +0.024 C 
ATOM     12  C   UNL     1      13.201   8.693  17.812  0.00  0.00    +0.019 C 
ATOM     13  C   UNL     1      14.149   6.814  19.880  0.00  0.00    +0.094 C 
ATOM     14  C   UNL     1      12.526   7.364  18.195  0.00  0.00    +0.085 C 
ENDROOT
BRANCH   9  16
ATOM      5  N   UNL     1      16.358   9.406  20.758  0.00  0.00    -0.237 NA
ATOM      6  N   UNL     1      18.464   8.719  21.707  0.00  0.00    -0.232 NA
ATOM     16  C   UNL     1      16.278   8.200  20.157  0.00  0.00    +0.050 A 
ATOM     17  C   UNL     1      17.238   7.216  20.282  0.00  0.00    +0.052 A 
ATOM     18  C   UNL     1      18.319   7.535  21.077  0.00  0.00    +0.075 A 
ATOM     19  C   UNL     1      17.461   9.595  21.506  0.00  0.00    +0.127 A 
ATOM     22  C   UNL     1      17.587  10.917  22.184  0.00  0.00    +0.088 C 
BRANCH  18  21
ATOM     21  C   UNL     1      19.392   6.593  21.288  0.00  0.00    +0.001 A 
ATOM     24  C   UNL     1      19.667   5.620  20.327  0.00  0.00    +0.012 A 
ATOM     25  C   UNL     1      20.155   6.654  22.455  0.00  0.00    +0.012 A 
ATOM     27  C   UNL     1      20.703   4.710  20.530  0.00  0.00    +0.024 A 
ATOM     28  C   UNL     1      21.192   5.743  22.659  0.00  0.00    +0.024 A 
ATOM     29  C   UNL     1      21.465   4.772  21.696  0.00  0.00    +0.029 A 
BRANCH  29   7
ATOM      7  N   UNL     1      22.513   3.850  21.903  0.00  0.00    -0.336 N 
ATOM     32  C   UNL     1      22.559   3.047  23.107  0.00  0.00    +0.129 C 
ATOM     33  C   UNL     1      23.556   3.691  20.908  0.00  0.00    +0.129 C 
ENDBRANCH  29   7
ENDBRANCH  18  21
ENDBRANCH   9  16
BRANCH  10  15
ATOM     15  C   UNL     1      12.075   7.946  21.895  0.00  0.00    +0.123 C 
BRANCH  15   4
ATOM      1  O   UNL     1       9.900   9.523  22.908  0.00  0.00    -0.267 OA
ATOM      4  N   UNL     1      12.176   9.138  22.679  0.00  0.00    -0.307 N 
ATOM     20  C   UNL     1      11.064   9.846  23.131  0.00  0.00    +0.279 C 
ATOM     34  H   UNL     1      13.104   9.486  22.905  0.00  0.00    +0.149 HD
BRANCH  20  23
ATOM      2  O   UNL     1      10.284  11.872  24.240  0.00  0.00    -0.458 OA
ATOM     23  C   UNL     1      11.339  11.079  23.911  0.00  0.00    +0.189 A 
ATOM     26  C   UNL     1      12.511  11.610  24.397  0.00  0.00    +0.054 A 
ATOM     30  C   UNL     1      12.155  12.804  25.067  0.00  0.00    +0.042 A 
ATOM     31  C   UNL     1      10.789  12.919  24.943  0.00  0.00    +0.196 A 
ENDBRANCH  20  23
ENDBRANCH  15   4
ENDBRANCH  10  15
TORSDOF 6
ENDMDL
MODEL 2
REMARK VINA RESULT:      -7.8     26.519     30.302
REMARK  Name = 26742482
REMARK  9 active torsions:
REMARK  status: ('A' for Active; 'I' for Inactive)
REMARK    1  A    between atoms: N_4  and  C_15
REMARK    2  A    between atoms: N_7  and  C_29
REMARK    3  A    between atoms: N_7  and  C_32
REMARK    4  A    between atoms: N_7  and  C_33
REMARK    5  A    between atoms: C_9  and  C_16
REMARK    6  A    between atoms: C_10  and  C_15
REMARK    7  A    between atoms: C_18  and  C_21
REMARK    8  A    between atoms: C_19  and  C_22
REMARK    9  A    between atoms: C_20  and  C_23
REMARK                            x       y       z     vdW  Elec       q    Type
REMARK                         _______ _______ _______ _____ _____    ______ ____
ROOT
ATOM      3  N   UNL     1      -7.479 -11.664  17.724  0.00  0.00    -0.297 NA
ATOM      8  C   UNL     1      -5.045 -11.117  18.471  0.00  0.00    +0.002 C 
ATOM      9  C   UNL     1      -5.364 -10.430  17.114  0.00  0.00    +0.055 C 
ATOM     10  C   UNL     1      -6.767 -12.915  18.094  0.00  0.00    +0.074 C 
ATOM     11  C   UNL     1      -5.268 -12.638  18.339  0.00  0.00    +0.024 C 
ATOM     12  C   UNL     1      -6.079 -10.592  19.489  0.00  0.00    +0.019 C 
ATOM     13  C   UNL     1      -6.747 -10.964  16.639  0.00  0.00    +0.094 C 
ATOM     14  C   UNL     1      -7.496 -10.782  18.916  0.00  0.00    +0.085 C 
ENDROOT
BRANCH   9  16
ATOM      5  N   UNL     1      -3.024 -10.459  16.404  0.00  0.00    -0.237 NA
ATOM      6  N   UNL     1      -2.387 -10.591  14.084  0.00  0.00    -0.232 NA
ATOM     16  C   UNL     1      -4.315 -10.490  16.013  0.00  0.00    +0.050 A 
ATOM     17  C   UNL     1      -4.715 -10.571  14.695  0.00  0.00    +0.052 A 
ATOM     18  C   UNL     1      -3.697 -10.619  13.764  0.00  0.00    +0.075 A 
ATOM     19  C   UNL     1      -2.126 -10.512  15.403  0.00  0.00    +0.127 A 
ATOM     22  C   UNL     1      -0.687 -10.478  15.795  0.00  0.00    +0.088 C 
BRANCH  18  21
ATOM     21  C   UNL     1      -3.983 -10.703  12.352  0.00  0.00    +0.001 A 
ATOM     24  C   UNL     1      -3.337 -11.655  11.564  0.00  0.00    +0.012 A 
ATOM     25  C   UNL     1      -4.906  -9.830  11.774  0.00  0.00    +0.012 A 
ATOM     27  C   UNL     1      -3.614 -11.736  10.200  0.00  0.00    +0.024 A 
ATOM     28  C   UNL     1      -5.182  -9.910  10.409  0.00  0.00    +0.024 A 
ATOM     29  C   UNL     1      -4.536 -10.863   9.623  0.00  0.00    +0.029 A 
BRANCH  29   7
ATOM      7  N   UNL     1      -4.816 -10.945   8.243  0.00  0.00    -0.336 N 
ATOM     32  C   UNL     1      -4.505 -12.149   7.499  0.00  0.00    +0.129 C 
ATOM     33  C   UNL     1      -5.425  -9.826   7.550  0.00  0.00    +0.129 C 
ENDBRANCH  29   7
ENDBRANCH  18  21
ENDBRANCH   9  16
BRANCH  10  15
ATOM     15  C   UNL     1      -6.980 -14.031  17.069  0.00  0.00    +0.123 C 
BRANCH  15   4
ATOM      1  O   UNL     1      -6.665 -13.606  14.246  0.00  0.00    -0.267 OA
ATOM      4  N   UNL     1      -5.794 -14.250  16.298  0.00  0.00    -0.307 N 
ATOM     20  C   UNL     1      -5.728 -14.017  14.925  0.00  0.00    +0.279 C 
ATOM     34  H   UNL     1      -4.969 -14.600  16.777  0.00  0.00    +0.149 HD
BRANCH  20  23
ATOM      2  O   UNL     1      -3.297 -13.855  14.854  0.00  0.00    -0.458 OA
ATOM     23  C   UNL     1      -4.432 -14.319  14.267  0.00  0.00    +0.189 A 
ATOM     26  C   UNL     1      -4.131 -15.014  13.118  0.00  0.00    +0.054 A 
ATOM     30  C   UNL     1      -2.723 -14.975  12.992  0.00  0.00    +0.042 A 
ATOM     31  C   UNL     1      -2.262 -14.259  14.072  0.00  0.00    +0.196 A 
ENDBRANCH  20  23
ENDBRANCH  15   4
ENDBRANCH  10  15
TORSDOF 6
ENDMDL
MODEL 3
REMARK VINA RESULT:      -7.6      2.748      6.119
REMARK  Name = 26742482
REMARK  9 active torsions:
REMARK  status: ('A' for Active; 'I' for Inactive)
REMARK    1  A    between atoms: N_4  and  C_15
REMARK    2  A    between atoms: N_7  and  C_29
REMARK    3  A    between atoms: N_7  and  C_32
REMARK    4  A    between atoms: N_7  and  C_33
REMARK    5  A    between atoms: C_9  and  C_16
REMARK    6  A    between atoms: C_10  and  C_15
REMARK    7  A    between atoms: C_18  and  C_21
REMARK    8  A    between atoms: C_19  and  C_22
REMARK    9  A    between atoms: C_20  and  C_23
REMARK                            x       y       z     vdW  Elec       q    Type
REMARK                         _______ _______ _______ _____ _____    ______ ____
ROOT
ATOM      3  N   UNL     1      13.167  14.324  22.342  0.00  0.00    -0.297 NA
ATOM      8  C   UNL     1      11.072  12.815  22.680  0.00  0.00    +0.002 C 
ATOM      9  C   UNL     1      12.361  12.059  23.107  0.00  0.00    +0.055 C 
ATOM     10  C   UNL     1      12.341  14.317  21.106  0.00  0.00    +0.074 C 
ATOM     11  C   UNL     1      11.211  13.271  21.213  0.00  0.00    +0.024 C 
ATOM     12  C   UNL     1      10.996  14.090  23.547  0.00  0.00    +0.019 C 
ATOM     13  C   UNL     1      13.574  12.939  22.690  0.00  0.00    +0.094 C 
ATOM     14  C   UNL     1      12.330  14.852  23.445  0.00  0.00    +0.085 C 
ENDROOT
BRANCH   9  16
ATOM      5  N   UNL     1      11.405   9.854  22.652  0.00  0.00    -0.237 NA
ATOM      6  N   UNL     1      12.750   8.002  21.900  0.00  0.00    -0.232 NA
ATOM     16  C   UNL     1      12.523  10.610  22.671  0.00  0.00    +0.050 A 
ATOM     17  C   UNL     1      13.773  10.139  22.323  0.00  0.00    +0.052 A 
ATOM     18  C   UNL     1      13.826   8.814  21.942  0.00  0.00    +0.075 A 
ATOM     19  C   UNL     1      11.589   8.579  22.263  0.00  0.00    +0.127 A 
ATOM     22  C   UNL     1      10.377   7.710  22.231  0.00  0.00    +0.088 C 
BRANCH  18  21
ATOM     21  C   UNL     1      15.074   8.201  21.555  0.00  0.00    +0.001 A 
ATOM     24  C   UNL     1      15.088   6.899  21.056  0.00  0.00    +0.012 A 
ATOM     25  C   UNL     1      16.269   8.911  21.682  0.00  0.00    +0.012 A 
ATOM     27  C   UNL     1      16.293   6.307  20.682  0.00  0.00    +0.024 A 
ATOM     28  C   UNL     1      17.476   8.319  21.309  0.00  0.00    +0.024 A 
ATOM     29  C   UNL     1      17.487   7.017  20.809  0.00  0.00    +0.029 A 
BRANCH  29   7
ATOM      7  N   UNL     1      18.707   6.418  20.431  0.00  0.00    -0.336 N 
ATOM     32  C   UNL     1      18.723   5.297  19.514  0.00  0.00    +0.129 C 
ATOM     33  C   UNL     1      19.964   6.922  20.950  0.00  0.00    +0.129 C 
ENDBRANCH  29   7
ENDBRANCH  18  21
ENDBRANCH   9  16
BRANCH  10  15
ATOM     15  C   UNL     1      13.184  14.121  19.844  0.00  0.00    +0.123 C 
BRANCH  15   4
ATOM      1  O   UNL     1      15.286  12.179  19.609  0.00  0.00    -0.267 OA
ATOM      4  N   UNL     1      13.061  12.783  19.351  0.00  0.00    -0.307 N 
ATOM     20  C   UNL     1      14.138  11.903  19.270  0.00  0.00    +0.279 C 
ATOM     34  H   UNL     1      12.146  12.469  19.039  0.00  0.00    +0.149 HD
BRANCH  20  23
ATOM      2  O   UNL     1      12.597  10.057  18.869  0.00  0.00    -0.458 OA
ATOM     23  C   UNL     1      13.851  10.557  18.711  0.00  0.00    +0.189 A 
ATOM     26  C   UNL     1      14.643   9.666  18.025  0.00  0.00    +0.054 A 
ATOM     30  C   UNL     1      13.823   8.547  17.744  0.00  0.00    +0.042 A 
ATOM     31  C   UNL     1      12.588   8.835  18.278  0.00  0.00    +0.196 A 
ENDBRANCH  20  23
ENDBRANCH  15   4
ENDBRANCH  10  15
TORSDOF 6
ENDMDL
MODEL 4
REMARK VINA RESULT:      -7.5     29.640     33.010
REMARK  Name = 26742482
REMARK  9 active torsions:
REMARK  status: ('A' for Active; 'I' for Inactive)
REMARK    1  A    between atoms: N_4  and  C_15
REMARK    2  A    between atoms: N_7  and  C_29
REMARK    3  A    between atoms: N_7  and  C_32
REMARK    4  A    between atoms: N_7  and  C_33
REMARK    5  A    between atoms: C_9  and  C_16
REMARK    6  A    between atoms: C_10  and  C_15
REMARK    7  A    between atoms: C_18  and  C_21
REMARK    8  A    between atoms: C_19  and  C_22
REMARK    9  A    between atoms: C_20  and  C_23
REMARK                            x       y       z     vdW  Elec       q    Type
REMARK                         _______ _______ _______ _____ _____    ______ ____
ROOT
ATOM      3  N   UNL     1     -18.529   2.907  25.930  0.00  0.00    -0.297 NA
ATOM      8  C   UNL     1     -16.757   1.002  26.028  0.00  0.00    +0.002 C 
ATOM      9  C   UNL     1     -17.238   1.370  27.459  0.00  0.00    +0.055 C 
ATOM     10  C   UNL     1     -17.336   3.280  25.126  0.00  0.00    +0.074 C 
ATOM     11  C   UNL     1     -16.195   2.262  25.338  0.00  0.00    +0.024 C 
ATOM     12  C   UNL     1     -18.008   0.569  25.235  0.00  0.00    +0.019 C 
ATOM     13  C   UNL     1     -18.132   2.638  27.335  0.00  0.00    +0.094 C 
ATOM     14  C   UNL     1     -19.088   1.658  25.360  0.00  0.00    +0.085 C 
ENDROOT
BRANCH   9  16
ATOM      5  N   UNL     1     -15.392   0.441  28.768  0.00  0.00    -0.237 NA
ATOM      6  N   UNL     1     -14.300   1.692  30.515  0.00  0.00    -0.232 NA
ATOM     16  C   UNL     1     -16.193   1.507  28.557  0.00  0.00    +0.050 A 
ATOM     17  C   UNL     1     -16.108   2.684  29.274  0.00  0.00    +0.052 A 
ATOM     18  C   UNL     1     -15.134   2.719  30.250  0.00  0.00    +0.075 A 
ATOM     19  C   UNL     1     -14.483   0.600  29.747  0.00  0.00    +0.127 A 
ATOM     22  C   UNL     1     -13.581  -0.558  30.013  0.00  0.00    +0.088 C 
BRANCH  18  21
ATOM     21  C   UNL     1     -14.944   3.891  31.070  0.00  0.00    +0.001 A 
ATOM     24  C   UNL     1     -15.713   5.033  30.846  0.00  0.00    +0.012 A 
ATOM     25  C   UNL     1     -13.988   3.883  32.087  0.00  0.00    +0.012 A 
ATOM     27  C   UNL     1     -15.530   6.165  31.638  0.00  0.00    +0.024 A 
ATOM     28  C   UNL     1     -13.804   5.017  32.880  0.00  0.00    +0.024 A 
ATOM     29  C   UNL     1     -14.575   6.157  32.655  0.00  0.00    +0.029 A 
BRANCH  29   7
ATOM      7  N   UNL     1     -14.388   7.302  33.456  0.00  0.00    -0.336 N 
ATOM     32  C   UNL     1     -13.435   7.289  34.547  0.00  0.00    +0.129 C 
ATOM     33  C   UNL     1     -15.144   8.512  33.194  0.00  0.00    +0.129 C 
ENDBRANCH  29   7
ENDBRANCH  18  21
ENDBRANCH   9  16
BRANCH  10  15
ATOM     15  C   UNL     1     -16.879   4.715  25.396  0.00  0.00    +0.123 C 
BRANCH  15   4
ATOM      1  O   UNL     1     -17.010   5.957  22.810  0.00  0.00    -0.267 OA
ATOM      4  N   UNL     1     -15.772   5.064  24.558  0.00  0.00    -0.307 N 
ATOM     20  C   UNL     1     -15.926   5.667  23.311  0.00  0.00    +0.279 C 
ATOM     34  H   UNL     1     -14.835   4.852  24.888  0.00  0.00    +0.149 HD
BRANCH  20  23
ATOM      2  O   UNL     1     -14.564   7.147  21.933  0.00  0.00    -0.458 OA
ATOM     23  C   UNL     1     -14.680   5.941  22.552  0.00  0.00    +0.189 A 
ATOM     26  C   UNL     1     -13.555   5.179  22.338  0.00  0.00    +0.054 A 
ATOM     30  C   UNL     1     -12.693   5.966  21.538  0.00  0.00    +0.042 A 
ATOM     31  C   UNL     1     -13.352   7.153  21.319  0.00  0.00    +0.196 A 
ENDBRANCH  20  23
ENDBRANCH  15   4
ENDBRANCH  10  15
TORSDOF 6
ENDMDL
MODEL 5
REMARK VINA RESULT:      -7.4      2.820      5.528
REMARK  Name = 26742482
REMARK  9 active torsions:
REMARK  status: ('A' for Active; 'I' for Inactive)
REMARK    1  A    between atoms: N_4  and  C_15
REMARK    2  A    between atoms: N_7  and  C_29
REMARK    3  A    between atoms: N_7  and  C_32
REMARK    4  A    between atoms: N_7  and  C_33
REMARK    5  A    between atoms: C_9  and  C_16
REMARK    6  A    between atoms: C_10  and  C_15
REMARK    7  A    between atoms: C_18  and  C_21
REMARK    8  A    between atoms: C_19  and  C_22
REMARK    9  A    between atoms: C_20  and  C_23
REMARK                            x       y       z     vdW  Elec       q    Type
REMARK                         _______ _______ _______ _____ _____    ______ ____
ROOT
ATOM      3  N   UNL     1      13.479  13.062  22.620  0.00  0.00    -0.297 NA
ATOM      8  C   UNL     1      11.897  10.993  22.629  0.00  0.00    +0.002 C 
ATOM      9  C   UNL     1      13.375  10.549  22.812  0.00  0.00    +0.055 C 
ATOM     10  C   UNL     1      12.567  13.115  21.448  0.00  0.00    +0.074 C 
ATOM     11  C   UNL     1      11.766  11.801  21.320  0.00  0.00    +0.024 C 
ATOM     12  C   UNL     1      11.575  11.956  23.791  0.00  0.00    +0.019 C 
ATOM     13  C   UNL     1      14.267  11.804  22.594  0.00  0.00    +0.094 C 
ATOM     14  C   UNL     1      12.645  13.061  23.846  0.00  0.00    +0.085 C 
ENDROOT
BRANCH   9  16
ATOM      5  N   UNL     1      12.926   8.581  21.430  0.00  0.00    -0.237 NA
ATOM      6  N   UNL     1      14.691   7.175  20.586  0.00  0.00    -0.232 NA
ATOM     16  C   UNL     1      13.868   9.346  22.019  0.00  0.00    +0.050 A 
ATOM     17  C   UNL     1      15.223   9.094  21.938  0.00  0.00    +0.052 A 
ATOM     18  C   UNL     1      15.579   7.983  21.201  0.00  0.00    +0.075 A 
ATOM     19  C   UNL     1      13.401   7.527  20.740  0.00  0.00    +0.127 A 
ATOM     22  C   UNL     1      12.389   6.655  20.076  0.00  0.00    +0.088 C 
BRANCH  18  21
ATOM     21  C   UNL     1      16.964   7.610  21.040  0.00  0.00    +0.001 A 
ATOM     24  C   UNL     1      17.974   8.493  21.418  0.00  0.00    +0.012 A 
ATOM     25  C   UNL     1      17.292   6.363  20.504  0.00  0.00    +0.012 A 
ATOM     27  C   UNL     1      19.312   8.132  21.263  0.00  0.00    +0.024 A 
ATOM     28  C   UNL     1      18.631   6.002  20.348  0.00  0.00    +0.024 A 
ATOM     29  C   UNL     1      19.640   6.887  20.728  0.00  0.00    +0.029 A 
BRANCH  29   7
ATOM      7  N   UNL     1      20.993   6.522  20.570  0.00  0.00    -0.336 N 
ATOM     32  C   UNL     1      21.371   5.127  20.465  0.00  0.00    +0.129 C 
ATOM     33  C   UNL     1      22.025   7.539  20.504  0.00  0.00    +0.129 C 
ENDBRANCH  29   7
ENDBRANCH  18  21
ENDBRANCH   9  16
BRANCH  10  15
ATOM     15  C   UNL     1      13.303  13.464  20.153  0.00  0.00    +0.123 C 
BRANCH  15   4
ATOM      1  O   UNL     1      15.307  11.578  19.333  0.00  0.00    -0.267 OA
ATOM      4  N   UNL     1      13.151  12.422  19.183  0.00  0.00    -0.307 N 
ATOM     20  C   UNL     1      14.181  11.547  18.843  0.00  0.00    +0.279 C 
ATOM     34  H   UNL     1      12.253  12.327  18.718  0.00  0.00    +0.149 HD
BRANCH  20  23
ATOM      2  O   UNL     1      14.700  10.459  16.724  0.00  0.00    -0.458 OA
ATOM     23  C   UNL     1      13.871  10.537  17.799  0.00  0.00    +0.189 A 
ATOM     26  C   UNL     1      12.859   9.612  17.696  0.00  0.00    +0.054 A 
ATOM     30  C   UNL     1      13.079   8.922  16.481  0.00  0.00    +0.042 A 
ATOM     31  C   UNL     1      14.210   9.474  15.927  0.00  0.00    +0.196 A 
ENDBRANCH  20  23
ENDBRANCH  15   4
ENDBRANCH  10  15
TORSDOF 6
ENDMDL
MODEL 6
REMARK VINA RESULT:      -7.3     26.795     30.125
REMARK  Name = 26742482
REMARK  9 active torsions:
REMARK  status: ('A' for Active; 'I' for Inactive)
REMARK    1  A    between atoms: N_4  and  C_15
REMARK    2  A    between atoms: N_7  and  C_29
REMARK    3  A    between atoms: N_7  and  C_32
REMARK    4  A    between atoms: N_7  and  C_33
REMARK    5  A    between atoms: C_9  and  C_16
REMARK    6  A    between atoms: C_10  and  C_15
REMARK    7  A    between atoms: C_18  and  C_21
REMARK    8  A    between atoms: C_19  and  C_22
REMARK    9  A    between atoms: C_20  and  C_23
REMARK                            x       y       z     vdW  Elec       q    Type
REMARK                         _______ _______ _______ _____ _____    ______ ____
ROOT
ATOM      3  N   UNL     1      -7.710 -10.446  17.935  0.00  0.00    -0.297 NA
ATOM      8  C   UNL     1      -5.715 -12.118  17.911  0.00  0.00    +0.002 C 
ATOM      9  C   UNL     1      -5.254 -10.715  17.426  0.00  0.00    +0.055 C 
ATOM     10  C   UNL     1      -8.101 -11.693  17.228  0.00  0.00    +0.074 C 
ATOM     11  C   UNL     1      -6.876 -12.610  17.022  0.00  0.00    +0.024 C 
ATOM     12  C   UNL     1      -6.279 -11.933  19.335  0.00  0.00    +0.019 C 
ATOM     13  C   UNL     1      -6.529  -9.836  17.274  0.00  0.00    +0.094 C 
ATOM     14  C   UNL     1      -7.331 -10.809  19.321  0.00  0.00    +0.085 C 
ENDROOT
BRANCH   9  16
ATOM      5  N   UNL     1      -3.024 -10.740  16.420  0.00  0.00    -0.237 NA
ATOM      6  N   UNL     1      -2.683 -10.503  14.047  0.00  0.00    -0.232 NA
ATOM     16  C   UNL     1      -4.352 -10.638  16.202  0.00  0.00    +0.050 A 
ATOM     17  C   UNL     1      -4.913 -10.470  14.952  0.00  0.00    +0.052 A 
ATOM     18  C   UNL     1      -4.021 -10.409  13.901  0.00  0.00    +0.075 A 
ATOM     19  C   UNL     1      -2.260 -10.665  15.315  0.00  0.00    +0.127 A 
ATOM     22  C   UNL     1      -0.786 -10.771  15.515  0.00  0.00    +0.088 C 
BRANCH  18  21
ATOM     21  C   UNL     1      -4.481 -10.235  12.544  0.00  0.00    +0.001 A 
ATOM     24  C   UNL     1      -5.837 -10.041  12.285  0.00  0.00    +0.012 A 
ATOM     25  C   UNL     1      -3.567 -10.260  11.490  0.00  0.00    +0.012 A 
ATOM     27  C   UNL     1      -6.281  -9.872  10.975  0.00  0.00    +0.024 A 
ATOM     28  C   UNL     1      -4.011 -10.092  10.178  0.00  0.00    +0.024 A 
ATOM     29  C   UNL     1      -5.367  -9.898   9.921  0.00  0.00    +0.029 A 
BRANCH  29   7
ATOM      7  N   UNL     1      -5.816  -9.727   8.595  0.00  0.00    -0.336 N 
ATOM     32  C   UNL     1      -6.911  -8.825   8.299  0.00  0.00    +0.129 C 
ATOM     33  C   UNL     1      -5.182 -10.448   7.507  0.00  0.00    +0.129 C 
ENDBRANCH  29   7
ENDBRANCH  18  21
ENDBRANCH   9  16
BRANCH  10  15
ATOM     15  C   UNL     1      -8.832 -11.413  15.913  0.00  0.00    +0.123 C 
BRANCH  15   4
ATOM      1  O   UNL     1      -8.858  -9.249  14.026  0.00  0.00    -0.267 OA
ATOM      4  N   UNL     1      -9.600 -10.209  16.003  0.00  0.00    -0.307 N 
ATOM     20  C   UNL     1      -9.552  -9.205  15.038  0.00  0.00    +0.279 C 
ATOM     34  H   UNL     1     -10.199 -10.082  16.815  0.00  0.00    +0.149 HD
BRANCH  20  23
ATOM      2  O   UNL     1     -11.362  -7.706  14.389  0.00  0.00    -0.458 OA
ATOM     23  C   UNL     1     -10.390  -8.005  15.292  0.00  0.00    +0.189 A 
ATOM     26  C   UNL     1     -10.381  -7.085  16.314  0.00  0.00    +0.054 A 
ATOM     30  C   UNL     1     -11.413  -6.162  16.021  0.00  0.00    +0.042 A 
ATOM     31  C   UNL     1     -11.979  -6.583  14.841  0.00  0.00    +0.196 A 
ENDBRANCH  20  23
ENDBRANCH  15   4
ENDBRANCH  10  15
TORSDOF 6
ENDMDL
MODEL 7
REMARK VINA RESULT:      -7.2      1.256      2.043
REMARK  Name = 26742482
REMARK  9 active torsions:
REMARK  status: ('A' for Active; 'I' for Inactive)
REMARK    1  A    between atoms: N_4  and  C_15
REMARK    2  A    between atoms: N_7  and  C_29
REMARK    3  A    between atoms: N_7  and  C_32
REMARK    4  A    between atoms: N_7  and  C_33
REMARK    5  A    between atoms: C_9  and  C_16
REMARK    6  A    between atoms: C_10  and  C_15
REMARK    7  A    between atoms: C_18  and  C_21
REMARK    8  A    between atoms: C_19  and  C_22
REMARK    9  A    between atoms: C_20  and  C_23
REMARK                            x       y       z     vdW  Elec       q    Type
REMARK                         _______ _______ _______ _____ _____    ______ ____
ROOT
ATOM      3  N   UNL     1      12.375   8.688  21.097  0.00  0.00    -0.297 NA
ATOM      8  C   UNL     1      14.008   7.519  19.439  0.00  0.00    +0.002 C 
ATOM      9  C   UNL     1      14.626   7.573  20.863  0.00  0.00    +0.055 C 
ATOM     10  C   UNL     1      12.544   9.521  19.877  0.00  0.00    +0.074 C 
ATOM     11  C   UNL     1      13.661   8.950  18.977  0.00  0.00    +0.024 C 
ATOM     12  C   UNL     1      12.677   6.746  19.560  0.00  0.00    +0.019 C 
ATOM     13  C   UNL     1      13.692   8.456  21.740  0.00  0.00    +0.094 C 
ATOM     14  C   UNL     1      11.826   7.375  20.678  0.00  0.00    +0.085 C 
ENDROOT
BRANCH   9  16
ATOM      5  N   UNL     1      16.365   9.292  20.951  0.00  0.00    -0.237 NA
ATOM      6  N   UNL     1      18.695   8.749  21.229  0.00  0.00    -0.232 NA
ATOM     16  C   UNL     1      16.089   7.972  20.997  0.00  0.00    +0.050 A 
ATOM     17  C   UNL     1      17.050   6.994  21.156  0.00  0.00    +0.052 A 
ATOM     18  C   UNL     1      18.349   7.445  21.267  0.00  0.00    +0.075 A 
ATOM     19  C   UNL     1      17.668   9.605  21.071  0.00  0.00    +0.127 A 
ATOM     22  C   UNL     1      18.013  11.055  21.022  0.00  0.00    +0.088 C 
BRANCH  18  21
ATOM     21  C   UNL     1      19.446   6.523  21.436  0.00  0.00    +0.001 A 
ATOM     24  C   UNL     1      20.178   6.517  22.623  0.00  0.00    +0.012 A 
ATOM     25  C   UNL     1      19.775   5.636  20.409  0.00  0.00    +0.012 A 
ATOM     27  C   UNL     1      21.237   5.626  22.785  0.00  0.00    +0.024 A 
ATOM     28  C   UNL     1      20.835   4.744  20.572  0.00  0.00    +0.024 A 
ATOM     29  C   UNL     1      21.566   4.739  21.759  0.00  0.00    +0.029 A 
BRANCH  29   7
ATOM      7  N   UNL     1      22.638   3.837  21.923  0.00  0.00    -0.336 N 
ATOM     32  C   UNL     1      23.524   3.540  20.816  0.00  0.00    +0.129 C 
ATOM     33  C   UNL     1      22.872   3.201  23.205  0.00  0.00    +0.129 C 
ENDBRANCH  29   7
ENDBRANCH  18  21
ENDBRANCH   9  16
BRANCH  10  15
ATOM     15  C   UNL     1      12.775  10.996  20.208  0.00  0.00    +0.123 C 
BRANCH  15   4
ATOM      1  O   UNL     1      11.229  13.285  20.992  0.00  0.00    -0.267 OA
ATOM      4  N   UNL     1      12.309  11.303  21.526  0.00  0.00    -0.307 N 
ATOM     20  C   UNL     1      11.562  12.442  21.820  0.00  0.00    +0.279 C 
ATOM     34  H   UNL     1      12.546  10.663  22.279  0.00  0.00    +0.149 HD
BRANCH  20  23
ATOM      2  O   UNL     1      11.425  11.610  24.108  0.00  0.00    -0.458 OA
ATOM     23  C   UNL     1      11.178  12.629  23.242  0.00  0.00    +0.189 A 
ATOM     26  C   UNL     1      10.590  13.687  23.897  0.00  0.00    +0.054 A 
ATOM     30  C   UNL     1      10.469  13.293  25.251  0.00  0.00    +0.042 A 
ATOM     31  C   UNL     1      10.991  12.022  25.327  0.00  0.00    +0.196 A 
ENDBRANCH  20  23
ENDBRANCH  15   4
ENDBRANCH  10  15
TORSDOF 6
ENDMDL
MODEL 8
REMARK VINA RESULT:      -7.0     32.758     35.467
REMARK  Name = 26742482
REMARK  9 active torsions:
REMARK  status: ('A' for Active; 'I' for Inactive)
REMARK    1  A    between atoms: N_4  and  C_15
REMARK    2  A    between atoms: N_7  and  C_29
REMARK    3  A    between atoms: N_7  and  C_32
REMARK    4  A    between atoms: N_7  and  C_33
REMARK    5  A    between atoms: C_9  and  C_16
REMARK    6  A    between atoms: C_10  and  C_15
REMARK    7  A    between atoms: C_18  and  C_21
REMARK    8  A    between atoms: C_19  and  C_22
REMARK    9  A    between atoms: C_20  and  C_23
REMARK                            x       y       z     vdW  Elec       q    Type
REMARK                         _______ _______ _______ _____ _____    ______ ____
ROOT
ATOM      3  N   UNL     1       4.004 -16.983  -0.697  0.00  0.00    -0.297 NA
ATOM      8  C   UNL     1       3.800 -14.705   0.546  0.00  0.00    +0.002 C 
ATOM      9  C   UNL     1       2.542 -15.580   0.804  0.00  0.00    +0.055 C 
ATOM     10  C   UNL     1       4.298 -15.866  -1.632  0.00  0.00    +0.074 C 
ATOM     11  C   UNL     1       3.982 -14.506  -0.973  0.00  0.00    +0.024 C 
ATOM     12  C   UNL     1       5.015 -15.514   1.047  0.00  0.00    +0.019 C 
ATOM     13  C   UNL     1       2.644 -16.824  -0.125  0.00  0.00    +0.094 C 
ATOM     14  C   UNL     1       4.985 -16.917   0.412  0.00  0.00    +0.085 C 
ENDROOT
BRANCH   9  16
ATOM      5  N   UNL     1       0.702 -14.643  -0.508  0.00  0.00    -0.237 NA
ATOM      6  N   UNL     1      -1.270 -13.718   0.524  0.00  0.00    -0.232 NA
ATOM     16  C   UNL     1       1.175 -14.914   0.727  0.00  0.00    +0.050 A 
ATOM     17  C   UNL     1       0.493 -14.622   1.891  0.00  0.00    +0.052 A 
ATOM     18  C   UNL     1      -0.737 -14.018   1.726  0.00  0.00    +0.075 A 
ATOM     19  C   UNL     1      -0.508 -14.053  -0.535  0.00  0.00    +0.127 A 
ATOM     22  C   UNL     1      -1.064 -13.735  -1.882  0.00  0.00    +0.088 C 
BRANCH  18  21
ATOM     21  C   UNL     1      -1.548 -13.661   2.864  0.00  0.00    +0.001 A 
ATOM     24  C   UNL     1      -1.284 -14.220   4.114  0.00  0.00    +0.012 A 
ATOM     25  C   UNL     1      -2.600 -12.755   2.715  0.00  0.00    +0.012 A 
ATOM     27  C   UNL     1      -2.068 -13.874   5.214  0.00  0.00    +0.024 A 
ATOM     28  C   UNL     1      -3.385 -12.409   3.815  0.00  0.00    +0.024 A 
ATOM     29  C   UNL     1      -3.119 -12.969   5.064  0.00  0.00    +0.029 A 
BRANCH  29   7
ATOM      7  N   UNL     1      -3.912 -12.619   6.176  0.00  0.00    -0.336 N 
ATOM     32  C   UNL     1      -3.922 -13.451   7.363  0.00  0.00    +0.129 C 
ATOM     33  C   UNL     1      -4.724 -11.418   6.150  0.00  0.00    +0.129 C 
ENDBRANCH  29   7
ENDBRANCH  18  21
ENDBRANCH   9  16
BRANCH  10  15
ATOM     15  C   UNL     1       3.584 -16.028  -2.976  0.00  0.00    +0.123 C 
BRANCH  15   4
ATOM      1  O   UNL     1       2.882 -15.422  -5.693  0.00  0.00    -0.267 OA
ATOM      4  N   UNL     1       3.164 -14.760  -3.488  0.00  0.00    -0.307 N 
ATOM     20  C   UNL     1       2.841 -14.552  -4.828  0.00  0.00    +0.279 C 
ATOM     34  H   UNL     1       3.110 -13.976  -2.843  0.00  0.00    +0.149 HD
BRANCH  20  23
ATOM      2  O   UNL     1       1.715 -12.451  -4.314  0.00  0.00    -0.458 OA
ATOM     23  C   UNL     1       2.449 -13.170  -5.205  0.00  0.00    +0.189 A 
ATOM     26  C   UNL     1       2.693 -12.429  -6.337  0.00  0.00    +0.054 A 
ATOM     30  C   UNL     1       2.070 -11.175  -6.129  0.00  0.00    +0.042 A 
ATOM     31  C   UNL     1       1.490 -11.240  -4.884  0.00  0.00    +0.196 A 
ENDBRANCH  20  23
ENDBRANCH  15   4
ENDBRANCH  10  15
TORSDOF 6
ENDMDL
MODEL 9
REMARK VINA RESULT:      -7.0     27.883     31.908
REMARK  Name = 26742482
REMARK  9 active torsions:
REMARK  status: ('A' for Active; 'I' for Inactive)
REMARK    1  A    between atoms: N_4  and  C_15
REMARK    2  A    between atoms: N_7  and  C_29
REMARK    3  A    between atoms: N_7  and  C_32
REMARK    4  A    between atoms: N_7  and  C_33
REMARK    5  A    between atoms: C_9  and  C_16
REMARK    6  A    between atoms: C_10  and  C_15
REMARK    7  A    between atoms: C_18  and  C_21
REMARK    8  A    between atoms: C_19  and  C_22
REMARK    9  A    between atoms: C_20  and  C_23
REMARK                            x       y       z     vdW  Elec       q    Type
REMARK                         _______ _______ _______ _____ _____    ______ ____
ROOT
ATOM      3  N   UNL     1      -5.273 -12.167  17.330  0.00  0.00    -0.297 NA
ATOM      8  C   UNL     1      -6.034 -11.345  19.681  0.00  0.00    +0.002 C 
ATOM      9  C   UNL     1      -7.083 -12.322  19.080  0.00  0.00    +0.055 C 
ATOM     10  C   UNL     1      -5.182 -10.686  17.404  0.00  0.00    +0.074 C 
ATOM     11  C   UNL     1      -5.821 -10.165  18.709  0.00  0.00    +0.024 C 
ATOM     12  C   UNL     1      -4.700 -12.117  19.757  0.00  0.00    +0.019 C 
ATOM     13  C   UNL     1      -6.663 -12.607  17.610  0.00  0.00    +0.094 C 
ATOM     14  C   UNL     1      -4.390 -12.730  18.379  0.00  0.00    +0.085 C 
ENDROOT
BRANCH   9  16
ATOM      5  N   UNL     1      -9.284 -12.657  20.095  0.00  0.00    -0.237 NA
ATOM      6  N   UNL     1     -11.205 -11.351  19.455  0.00  0.00    -0.232 NA
ATOM     16  C   UNL     1      -8.556 -11.958  19.199  0.00  0.00    +0.050 A 
ATOM     17  C   UNL     1      -9.075 -10.954  18.406  0.00  0.00    +0.052 A 
ATOM     18  C   UNL     1     -10.419 -10.692  18.579  0.00  0.00    +0.075 A 
ATOM     19  C   UNL     1     -10.581 -12.307  20.170  0.00  0.00    +0.127 A 
ATOM     22  C   UNL     1     -11.419 -13.059  21.148  0.00  0.00    +0.088 C 
BRANCH  18  21
ATOM     21  C   UNL     1     -11.082  -9.667  17.810  0.00  0.00    +0.001 A 
ATOM     24  C   UNL     1     -12.399  -9.851  17.388  0.00  0.00    +0.012 A 
ATOM     25  C   UNL     1     -10.405  -8.490  17.486  0.00  0.00    +0.012 A 
ATOM     27  C   UNL     1     -13.039  -8.861  16.645  0.00  0.00    +0.024 A 
ATOM     28  C   UNL     1     -11.046  -7.499  16.741  0.00  0.00    +0.024 A 
ATOM     29  C   UNL     1     -12.362  -7.685  16.322  0.00  0.00    +0.029 A 
BRANCH  29   7
ATOM      7  N   UNL     1     -13.010  -6.683  15.569  0.00  0.00    -0.336 N 
ATOM     32  C   UNL     1     -12.239  -5.693  14.846  0.00  0.00    +0.129 C 
ATOM     33  C   UNL     1     -14.458  -6.635  15.503  0.00  0.00    +0.129 C 
ENDBRANCH  29   7
ENDBRANCH  18  21
ENDBRANCH   9  16
BRANCH  10  15
ATOM     15  C   UNL     1      -5.772 -10.004  16.168  0.00  0.00    +0.123 C 
BRANCH  15   4
ATOM      1  O   UNL     1      -5.610 -11.632  13.809  0.00  0.00    -0.267 OA
ATOM      4  N   UNL     1      -4.797  -9.904  15.126  0.00  0.00    -0.307 N 
ATOM     20  C   UNL     1      -4.791 -10.739  14.010  0.00  0.00    +0.279 C 
ATOM     34  H   UNL     1      -4.072  -9.197  15.213  0.00  0.00    +0.149 HD
BRANCH  20  23
ATOM      2  O   UNL     1      -4.034 -10.331  11.729  0.00  0.00    -0.458 OA
ATOM     23  C   UNL     1      -3.695 -10.525  13.031  0.00  0.00    +0.189 A 
ATOM     26  C   UNL     1      -2.329 -10.479  13.185  0.00  0.00    +0.054 A 
ATOM     30  C   UNL     1      -1.795 -10.242  11.897  0.00  0.00    +0.042 A 
ATOM     31  C   UNL     1      -2.873 -10.159  11.046  0.00  0.00    +0.196 A 
ENDBRANCH  20  23
ENDBRANCH  15   4
ENDBRANCH  10  15
TORSDOF 6
ENDMDL
MODEL 10
REMARK VINA RESULT:      -6.9     15.998     19.893
REMARK  Name = 26742482
REMARK  9 active torsions:
REMARK  status: ('A' for Active; 'I' for Inactive)
REMARK    1  A    between atoms: N_4  and  C_15
REMARK    2  A    between atoms: N_7  and  C_29
REMARK    3  A    between atoms: N_7  and  C_32
REMARK    4  A    between atoms: N_7  and  C_33
REMARK    5  A    between atoms: C_9  and  C_16
REMARK    6  A    between atoms: C_10  and  C_15
REMARK    7  A    between atoms: C_18  and  C_21
REMARK    8  A    between atoms: C_19  and  C_22
REMARK    9  A    between atoms: C_20  and  C_23
REMARK                            x       y       z     vdW  Elec       q    Type
REMARK                         _______ _______ _______ _____ _____    ______ ____
ROOT
ATOM      3  N   UNL     1       9.331   7.670   7.658  0.00  0.00    -0.297 NA
ATOM      8  C   UNL     1       9.917   5.447   6.435  0.00  0.00    +0.002 C 
ATOM      9  C   UNL     1      11.145   6.400   6.448  0.00  0.00    +0.055 C 
ATOM     10  C   UNL     1       8.291   7.358   6.644  0.00  0.00    +0.074 C 
ATOM     11  C   UNL     1       8.723   6.161   5.769  0.00  0.00    +0.024 C 
ATOM     12  C   UNL     1       9.533   5.196   7.909  0.00  0.00    +0.019 C 
ATOM     13  C   UNL     1      10.662   7.769   7.008  0.00  0.00    +0.094 C 
ATOM     14  C   UNL     1       9.372   6.549   8.627  0.00  0.00    +0.085 C 
ENDROOT
BRANCH   9  16
ATOM      5  N   UNL     1      13.052   7.330   5.230  0.00  0.00    -0.237 NA
ATOM      6  N   UNL     1      13.433   6.869   2.896  0.00  0.00    -0.232 NA
ATOM     16  C   UNL     1      11.950   6.554   5.165  0.00  0.00    +0.050 A 
ATOM     17  C   UNL     1      11.531   5.911   4.018  0.00  0.00    +0.052 A 
ATOM     18  C   UNL     1      12.320   6.107   2.903  0.00  0.00    +0.075 A 
ATOM     19  C   UNL     1      13.736   7.442   4.077  0.00  0.00    +0.127 A 
ATOM     22  C   UNL     1      14.960   8.294   4.108  0.00  0.00    +0.088 C 
BRANCH  18  21
ATOM     21  C   UNL     1      11.990   5.491   1.640  0.00  0.00    +0.001 A 
ATOM     24  C   UNL     1      10.731   4.923   1.448  0.00  0.00    +0.012 A 
ATOM     25  C   UNL     1      12.933   5.462   0.611  0.00  0.00    +0.012 A 
ATOM     27  C   UNL     1      10.412   4.328   0.228  0.00  0.00    +0.024 A 
ATOM     28  C   UNL     1      12.614   4.866  -0.609  0.00  0.00    +0.024 A 
ATOM     29  C   UNL     1      11.354   4.300  -0.800  0.00  0.00    +0.029 A 
BRANCH  29   7
ATOM      7  N   UNL     1      11.032   3.697  -2.035  0.00  0.00    -0.336 N 
ATOM     32  C   UNL     1      10.069   4.314  -2.925  0.00  0.00    +0.129 C 
ATOM     33  C   UNL     1      11.667   2.455  -2.433  0.00  0.00    +0.129 C 
ENDBRANCH  29   7
ENDBRANCH  18  21
ENDBRANCH   9  16
BRANCH  10  15
ATOM     15  C   UNL     1       7.918   8.578   5.798  0.00  0.00    +0.123 C 
BRANCH  15   4
ATOM      1  O   UNL     1      10.086   9.977   4.540  0.00  0.00    -0.267 OA
ATOM      4  N   UNL     1       8.368   8.420   4.449  0.00  0.00    -0.307 N 
ATOM     20  C   UNL     1       9.433   9.144   3.916  0.00  0.00    +0.279 C 
ATOM     34  H   UNL     1       7.879   7.757   3.855  0.00  0.00    +0.149 HD
BRANCH  20  23
ATOM      2  O   UNL     1      10.974   9.290   2.033  0.00  0.00    -0.458 OA
ATOM     23  C   UNL     1       9.760   8.884   2.491  0.00  0.00    +0.189 A 
ATOM     26  C   UNL     1       9.042   8.280   1.485  0.00  0.00    +0.054 A 
ATOM     30  C   UNL     1       9.867   8.317   0.336  0.00  0.00    +0.042 A 
ATOM     31  C   UNL     1      11.031   8.941   0.721  0.00  0.00    +0.196 A 
ENDBRANCH  20  23
ENDBRANCH  15   4
ENDBRANCH  10  15
TORSDOF 6
ENDMDL
