MODEL 1
REMARK VINA RESULT:      -5.4      0.000      0.000
REMARK  Name = 71693487
REMARK  12 active torsions:
REMARK  status: ('A' for Active; 'I' for Inactive)
REMARK    1  A    between atoms: S_1  and  N_10
REMARK    2  A    between atoms: S_1  and  C_24
REMARK    3  A    between atoms: O_3  and  C_13
REMARK    4  A    between atoms: N_8  and  C_16
REMARK    5  A    between atoms: N_9  and  C_26
REMARK    6  A    between atoms: N_9  and  C_27
REMARK    7  A    between atoms: N_10  and  C_21
REMARK    8  A    between atoms: C_11  and  C_13
REMARK    9  A    between atoms: C_12  and  C_14
REMARK   10  A    between atoms: C_16  and  C_20
REMARK   11  A    between atoms: C_24  and  C_25
REMARK   12  A    between atoms: C_25  and  C_28
REMARK                            x       y       z     vdW  Elec       q    Type
REMARK                         _______ _______ _______ _____ _____    ______ ____
ROOT
ATOM      2  O   UNL     1     -15.622   8.559  22.120  0.00  0.00    -0.361 OA
ATOM      4  O   UNL     1     -17.774   7.709  24.830  0.00  0.00    -0.273 OA
ATOM      8  N   UNL     1     -16.197   6.380  23.741  0.00  0.00    -0.283 N 
ATOM     11  C   UNL     1     -15.197   6.256  22.653  0.00  0.00    +0.135 C 
ATOM     12  C   UNL     1     -14.564   7.622  22.318  0.00  0.00    +0.171 C 
ATOM     15  C   UNL     1     -16.848   7.584  24.025  0.00  0.00    +0.242 C 
ATOM     17  C   UNL     1     -16.300   8.813  23.327  0.00  0.00    +0.256 C 
ENDROOT
BRANCH  12  14
ATOM     14  C   UNL     1     -13.725   7.626  21.058  0.00  0.00    -0.017 A 
ATOM     18  C   UNL     1     -14.336   7.779  19.813  0.00  0.00    +0.008 A 
ATOM     19  C   UNL     1     -12.341   7.479  21.143  0.00  0.00    +0.008 A 
ATOM     21  C   UNL     1     -12.178   7.638  18.737  0.00  0.00    +0.048 A 
ATOM     22  C   UNL     1     -13.563   7.784  18.653  0.00  0.00    +0.025 A 
ATOM     23  C   UNL     1     -11.567   7.485  19.982  0.00  0.00    +0.025 A 
BRANCH  21  10
ATOM     10  N   UNL     1     -11.386   7.644  17.548  0.00  0.00    -0.221 N 
ATOM     30  H   UNL     1     -10.818   6.795  17.422  0.00  0.00    +0.173 HD
BRANCH  10   1
ATOM      1  S   UNL     1     -10.615   9.115  17.092  0.00  0.00    +0.043 S 
ATOM      6  O   UNL     1      -9.469   9.319  17.957  0.00  0.00    -0.155 OA
ATOM      7  O   UNL     1     -10.475   9.202  15.652  0.00  0.00    -0.155 OA
BRANCH   1  24
ATOM     24  C   UNL     1     -11.856  10.288  17.592  0.00  0.00    +0.188 C 
BRANCH  24  25
ATOM     25  C   UNL     1     -11.316  11.254  18.633  0.00  0.00    +0.021 C 
ATOM     28  C   UNL     1     -12.140  11.210  19.910  0.00  0.00    +0.005 C 
ENDBRANCH  24  25
ENDBRANCH   1  24
ENDBRANCH  10   1
ENDBRANCH  21  10
ENDBRANCH  12  14
BRANCH  11  13
ATOM     13  C   UNL     1     -14.109   5.221  22.970  0.00  0.00    +0.181 C 
BRANCH  13   3
ATOM      3  O   UNL     1     -14.102   4.258  21.934  0.00  0.00    -0.393 OA
ATOM     29  H   UNL     1     -13.174   4.109  21.686  0.00  0.00    +0.209 HD
ENDBRANCH  13   3
ENDBRANCH  11  13
BRANCH   8  16
ATOM     16  C   UNL     1     -16.687   5.156  24.368  0.00  0.00    +0.204 C 
BRANCH  16  20
ATOM      5  O   UNL     1     -18.176   4.865  22.512  0.00  0.00    -0.274 OA
ATOM      9  N   UNL     1     -17.287   2.939  23.451  0.00  0.00    -0.306 N 
ATOM     20  C   UNL     1     -17.455   4.325  23.354  0.00  0.00    +0.232 C 
ATOM     26  C   UNL     1     -16.429   2.325  24.457  0.00  0.00    +0.131 C 
ATOM     27  C   UNL     1     -17.959   2.005  22.551  0.00  0.00    +0.131 C 
ENDBRANCH  16  20
ENDBRANCH   8  16
TORSDOF 9
ENDMDL
MODEL 2
REMARK VINA RESULT:      -5.4     18.444     20.271
REMARK  Name = 71693487
REMARK  12 active torsions:
REMARK  status: ('A' for Active; 'I' for Inactive)
REMARK    1  A    between atoms: S_1  and  N_10
REMARK    2  A    between atoms: S_1  and  C_24
REMARK    3  A    between atoms: O_3  and  C_13
REMARK    4  A    between atoms: N_8  and  C_16
REMARK    5  A    between atoms: N_9  and  C_26
REMARK    6  A    between atoms: N_9  and  C_27
REMARK    7  A    between atoms: N_10  and  C_21
REMARK    8  A    between atoms: C_11  and  C_13
REMARK    9  A    between atoms: C_12  and  C_14
REMARK   10  A    between atoms: C_16  and  C_20
REMARK   11  A    between atoms: C_24  and  C_25
REMARK   12  A    between atoms: C_25  and  C_28
REMARK                            x       y       z     vdW  Elec       q    Type
REMARK                         _______ _______ _______ _____ _____    ______ ____
ROOT
ATOM      2  O   UNL     1      -8.156  -9.338  16.189  0.00  0.00    -0.361 OA
ATOM      4  O   UNL     1     -11.230  -8.317  17.673  0.00  0.00    -0.273 OA
ATOM      8  N   UNL     1      -9.765  -9.999  18.352  0.00  0.00    -0.283 N 
ATOM     11  C   UNL     1      -8.523 -10.765  18.086  0.00  0.00    +0.135 C 
ATOM     12  C   UNL     1      -7.495  -9.911  17.317  0.00  0.00    +0.171 C 
ATOM     15  C   UNL     1     -10.151  -8.905  17.573  0.00  0.00    +0.242 C 
ATOM     17  C   UNL     1      -9.112  -8.390  16.597  0.00  0.00    +0.256 C 
ENDROOT
BRANCH  12  14
ATOM     14  C   UNL     1      -6.310 -10.691  16.789  0.00  0.00    -0.017 A 
ATOM     18  C   UNL     1      -6.498 -11.670  15.813  0.00  0.00    +0.008 A 
ATOM     19  C   UNL     1      -5.030 -10.429  17.277  0.00  0.00    +0.008 A 
ATOM     21  C   UNL     1      -4.125 -12.125  15.814  0.00  0.00    +0.048 A 
ATOM     22  C   UNL     1      -5.405 -12.387  15.326  0.00  0.00    +0.025 A 
ATOM     23  C   UNL     1      -3.937 -11.145  16.790  0.00  0.00    +0.025 A 
BRANCH  21  10
ATOM     10  N   UNL     1      -3.006 -12.859  15.314  0.00  0.00    -0.221 N 
ATOM     30  H   UNL     1      -2.660 -13.582  15.959  0.00  0.00    +0.173 HD
BRANCH  10   1
ATOM      1  S   UNL     1      -1.785 -11.998  14.457  0.00  0.00    +0.043 S 
ATOM      6  O   UNL     1      -1.080 -11.148  15.397  0.00  0.00    -0.155 OA
ATOM      7  O   UNL     1      -1.054 -12.881  13.570  0.00  0.00    -0.155 OA
BRANCH   1  24
ATOM     24  C   UNL     1      -2.797 -10.932  13.455  0.00  0.00    +0.188 C 
BRANCH  24  25
ATOM     25  C   UNL     1      -2.036 -10.430  12.239  0.00  0.00    +0.021 C 
ATOM     28  C   UNL     1      -2.980 -10.064  11.106  0.00  0.00    +0.005 C 
ENDBRANCH  24  25
ENDBRANCH   1  24
ENDBRANCH  10   1
ENDBRANCH  21  10
ENDBRANCH  12  14
BRANCH  11  13
ATOM     13  C   UNL     1      -7.900 -11.338  19.366  0.00  0.00    +0.181 C 
BRANCH  13   3
ATOM      3  O   UNL     1      -7.268 -10.281  20.060  0.00  0.00    -0.393 OA
ATOM     29  H   UNL     1      -6.872  -9.694  19.393  0.00  0.00    +0.209 HD
ENDBRANCH  13   3
ENDBRANCH  11  13
BRANCH   8  16
ATOM     16  C   UNL     1     -10.726 -10.556  19.300  0.00  0.00    +0.204 C 
BRANCH  16  20
ATOM      5  O   UNL     1     -11.936 -11.675  17.560  0.00  0.00    -0.274 OA
ATOM      9  N   UNL     1     -11.469 -12.908  19.469  0.00  0.00    -0.306 N 
ATOM     20  C   UNL     1     -11.432 -11.750  18.683  0.00  0.00    +0.232 C 
ATOM     26  C   UNL     1     -10.868 -12.971  20.795  0.00  0.00    +0.131 C 
ATOM     27  C   UNL     1     -12.113 -14.139  19.017  0.00  0.00    +0.131 C 
ENDBRANCH  16  20
ENDBRANCH   8  16
TORSDOF 9
ENDMDL
MODEL 3
REMARK VINA RESULT:      -5.4     21.562     23.701
REMARK  Name = 71693487
REMARK  12 active torsions:
REMARK  status: ('A' for Active; 'I' for Inactive)
REMARK    1  A    between atoms: S_1  and  N_10
REMARK    2  A    between atoms: S_1  and  C_24
REMARK    3  A    between atoms: O_3  and  C_13
REMARK    4  A    between atoms: N_8  and  C_16
REMARK    5  A    between atoms: N_9  and  C_26
REMARK    6  A    between atoms: N_9  and  C_27
REMARK    7  A    between atoms: N_10  and  C_21
REMARK    8  A    between atoms: C_11  and  C_13
REMARK    9  A    between atoms: C_12  and  C_14
REMARK   10  A    between atoms: C_16  and  C_20
REMARK   11  A    between atoms: C_24  and  C_25
REMARK   12  A    between atoms: C_25  and  C_28
REMARK                            x       y       z     vdW  Elec       q    Type
REMARK                         _______ _______ _______ _____ _____    ______ ____
ROOT
ATOM      2  O   UNL     1      -5.104 -10.897   6.933  0.00  0.00    -0.361 OA
ATOM      4  O   UNL     1      -7.896 -10.343   4.788  0.00  0.00    -0.273 OA
ATOM      8  N   UNL     1      -7.623  -9.734   7.023  0.00  0.00    -0.283 N 
ATOM     11  C   UNL     1      -6.774  -9.768   8.239  0.00  0.00    +0.135 C 
ATOM     12  C   UNL     1      -5.278  -9.837   7.872  0.00  0.00    +0.171 C 
ATOM     15  C   UNL     1      -7.188 -10.232   5.792  0.00  0.00    +0.242 C 
ATOM     17  C   UNL     1      -5.716 -10.584   5.705  0.00  0.00    +0.256 C 
ENDROOT
BRANCH  12  14
ATOM     14  C   UNL     1      -4.364 -10.128   9.044  0.00  0.00    -0.017 A 
ATOM     18  C   UNL     1      -4.317 -11.410   9.591  0.00  0.00    +0.008 A 
ATOM     19  C   UNL     1      -3.568  -9.113   9.575  0.00  0.00    +0.008 A 
ATOM     21  C   UNL     1      -2.677 -10.663  11.200  0.00  0.00    +0.048 A 
ATOM     22  C   UNL     1      -3.474 -11.678  10.670  0.00  0.00    +0.025 A 
ATOM     23  C   UNL     1      -2.724  -9.380  10.653  0.00  0.00    +0.025 A 
BRANCH  21  10
ATOM     10  N   UNL     1      -1.814 -10.938  12.305  0.00  0.00    -0.221 N 
ATOM     30  H   UNL     1      -1.186 -11.739  12.153  0.00  0.00    +0.173 HD
BRANCH  10   1
ATOM      1  S   UNL     1      -2.460 -10.806  13.896  0.00  0.00    +0.043 S 
ATOM      6  O   UNL     1      -1.498 -10.104  14.724  0.00  0.00    -0.155 OA
ATOM      7  O   UNL     1      -3.846 -10.384  13.858  0.00  0.00    -0.155 OA
BRANCH   1  24
ATOM     24  C   UNL     1      -2.422 -12.513  14.393  0.00  0.00    +0.188 C 
BRANCH  24  25
ATOM     25  C   UNL     1      -1.422 -13.307  13.569  0.00  0.00    +0.021 C 
ATOM     28  C   UNL     1      -2.079 -14.501  12.896  0.00  0.00    +0.005 C 
ENDBRANCH  24  25
ENDBRANCH   1  24
ENDBRANCH  10   1
ENDBRANCH  21  10
ENDBRANCH  12  14
BRANCH  11  13
ATOM     13  C   UNL     1      -7.046  -8.585   9.178  0.00  0.00    +0.181 C 
BRANCH  13   3
ATOM      3  O   UNL     1      -6.543  -7.413   8.570  0.00  0.00    -0.393 OA
ATOM     29  H   UNL     1      -6.817  -6.661   9.122  0.00  0.00    +0.209 HD
ENDBRANCH  13   3
ENDBRANCH  11  13
BRANCH   8  16
ATOM     16  C   UNL     1      -9.034  -9.393   7.179  0.00  0.00    +0.204 C 
BRANCH  16  20
ATOM      5  O   UNL     1      -8.658  -7.121   6.513  0.00  0.00    -0.274 OA
ATOM      9  N   UNL     1     -10.468  -8.207   5.550  0.00  0.00    -0.306 N 
ATOM     20  C   UNL     1      -9.353  -8.133   6.394  0.00  0.00    +0.232 C 
ATOM     26  C   UNL     1     -11.275  -9.415   5.427  0.00  0.00    +0.131 C 
ATOM     27  C   UNL     1     -10.905  -7.079   4.731  0.00  0.00    +0.131 C 
ENDBRANCH  16  20
ENDBRANCH   8  16
TORSDOF 9
ENDMDL
MODEL 4
REMARK VINA RESULT:      -5.3     27.929     32.718
REMARK  Name = 71693487
REMARK  12 active torsions:
REMARK  status: ('A' for Active; 'I' for Inactive)
REMARK    1  A    between atoms: S_1  and  N_10
REMARK    2  A    between atoms: S_1  and  C_24
REMARK    3  A    between atoms: O_3  and  C_13
REMARK    4  A    between atoms: N_8  and  C_16
REMARK    5  A    between atoms: N_9  and  C_26
REMARK    6  A    between atoms: N_9  and  C_27
REMARK    7  A    between atoms: N_10  and  C_21
REMARK    8  A    between atoms: C_11  and  C_13
REMARK    9  A    between atoms: C_12  and  C_14
REMARK   10  A    between atoms: C_16  and  C_20
REMARK   11  A    between atoms: C_24  and  C_25
REMARK   12  A    between atoms: C_25  and  C_28
REMARK                            x       y       z     vdW  Elec       q    Type
REMARK                         _______ _______ _______ _____ _____    ______ ____
ROOT
ATOM      2  O   UNL     1      13.121   4.749   1.138  0.00  0.00    -0.361 OA
ATOM      4  O   UNL     1      14.475   4.059  -2.085  0.00  0.00    -0.273 OA
ATOM      8  N   UNL     1      12.278   4.582  -1.502  0.00  0.00    -0.283 N 
ATOM     11  C   UNL     1      11.301   4.876  -0.425  0.00  0.00    +0.135 C 
ATOM     12  C   UNL     1      11.987   5.542   0.784  0.00  0.00    +0.171 C 
ATOM     15  C   UNL     1      13.644   4.426  -1.251  0.00  0.00    +0.242 C 
ATOM     17  C   UNL     1      14.109   4.815   0.138  0.00  0.00    +0.256 C 
ENDROOT
BRANCH  12  14
ATOM     14  C   UNL     1      11.114   5.642   2.017  0.00  0.00    -0.017 A 
ATOM     18  C   UNL     1      10.325   6.774   2.223  0.00  0.00    +0.008 A 
ATOM     19  C   UNL     1      11.098   4.602   2.946  0.00  0.00    +0.008 A 
ATOM     21  C   UNL     1       9.503   5.825   4.287  0.00  0.00    +0.048 A 
ATOM     22  C   UNL     1       9.519   6.866   3.358  0.00  0.00    +0.025 A 
ATOM     23  C   UNL     1      10.292   4.693   4.081  0.00  0.00    +0.025 A 
BRANCH  21  10
ATOM     10  N   UNL     1       8.677   5.919   5.449  0.00  0.00    -0.221 N 
ATOM     30  H   UNL     1       7.717   6.235   5.254  0.00  0.00    +0.173 HD
BRANCH  10   1
ATOM      1  S   UNL     1       9.375   6.547   6.893  0.00  0.00    +0.043 S 
ATOM      6  O   UNL     1      10.665   7.124   6.565  0.00  0.00    -0.155 OA
ATOM      7  O   UNL     1       8.400   7.306   7.651  0.00  0.00    -0.155 OA
BRANCH   1  24
ATOM     24  C   UNL     1       9.693   5.034   7.772  0.00  0.00    +0.188 C 
BRANCH  24  25
ATOM     25  C   UNL     1       9.978   5.298   9.242  0.00  0.00    +0.021 C 
ATOM     28  C   UNL     1       8.948   4.626  10.136  0.00  0.00    +0.005 C 
ENDBRANCH  24  25
ENDBRANCH   1  24
ENDBRANCH  10   1
ENDBRANCH  21  10
ENDBRANCH  12  14
BRANCH  11  13
ATOM     13  C   UNL     1      10.124   5.729  -0.916  0.00  0.00    +0.181 C 
BRANCH  13   3
ATOM      3  O   UNL     1      10.615   7.015  -1.237  0.00  0.00    -0.393 OA
ATOM     29  H   UNL     1      11.535   7.058  -0.926  0.00  0.00    +0.209 HD
ENDBRANCH  13   3
ENDBRANCH  11  13
BRANCH   8  16
ATOM     16  C   UNL     1      11.762   4.209  -2.816  0.00  0.00    +0.204 C 
BRANCH  16  20
ATOM      5  O   UNL     1      11.844   1.885  -2.236  0.00  0.00    -0.274 OA
ATOM      9  N   UNL     1       9.960   2.611  -3.379  0.00  0.00    -0.306 N 
ATOM     20  C   UNL     1      11.209   2.795  -2.774  0.00  0.00    +0.232 C 
ATOM     26  C   UNL     1       9.230   3.704  -4.010  0.00  0.00    +0.131 C 
ATOM     27  C   UNL     1       9.297   1.311  -3.424  0.00  0.00    +0.131 C 
ENDBRANCH  16  20
ENDBRANCH   8  16
TORSDOF 9
ENDMDL
MODEL 5
REMARK VINA RESULT:      -5.3      2.962      8.471
REMARK  Name = 71693487
REMARK  12 active torsions:
REMARK  status: ('A' for Active; 'I' for Inactive)
REMARK    1  A    between atoms: S_1  and  N_10
REMARK    2  A    between atoms: S_1  and  C_24
REMARK    3  A    between atoms: O_3  and  C_13
REMARK    4  A    between atoms: N_8  and  C_16
REMARK    5  A    between atoms: N_9  and  C_26
REMARK    6  A    between atoms: N_9  and  C_27
REMARK    7  A    between atoms: N_10  and  C_21
REMARK    8  A    between atoms: C_11  and  C_13
REMARK    9  A    between atoms: C_12  and  C_14
REMARK   10  A    between atoms: C_16  and  C_20
REMARK   11  A    between atoms: C_24  and  C_25
REMARK   12  A    between atoms: C_25  and  C_28
REMARK                            x       y       z     vdW  Elec       q    Type
REMARK                         _______ _______ _______ _____ _____    ______ ____
ROOT
ATOM      2  O   UNL     1     -11.108   8.209  20.190  0.00  0.00    -0.361 OA
ATOM      4  O   UNL     1      -9.899   9.575  17.129  0.00  0.00    -0.273 OA
ATOM      8  N   UNL     1     -11.963   8.586  17.576  0.00  0.00    -0.283 N 
ATOM     11  C   UNL     1     -12.839   7.896  18.554  0.00  0.00    +0.135 C 
ATOM     12  C   UNL     1     -12.517   8.334  19.997  0.00  0.00    +0.171 C 
ATOM     15  C   UNL     1     -10.715   9.108  17.926  0.00  0.00    +0.242 C 
ATOM     17  C   UNL     1     -10.410   9.151  19.411  0.00  0.00    +0.256 C 
ENDROOT
BRANCH  12  14
ATOM     14  C   UNL     1     -13.187   7.496  21.065  0.00  0.00    -0.017 A 
ATOM     18  C   UNL     1     -12.864   6.146  21.198  0.00  0.00    +0.008 A 
ATOM     19  C   UNL     1     -14.126   8.076  21.918  0.00  0.00    +0.008 A 
ATOM     21  C   UNL     1     -14.420   5.955  23.036  0.00  0.00    +0.048 A 
ATOM     22  C   UNL     1     -13.481   5.374  22.183  0.00  0.00    +0.025 A 
ATOM     23  C   UNL     1     -14.742   7.306  22.904  0.00  0.00    +0.025 A 
BRANCH  21  10
ATOM     10  N   UNL     1     -15.051   5.165  24.045  0.00  0.00    -0.221 N 
ATOM     30  H   UNL     1     -14.391   4.698  24.682  0.00  0.00    +0.173 HD
BRANCH  10   1
ATOM      1  S   UNL     1     -16.427   4.228  23.603  0.00  0.00    +0.043 S 
ATOM      6  O   UNL     1     -15.976   3.094  22.818  0.00  0.00    -0.155 OA
ATOM      7  O   UNL     1     -17.308   4.035  24.737  0.00  0.00    -0.155 OA
BRANCH   1  24
ATOM     24  C   UNL     1     -17.223   5.352  22.477  0.00  0.00    +0.188 C 
BRANCH  24  25
ATOM     25  C   UNL     1     -17.384   4.733  21.099  0.00  0.00    +0.021 C 
ATOM     28  C   UNL     1     -16.552   5.467  20.060  0.00  0.00    +0.005 C 
ENDBRANCH  24  25
ENDBRANCH   1  24
ENDBRANCH  10   1
ENDBRANCH  21  10
ENDBRANCH  12  14
BRANCH  11  13
ATOM     13  C   UNL     1     -14.330   8.094  18.250  0.00  0.00    +0.181 C 
BRANCH  13   3
ATOM      3  O   UNL     1     -14.670   9.430  18.561  0.00  0.00    -0.393 OA
ATOM     29  H   UNL     1     -15.640   9.495  18.530  0.00  0.00    +0.209 HD
ENDBRANCH  13   3
ENDBRANCH  11  13
BRANCH   8  16
ATOM     16  C   UNL     1     -12.312   8.500  16.160  0.00  0.00    +0.204 C 
BRANCH  16  20
ATOM      5  O   UNL     1     -13.207  10.716  16.337  0.00  0.00    -0.274 OA
ATOM      9  N   UNL     1     -12.282  10.122  14.294  0.00  0.00    -0.306 N 
ATOM     20  C   UNL     1     -12.646   9.880  15.624  0.00  0.00    +0.232 C 
ATOM     26  C   UNL     1     -11.620   9.116  13.472  0.00  0.00    +0.131 C 
ATOM     27  C   UNL     1     -12.537  11.399  13.633  0.00  0.00    +0.131 C 
ENDBRANCH  16  20
ENDBRANCH   8  16
TORSDOF 9
ENDMDL
MODEL 6
REMARK VINA RESULT:      -5.3      5.300      9.943
REMARK  Name = 71693487
REMARK  12 active torsions:
REMARK  status: ('A' for Active; 'I' for Inactive)
REMARK    1  A    between atoms: S_1  and  N_10
REMARK    2  A    between atoms: S_1  and  C_24
REMARK    3  A    between atoms: O_3  and  C_13
REMARK    4  A    between atoms: N_8  and  C_16
REMARK    5  A    between atoms: N_9  and  C_26
REMARK    6  A    between atoms: N_9  and  C_27
REMARK    7  A    between atoms: N_10  and  C_21
REMARK    8  A    between atoms: C_11  and  C_13
REMARK    9  A    between atoms: C_12  and  C_14
REMARK   10  A    between atoms: C_16  and  C_20
REMARK   11  A    between atoms: C_24  and  C_25
REMARK   12  A    between atoms: C_25  and  C_28
REMARK                            x       y       z     vdW  Elec       q    Type
REMARK                         _______ _______ _______ _____ _____    ______ ____
ROOT
ATOM      2  O   UNL     1     -18.184   5.125  25.539  0.00  0.00    -0.361 OA
ATOM      4  O   UNL     1     -17.923   7.541  22.932  0.00  0.00    -0.273 OA
ATOM      8  N   UNL     1     -16.368   5.938  23.603  0.00  0.00    -0.283 N 
ATOM     11  C   UNL     1     -16.012   4.853  24.549  0.00  0.00    +0.135 C 
ATOM     12  C   UNL     1     -17.271   4.132  25.071  0.00  0.00    +0.171 C 
ATOM     15  C   UNL     1     -17.622   6.555  23.609  0.00  0.00    +0.242 C 
ATOM     17  C   UNL     1     -18.680   5.893  24.469  0.00  0.00    +0.256 C 
ENDROOT
BRANCH  12  14
ATOM     14  C   UNL     1     -17.013   3.187  26.225  0.00  0.00    -0.017 A 
ATOM     18  C   UNL     1     -16.703   3.695  27.487  0.00  0.00    +0.008 A 
ATOM     19  C   UNL     1     -17.087   1.808  26.027  0.00  0.00    +0.008 A 
ATOM     21  C   UNL     1     -16.541   1.446  28.353  0.00  0.00    +0.048 A 
ATOM     22  C   UNL     1     -16.467   2.824  28.551  0.00  0.00    +0.025 A 
ATOM     23  C   UNL     1     -16.851   0.938  27.091  0.00  0.00    +0.025 A 
BRANCH  21  10
ATOM     10  N   UNL     1     -16.299   0.554  29.443  0.00  0.00    -0.221 N 
ATOM     30  H   UNL     1     -16.981   0.637  30.208  0.00  0.00    +0.173 HD
BRANCH  10   1
ATOM      1  S   UNL     1     -14.670   0.299  29.939  0.00  0.00    +0.043 S 
ATOM      6  O   UNL     1     -14.279  -1.045  29.557  0.00  0.00    -0.155 OA
ATOM      7  O   UNL     1     -13.839   1.435  29.591  0.00  0.00    -0.155 OA
BRANCH   1  24
ATOM     24  C   UNL     1     -14.877   0.295  31.706  0.00  0.00    +0.188 C 
BRANCH  24  25
ATOM     25  C   UNL     1     -14.358   1.580  32.327  0.00  0.00    +0.021 C 
ATOM     28  C   UNL     1     -14.583   1.601  33.830  0.00  0.00    +0.005 C 
ENDBRANCH  24  25
ENDBRANCH   1  24
ENDBRANCH  10   1
ENDBRANCH  21  10
ENDBRANCH  12  14
BRANCH  11  13
ATOM     13  C   UNL     1     -15.025   3.846  23.945  0.00  0.00    +0.181 C 
BRANCH  13   3
ATOM      3  O   UNL     1     -15.723   3.051  23.007  0.00  0.00    -0.393 OA
ATOM     29  H   UNL     1     -15.192   2.251  22.856  0.00  0.00    +0.209 HD
ENDBRANCH  13   3
ENDBRANCH  11  13
BRANCH   8  16
ATOM     16  C   UNL     1     -15.299   6.536  22.808  0.00  0.00    +0.204 C 
BRANCH  16  20
ATOM      5  O   UNL     1     -15.812   5.165  20.910  0.00  0.00    -0.274 OA
ATOM      9  N   UNL     1     -15.473   7.425  20.507  0.00  0.00    -0.306 N 
ATOM     20  C   UNL     1     -15.554   6.296  21.331  0.00  0.00    +0.232 C 
ATOM     26  C   UNL     1     -15.165   8.750  21.029  0.00  0.00    +0.131 C 
ATOM     27  C   UNL     1     -15.690   7.358  19.064  0.00  0.00    +0.131 C 
ENDBRANCH  16  20
ENDBRANCH   8  16
TORSDOF 9
ENDMDL
MODEL 7
REMARK VINA RESULT:      -5.1     20.290     21.981
REMARK  Name = 71693487
REMARK  12 active torsions:
REMARK  status: ('A' for Active; 'I' for Inactive)
REMARK    1  A    between atoms: S_1  and  N_10
REMARK    2  A    between atoms: S_1  and  C_24
REMARK    3  A    between atoms: O_3  and  C_13
REMARK    4  A    between atoms: N_8  and  C_16
REMARK    5  A    between atoms: N_9  and  C_26
REMARK    6  A    between atoms: N_9  and  C_27
REMARK    7  A    between atoms: N_10  and  C_21
REMARK    8  A    between atoms: C_11  and  C_13
REMARK    9  A    between atoms: C_12  and  C_14
REMARK   10  A    between atoms: C_16  and  C_20
REMARK   11  A    between atoms: C_24  and  C_25
REMARK   12  A    between atoms: C_25  and  C_28
REMARK                            x       y       z     vdW  Elec       q    Type
REMARK                         _______ _______ _______ _____ _____    ______ ____
ROOT
ATOM      2  O   UNL     1      -2.529 -10.108  12.952  0.00  0.00    -0.361 OA
ATOM      4  O   UNL     1      -2.230 -11.013  16.385  0.00  0.00    -0.273 OA
ATOM      8  N   UNL     1      -4.062 -11.255  14.962  0.00  0.00    -0.283 N 
ATOM     11  C   UNL     1      -4.648 -11.023  13.619  0.00  0.00    +0.135 C 
ATOM     12  C   UNL     1      -3.556 -11.005  12.531  0.00  0.00    +0.171 C 
ATOM     15  C   UNL     1      -2.729 -10.958  15.259  0.00  0.00    +0.242 C 
ATOM     17  C   UNL     1      -1.848 -10.617  14.073  0.00  0.00    +0.256 C 
ENDROOT
BRANCH  12  14
ATOM     14  C   UNL     1      -4.037 -10.526  11.177  0.00  0.00    -0.017 A 
ATOM     18  C   UNL     1      -3.964 -11.373  10.071  0.00  0.00    +0.008 A 
ATOM     19  C   UNL     1      -4.552  -9.238  11.036  0.00  0.00    +0.008 A 
ATOM     21  C   UNL     1      -4.924  -9.644   8.684  0.00  0.00    +0.048 A 
ATOM     22  C   UNL     1      -4.407 -10.932   8.824  0.00  0.00    +0.025 A 
ATOM     23  C   UNL     1      -4.997  -8.797   9.790  0.00  0.00    +0.025 A 
BRANCH  21  10
ATOM     10  N   UNL     1      -5.379  -9.192   7.407  0.00  0.00    -0.221 N 
ATOM     30  H   UNL     1      -5.222  -8.189   7.239  0.00  0.00    +0.173 HD
BRANCH  10   1
ATOM      1  S   UNL     1      -6.873  -9.809   6.811  0.00  0.00    +0.043 S 
ATOM      6  O   UNL     1      -6.585 -10.797   5.789  0.00  0.00    -0.155 OA
ATOM      7  O   UNL     1      -7.777 -10.118   7.901  0.00  0.00    -0.155 OA
BRANCH   1  24
ATOM     24  C   UNL     1      -7.497  -8.367   5.976  0.00  0.00    +0.188 C 
BRANCH  24  25
ATOM     25  C   UNL     1      -8.614  -7.709   6.767  0.00  0.00    +0.021 C 
ATOM     28  C   UNL     1      -8.082  -6.606   7.668  0.00  0.00    +0.005 C 
ENDBRANCH  24  25
ENDBRANCH   1  24
ENDBRANCH  10   1
ENDBRANCH  21  10
ENDBRANCH  12  14
BRANCH  11  13
ATOM     13  C   UNL     1      -5.742 -12.041  13.272  0.00  0.00    +0.181 C 
BRANCH  13   3
ATOM      3  O   UNL     1      -6.943 -11.335  13.037  0.00  0.00    -0.393 OA
ATOM     29  H   UNL     1      -6.699 -10.442  12.739  0.00  0.00    +0.209 HD
ENDBRANCH  13   3
ENDBRANCH  11  13
BRANCH   8  16
ATOM     16  C   UNL     1      -4.968 -11.574  16.062  0.00  0.00    +0.204 C 
BRANCH  16  20
ATOM      5  O   UNL     1      -5.221  -9.248  16.582  0.00  0.00    -0.274 OA
ATOM      9  N   UNL     1      -7.143 -10.547  16.634  0.00  0.00    -0.306 N 
ATOM     20  C   UNL     1      -5.771 -10.344  16.447  0.00  0.00    +0.232 C 
ATOM     26  C   UNL     1      -7.769 -11.853  16.470  0.00  0.00    +0.131 C 
ATOM     27  C   UNL     1      -8.050  -9.465  17.008  0.00  0.00    +0.131 C 
ENDBRANCH  16  20
ENDBRANCH   8  16
TORSDOF 9
ENDMDL
MODEL 8
REMARK VINA RESULT:      -5.1     20.048     21.744
REMARK  Name = 71693487
REMARK  12 active torsions:
REMARK  status: ('A' for Active; 'I' for Inactive)
REMARK    1  A    between atoms: S_1  and  N_10
REMARK    2  A    between atoms: S_1  and  C_24
REMARK    3  A    between atoms: O_3  and  C_13
REMARK    4  A    between atoms: N_8  and  C_16
REMARK    5  A    between atoms: N_9  and  C_26
REMARK    6  A    between atoms: N_9  and  C_27
REMARK    7  A    between atoms: N_10  and  C_21
REMARK    8  A    between atoms: C_11  and  C_13
REMARK    9  A    between atoms: C_12  and  C_14
REMARK   10  A    between atoms: C_16  and  C_20
REMARK   11  A    between atoms: C_24  and  C_25
REMARK   12  A    between atoms: C_25  and  C_28
REMARK                            x       y       z     vdW  Elec       q    Type
REMARK                         _______ _______ _______ _____ _____    ______ ____
ROOT
ATOM      2  O   UNL     1      -2.693 -10.708  12.998  0.00  0.00    -0.361 OA
ATOM      4  O   UNL     1      -2.543 -10.899  16.553  0.00  0.00    -0.273 OA
ATOM      8  N   UNL     1      -4.364 -10.385  15.190  0.00  0.00    -0.283 N 
ATOM     11  C   UNL     1      -4.881 -10.152  13.820  0.00  0.00    +0.135 C 
ATOM     12  C   UNL     1      -4.081 -10.960  12.778  0.00  0.00    +0.171 C 
ATOM     15  C   UNL     1      -3.057 -10.813  15.435  0.00  0.00    +0.242 C 
ATOM     17  C   UNL     1      -2.271 -11.263  14.220  0.00  0.00    +0.256 C 
ENDROOT
BRANCH  12  14
ATOM     14  C   UNL     1      -4.377 -10.587  11.341  0.00  0.00    -0.017 A 
ATOM     18  C   UNL     1      -4.891 -11.542  10.464  0.00  0.00    +0.008 A 
ATOM     19  C   UNL     1      -4.137  -9.287  10.894  0.00  0.00    +0.008 A 
ATOM     21  C   UNL     1      -4.926  -9.898   8.694  0.00  0.00    +0.048 A 
ATOM     22  C   UNL     1      -5.165 -11.198   9.140  0.00  0.00    +0.025 A 
ATOM     23  C   UNL     1      -4.412  -8.943   9.571  0.00  0.00    +0.025 A 
BRANCH  21  10
ATOM     10  N   UNL     1      -5.207  -9.546   7.338  0.00  0.00    -0.221 N 
ATOM     30  H   UNL     1      -4.606  -8.797   6.969  0.00  0.00    +0.173 HD
BRANCH  10   1
ATOM      1  S   UNL     1      -6.855  -9.473   6.842  0.00  0.00    +0.043 S 
ATOM      6  O   UNL     1      -6.918  -8.796   5.560  0.00  0.00    -0.155 OA
ATOM      7  O   UNL     1      -7.511 -10.751   7.033  0.00  0.00    -0.155 OA
BRANCH   1  24
ATOM     24  C   UNL     1      -7.498  -8.342   8.055  0.00  0.00    +0.188 C 
BRANCH  24  25
ATOM     25  C   UNL     1      -8.589  -8.990   8.892  0.00  0.00    +0.021 C 
ATOM     28  C   UNL     1      -8.148  -9.171  10.335  0.00  0.00    +0.005 C 
ENDBRANCH  24  25
ENDBRANCH   1  24
ENDBRANCH  10   1
ENDBRANCH  21  10
ENDBRANCH  12  14
BRANCH  11  13
ATOM     13  C   UNL     1      -6.381 -10.451  13.698  0.00  0.00    +0.181 C 
BRANCH  13   3
ATOM      3  O   UNL     1      -7.068  -9.220  13.591  0.00  0.00    -0.393 OA
ATOM     29  H   UNL     1      -6.399  -8.515  13.597  0.00  0.00    +0.209 HD
ENDBRANCH  13   3
ENDBRANCH  11  13
BRANCH   8  16
ATOM     16  C   UNL     1      -5.171  -9.922  16.316  0.00  0.00    +0.204 C 
BRANCH  16  20
ATOM      5  O   UNL     1      -5.605 -12.206  16.896  0.00  0.00    -0.274 OA
ATOM      9  N   UNL     1      -7.339 -10.699  17.216  0.00  0.00    -0.306 N 
ATOM     20  C   UNL     1      -6.040 -11.054  16.833  0.00  0.00    +0.232 C 
ATOM     26  C   UNL     1      -7.831  -9.329  17.131  0.00  0.00    +0.131 C 
ATOM     27  C   UNL     1      -8.297 -11.674  17.731  0.00  0.00    +0.131 C 
ENDBRANCH  16  20
ENDBRANCH   8  16
TORSDOF 9
ENDMDL
MODEL 9
REMARK VINA RESULT:      -5.1     11.080     12.554
REMARK  Name = 71693487
REMARK  12 active torsions:
REMARK  status: ('A' for Active; 'I' for Inactive)
REMARK    1  A    between atoms: S_1  and  N_10
REMARK    2  A    between atoms: S_1  and  C_24
REMARK    3  A    between atoms: O_3  and  C_13
REMARK    4  A    between atoms: N_8  and  C_16
REMARK    5  A    between atoms: N_9  and  C_26
REMARK    6  A    between atoms: N_9  and  C_27
REMARK    7  A    between atoms: N_10  and  C_21
REMARK    8  A    between atoms: C_11  and  C_13
REMARK    9  A    between atoms: C_12  and  C_14
REMARK   10  A    between atoms: C_16  and  C_20
REMARK   11  A    between atoms: C_24  and  C_25
REMARK   12  A    between atoms: C_25  and  C_28
REMARK                            x       y       z     vdW  Elec       q    Type
REMARK                         _______ _______ _______ _____ _____    ______ ____
ROOT
ATOM      2  O   UNL     1     -15.623   6.053  31.028  0.00  0.00    -0.361 OA
ATOM      4  O   UNL     1     -16.940   2.848  30.199  0.00  0.00    -0.273 OA
ATOM      8  N   UNL     1     -15.412   3.416  31.867  0.00  0.00    -0.283 N 
ATOM     11  C   UNL     1     -14.599   4.472  32.518  0.00  0.00    +0.135 C 
ATOM     12  C   UNL     1     -15.277   5.851  32.398  0.00  0.00    +0.171 C 
ATOM     15  C   UNL     1     -16.335   3.698  30.857  0.00  0.00    +0.242 C 
ATOM     17  C   UNL     1     -16.640   5.166  30.631  0.00  0.00    +0.256 C 
ENDROOT
BRANCH  12  14
ATOM     14  C   UNL     1     -14.399   7.013  32.811  0.00  0.00    -0.017 A 
ATOM     18  C   UNL     1     -14.892   7.986  33.682  0.00  0.00    +0.008 A 
ATOM     19  C   UNL     1     -13.097   7.111  32.321  0.00  0.00    +0.008 A 
ATOM     21  C   UNL     1     -12.780   9.153  33.574  0.00  0.00    +0.048 A 
ATOM     22  C   UNL     1     -14.083   9.056  34.063  0.00  0.00    +0.025 A 
ATOM     23  C   UNL     1     -12.287   8.181  32.703  0.00  0.00    +0.025 A 
BRANCH  21  10
ATOM     10  N   UNL     1     -11.951  10.249  33.965  0.00  0.00    -0.221 N 
ATOM     30  H   UNL     1     -11.543  10.765  33.174  0.00  0.00    +0.173 HD
BRANCH  10   1
ATOM      1  S   UNL     1     -10.906  10.036  35.317  0.00  0.00    +0.043 S 
ATOM      6  O   UNL     1     -10.851  11.285  36.054  0.00  0.00    -0.155 OA
ATOM      7  O   UNL     1     -11.190   8.790  36.000  0.00  0.00    -0.155 OA
BRANCH   1  24
ATOM     24  C   UNL     1      -9.345   9.859  34.483  0.00  0.00    +0.188 C 
BRANCH  24  25
ATOM     25  C   UNL     1      -9.392  10.456  33.087  0.00  0.00    +0.021 C 
ATOM     28  C   UNL     1      -8.627  11.768  33.018  0.00  0.00    +0.005 C 
ENDBRANCH  24  25
ENDBRANCH   1  24
ENDBRANCH  10   1
ENDBRANCH  21  10
ENDBRANCH  12  14
BRANCH  11  13
ATOM     13  C   UNL     1     -14.285   4.150  33.985  0.00  0.00    +0.181 C 
BRANCH  13   3
ATOM      3  O   UNL     1     -15.465   4.335  34.741  0.00  0.00    -0.393 OA
ATOM     29  H   UNL     1     -15.744   3.459  35.058  0.00  0.00    +0.209 HD
ENDBRANCH  13   3
ENDBRANCH  11  13
BRANCH   8  16
ATOM     16  C   UNL     1     -15.061   2.022  32.123  0.00  0.00    +0.204 C 
BRANCH  16  20
ATOM      5  O   UNL     1     -13.280   2.249  30.536  0.00  0.00    -0.274 OA
ATOM      9  N   UNL     1     -14.322   0.179  30.649  0.00  0.00    -0.306 N 
ATOM     20  C   UNL     1     -14.134   1.512  31.034  0.00  0.00    +0.232 C 
ATOM     26  C   UNL     1     -15.340  -0.671  31.253  0.00  0.00    +0.131 C 
ATOM     27  C   UNL     1     -13.512  -0.457  29.614  0.00  0.00    +0.131 C 
ENDBRANCH  16  20
ENDBRANCH   8  16
TORSDOF 9
ENDMDL
MODEL 10
REMARK VINA RESULT:      -5.1     20.149     22.957
REMARK  Name = 71693487
REMARK  12 active torsions:
REMARK  status: ('A' for Active; 'I' for Inactive)
REMARK    1  A    between atoms: S_1  and  N_10
REMARK    2  A    between atoms: S_1  and  C_24
REMARK    3  A    between atoms: O_3  and  C_13
REMARK    4  A    between atoms: N_8  and  C_16
REMARK    5  A    between atoms: N_9  and  C_26
REMARK    6  A    between atoms: N_9  and  C_27
REMARK    7  A    between atoms: N_10  and  C_21
REMARK    8  A    between atoms: C_11  and  C_13
REMARK    9  A    between atoms: C_12  and  C_14
REMARK   10  A    between atoms: C_16  and  C_20
REMARK   11  A    between atoms: C_24  and  C_25
REMARK   12  A    between atoms: C_25  and  C_28
REMARK                            x       y       z     vdW  Elec       q    Type
REMARK                         _______ _______ _______ _____ _____    ______ ____
ROOT
ATOM      2  O   UNL     1      -4.587 -14.119  15.476  0.00  0.00    -0.361 OA
ATOM      4  O   UNL     1      -2.234 -15.092  12.983  0.00  0.00    -0.273 OA
ATOM      8  N   UNL     1      -2.664 -12.966  13.839  0.00  0.00    -0.283 N 
ATOM     11  C   UNL     1      -3.477 -12.118  14.745  0.00  0.00    +0.135 C 
ATOM     12  C   UNL     1      -3.978 -12.922  15.961  0.00  0.00    +0.171 C 
ATOM     15  C   UNL     1      -2.791 -14.357  13.801  0.00  0.00    +0.242 C 
ATOM     17  C   UNL     1      -3.626 -14.974  14.906  0.00  0.00    +0.256 C 
ENDROOT
BRANCH  12  14
ATOM     14  C   UNL     1      -5.016 -12.203  16.796  0.00  0.00    -0.017 A 
ATOM     18  C   UNL     1      -4.867 -12.128  18.181  0.00  0.00    +0.008 A 
ATOM     19  C   UNL     1      -6.121 -11.615  16.180  0.00  0.00    +0.008 A 
ATOM     21  C   UNL     1      -6.928 -10.877  18.335  0.00  0.00    +0.048 A 
ATOM     22  C   UNL     1      -5.823 -11.465  18.951  0.00  0.00    +0.025 A 
ATOM     23  C   UNL     1      -7.077 -10.952  16.950  0.00  0.00    +0.025 A 
BRANCH  21  10
ATOM     10  N   UNL     1      -7.907 -10.197  19.123  0.00  0.00    -0.221 N 
ATOM     30  H   UNL     1      -7.513  -9.678  19.919  0.00  0.00    +0.173 HD
BRANCH  10   1
ATOM      1  S   UNL     1      -9.397 -11.000  19.439  0.00  0.00    +0.043 S 
ATOM      6  O   UNL     1      -9.171 -12.431  19.366  0.00  0.00    -0.155 OA
ATOM      7  O   UNL     1     -10.067 -10.418  20.585  0.00  0.00    -0.155 OA
BRANCH   1  24
ATOM     24  C   UNL     1     -10.313 -10.547  17.983  0.00  0.00    +0.188 C 
BRANCH  24  25
ATOM     25  C   UNL     1     -11.203  -9.343  18.241  0.00  0.00    +0.021 C 
ATOM     28  C   UNL     1     -11.638  -8.686  16.941  0.00  0.00    +0.005 C 
ENDBRANCH  24  25
ENDBRANCH   1  24
ENDBRANCH  10   1
ENDBRANCH  21  10
ENDBRANCH  12  14
BRANCH  11  13
ATOM     13  C   UNL     1      -2.728 -10.859  15.201  0.00  0.00    +0.181 C 
BRANCH  13   3
ATOM      3  O   UNL     1      -1.714 -11.252  16.105  0.00  0.00    -0.393 OA
ATOM     29  H   UNL     1      -0.863 -10.993  15.712  0.00  0.00    +0.209 HD
ENDBRANCH  13   3
ENDBRANCH  11  13
BRANCH   8  16
ATOM     16  C   UNL     1      -1.888 -12.306  12.792  0.00  0.00    +0.204 C 
BRANCH  16  20
ATOM      5  O   UNL     1      -3.740 -12.464  11.279  0.00  0.00    -0.274 OA
ATOM      9  N   UNL     1      -2.547 -10.474  11.268  0.00  0.00    -0.306 N 
ATOM     20  C   UNL     1      -2.816 -11.773  11.716  0.00  0.00    +0.232 C 
ATOM     26  C   UNL     1      -1.448  -9.678  11.800  0.00  0.00    +0.131 C 
ATOM     27  C   UNL     1      -3.347  -9.821  10.236  0.00  0.00    +0.131 C 
ENDBRANCH  16  20
ENDBRANCH   8  16
TORSDOF 9
ENDMDL
