MODEL 1
REMARK VINA RESULT:      -7.4      0.000      0.000
REMARK  Name = 7113955
REMARK  8 active torsions:
REMARK  status: ('A' for Active; 'I' for Inactive)
REMARK    1  A    between atoms: S_1  and  N_11
REMARK    2  A    between atoms: S_1  and  C_25
REMARK    3  A    between atoms: O_6  and  C_35
REMARK    4  A    between atoms: O_6  and  C_38
REMARK    5  A    between atoms: N_10  and  C_24
REMARK    6  A    between atoms: N_11  and  C_22
REMARK    7  A    between atoms: C_32  and  C_36
REMARK    8  A    between atoms: C_36  and  C_37
REMARK                            x       y       z     vdW  Elec       q    Type
REMARK                         _______ _______ _______ _____ _____    ______ ____
ROOT
ATOM      2  O   UNL     1      14.073   6.620   6.992  0.00  0.00    -0.266 OA
ATOM      3  O   UNL     1      10.148   4.042   5.045  0.00  0.00    -0.252 OA
ATOM      8  N   UNL     1       9.324   6.126   5.608  0.00  0.00    -0.284 N 
ATOM      9  N   UNL     1      11.943   7.532   6.641  0.00  0.00    -0.310 N 
ATOM     10  N   UNL     1       9.960   5.654   3.387  0.00  0.00    -0.269 N 
ATOM     12  C   UNL     1       9.870   6.778   7.943  0.00  0.00    +0.027 C 
ATOM     13  C   UNL     1       9.661   8.508   6.199  0.00  0.00    +0.054 C 
ATOM     14  C   UNL     1       9.360   8.189   7.665  0.00  0.00    +0.018 C 
ATOM     15  C   UNL     1       9.177   5.758   7.018  0.00  0.00    +0.114 C 
ATOM     16  C   UNL     1      11.395   6.768   7.772  0.00  0.00    +0.130 C 
ATOM     17  C   UNL     1       8.910   7.507   5.302  0.00  0.00    +0.119 C 
ATOM     18  C   UNL     1      11.151   8.436   5.919  0.00  0.00    +0.027 A 
ATOM     19  C   UNL     1      11.695   9.205   4.959  0.00  0.00    +0.024 A 
ATOM     20  C   UNL     1      13.322   7.381   6.384  0.00  0.00    +0.274 A 
ATOM     21  C   UNL     1       9.826   5.179   4.691  0.00  0.00    +0.306 C 
ATOM     22  C   UNL     1      13.859   8.239   5.298  0.00  0.00    +0.112 A 
ATOM     23  C   UNL     1      13.093   9.106   4.635  0.00  0.00    +0.031 A 
ATOM     39  H   UNL     1       9.328   6.382   3.073  0.00  0.00    +0.156 HD
ENDROOT
BRANCH  10  24
ATOM     24  C   UNL     1      10.906   5.245   2.415  0.00  0.00    +0.035 A 
ATOM     26  C   UNL     1      12.249   5.596   2.557  0.00  0.00    +0.024 A 
ATOM     27  C   UNL     1      10.495   4.489   1.318  0.00  0.00    +0.024 A 
ATOM     28  C   UNL     1      13.179   5.191   1.601  0.00  0.00    +0.013 A 
ATOM     29  C   UNL     1      11.425   4.084   0.361  0.00  0.00    +0.013 A 
ATOM     32  C   UNL     1      12.768   4.435   0.502  0.00  0.00    +0.017 A 
BRANCH  32  36
ATOM      7  O   UNL     1      14.949   3.900  -0.218  0.00  0.00    -0.292 OA
ATOM     36  C   UNL     1      13.738   4.014  -0.495  0.00  0.00    +0.160 C 
ATOM     37  C   UNL     1      13.290   3.700  -1.919  0.00  0.00    +0.091 C 
ENDBRANCH  32  36
ENDBRANCH  10  24
BRANCH  22  11
ATOM     11  N   UNL     1      15.218   8.166   4.945  0.00  0.00    -0.211 N 
ATOM     40  H   UNL     1      15.657   7.278   5.229  0.00  0.00    +0.174 HD
BRANCH  11   1
ATOM      1  S   UNL     1      16.163   9.541   5.230  0.00  0.00    +0.073 S 
ATOM      4  O   UNL     1      16.107  10.419   4.076  0.00  0.00    -0.150 OA
ATOM      5  O   UNL     1      15.886  10.058   6.556  0.00  0.00    -0.150 OA
BRANCH   1  25
ATOM     25  C   UNL     1      17.780   8.826   5.270  0.00  0.00    +0.109 A 
ATOM     30  C   UNL     1      18.288   8.188   4.138  0.00  0.00    +0.032 A 
ATOM     31  C   UNL     1      18.547   8.900   6.432  0.00  0.00    +0.032 A 
ATOM     33  C   UNL     1      19.565   7.625   4.169  0.00  0.00    +0.047 A 
ATOM     34  C   UNL     1      19.823   8.337   6.464  0.00  0.00    +0.047 A 
ATOM     35  C   UNL     1      20.331   7.700   5.332  0.00  0.00    +0.120 A 
BRANCH  35   6
ATOM      6  O   UNL     1      21.576   7.149   5.363  0.00  0.00    -0.495 OA
ATOM     38  C   UNL     1      21.995   6.427   4.206  0.00  0.00    +0.277 C 
ENDBRANCH  35   6
ENDBRANCH   1  25
ENDBRANCH  11   1
ENDBRANCH  22  11
TORSDOF 6
ENDMDL
MODEL 2
REMARK VINA RESULT:      -7.4     25.659     30.012
REMARK  Name = 7113955
REMARK  8 active torsions:
REMARK  status: ('A' for Active; 'I' for Inactive)
REMARK    1  A    between atoms: S_1  and  N_11
REMARK    2  A    between atoms: S_1  and  C_25
REMARK    3  A    between atoms: O_6  and  C_35
REMARK    4  A    between atoms: O_6  and  C_38
REMARK    5  A    between atoms: N_10  and  C_24
REMARK    6  A    between atoms: N_11  and  C_22
REMARK    7  A    between atoms: C_32  and  C_36
REMARK    8  A    between atoms: C_36  and  C_37
REMARK                            x       y       z     vdW  Elec       q    Type
REMARK                         _______ _______ _______ _____ _____    ______ ____
ROOT
ATOM      2  O   UNL     1      -8.646  -8.584  16.833  0.00  0.00    -0.266 OA
ATOM      3  O   UNL     1      -3.770 -10.019  16.720  0.00  0.00    -0.252 OA
ATOM      8  N   UNL     1      -4.954 -11.847  17.494  0.00  0.00    -0.284 N 
ATOM      9  N   UNL     1      -7.898 -10.747  17.337  0.00  0.00    -0.310 N 
ATOM     10  N   UNL     1      -4.339 -11.698  15.223  0.00  0.00    -0.269 N 
ATOM     12  C   UNL     1      -6.461 -11.285  19.388  0.00  0.00    +0.027 C 
ATOM     13  C   UNL     1      -7.077 -13.082  17.816  0.00  0.00    +0.054 C 
ATOM     14  C   UNL     1      -7.096 -12.669  19.289  0.00  0.00    +0.018 C 
ATOM     15  C   UNL     1      -5.015 -11.311  18.855  0.00  0.00    +0.114 C 
ATOM     16  C   UNL     1      -7.341 -10.290  18.618  0.00  0.00    +0.130 C 
ATOM     17  C   UNL     1      -5.616 -13.153  17.332  0.00  0.00    +0.119 C 
ATOM     18  C   UNL     1      -7.856 -12.098  16.964  0.00  0.00    +0.027 A 
ATOM     19  C   UNL     1      -8.466 -12.515  15.839  0.00  0.00    +0.024 A 
ATOM     20  C   UNL     1      -8.559  -9.778  16.552  0.00  0.00    +0.274 A 
ATOM     21  C   UNL     1      -4.298 -11.110  16.486  0.00  0.00    +0.306 C 
ATOM     22  C   UNL     1      -9.191 -10.295  15.313  0.00  0.00    +0.112 A 
ATOM     23  C   UNL     1      -9.156 -11.587  14.984  0.00  0.00    +0.031 A 
ATOM     39  H   UNL     1      -4.388 -12.709  15.163  0.00  0.00    +0.156 HD
ENDROOT
BRANCH  10  24
ATOM     24  C   UNL     1      -4.331 -11.041  13.967  0.00  0.00    +0.035 A 
ATOM     26  C   UNL     1      -3.163 -11.001  13.207  0.00  0.00    +0.024 A 
ATOM     27  C   UNL     1      -5.495 -10.437  13.491  0.00  0.00    +0.024 A 
ATOM     28  C   UNL     1      -3.157 -10.356  11.971  0.00  0.00    +0.013 A 
ATOM     29  C   UNL     1      -5.489  -9.791  12.255  0.00  0.00    +0.013 A 
ATOM     32  C   UNL     1      -4.320  -9.750  11.494  0.00  0.00    +0.017 A 
BRANCH  32  36
ATOM      7  O   UNL     1      -3.292  -9.047   9.492  0.00  0.00    -0.292 OA
ATOM     36  C   UNL     1      -4.314  -9.077  10.207  0.00  0.00    +0.160 C 
ATOM     37  C   UNL     1      -5.573  -8.383   9.695  0.00  0.00    +0.091 C 
ENDBRANCH  32  36
ENDBRANCH  10  24
BRANCH  22  11
ATOM     11  N   UNL     1      -9.869  -9.419  14.446  0.00  0.00    -0.211 N 
ATOM     40  H   UNL     1      -9.456  -8.475  14.430  0.00  0.00    +0.174 HD
BRANCH  11   1
ATOM      1  S   UNL     1     -11.560  -9.447  14.488  0.00  0.00    +0.073 S 
ATOM      4  O   UNL     1     -12.062 -10.268  13.402  0.00  0.00    -0.150 OA
ATOM      5  O   UNL     1     -12.011  -9.679  15.847  0.00  0.00    -0.150 OA
BRANCH   1  25
ATOM     25  C   UNL     1     -11.927  -7.764  14.089  0.00  0.00    +0.109 A 
ATOM     30  C   UNL     1     -12.393  -7.435  12.817  0.00  0.00    +0.032 A 
ATOM     31  C   UNL     1     -11.753  -6.765  15.048  0.00  0.00    +0.032 A 
ATOM     33  C   UNL     1     -12.684  -6.106  12.502  0.00  0.00    +0.047 A 
ATOM     34  C   UNL     1     -12.044  -5.438  14.734  0.00  0.00    +0.047 A 
ATOM     35  C   UNL     1     -12.509  -5.109  13.461  0.00  0.00    +0.120 A 
BRANCH  35   6
ATOM      6  O   UNL     1     -12.792  -3.813  13.154  0.00  0.00    -0.495 OA
ATOM     38  C   UNL     1     -12.321  -3.326  11.899  0.00  0.00    +0.277 C 
ENDBRANCH  35   6
ENDBRANCH   1  25
ENDBRANCH  11   1
ENDBRANCH  22  11
TORSDOF 6
ENDMDL
MODEL 3
REMARK VINA RESULT:      -7.0     24.848     29.431
REMARK  Name = 7113955
REMARK  8 active torsions:
REMARK  status: ('A' for Active; 'I' for Inactive)
REMARK    1  A    between atoms: S_1  and  N_11
REMARK    2  A    between atoms: S_1  and  C_25
REMARK    3  A    between atoms: O_6  and  C_35
REMARK    4  A    between atoms: O_6  and  C_38
REMARK    5  A    between atoms: N_10  and  C_24
REMARK    6  A    between atoms: N_11  and  C_22
REMARK    7  A    between atoms: C_32  and  C_36
REMARK    8  A    between atoms: C_36  and  C_37
REMARK                            x       y       z     vdW  Elec       q    Type
REMARK                         _______ _______ _______ _____ _____    ______ ____
ROOT
ATOM      2  O   UNL     1      -7.677 -13.251  14.489  0.00  0.00    -0.266 OA
ATOM      3  O   UNL     1      -9.837 -10.980  18.492  0.00  0.00    -0.252 OA
ATOM      8  N   UNL     1      -7.555 -10.801  18.812  0.00  0.00    -0.284 N 
ATOM      9  N   UNL     1      -6.485 -12.141  16.173  0.00  0.00    -0.310 N 
ATOM     10  N   UNL     1      -8.775  -9.005  17.895  0.00  0.00    -0.269 N 
ATOM     12  C   UNL     1      -6.378 -12.979  18.592  0.00  0.00    +0.027 C 
ATOM     13  C   UNL     1      -5.229 -10.890  17.966  0.00  0.00    +0.054 C 
ATOM     14  C   UNL     1      -5.036 -12.254  18.631  0.00  0.00    +0.018 C 
ATOM     15  C   UNL     1      -7.457 -12.166  19.335  0.00  0.00    +0.114 C 
ATOM     16  C   UNL     1      -6.754 -13.229  17.124  0.00  0.00    +0.130 C 
ATOM     17  C   UNL     1      -6.269 -10.083  18.764  0.00  0.00    +0.119 C 
ATOM     18  C   UNL     1      -5.687 -11.044  16.527  0.00  0.00    +0.027 A 
ATOM     19  C   UNL     1      -5.363 -10.113  15.612  0.00  0.00    +0.024 A 
ATOM     20  C   UNL     1      -6.988 -12.305  14.865  0.00  0.00    +0.274 A 
ATOM     21  C   UNL     1      -8.811 -10.299  18.413  0.00  0.00    +0.306 C 
ATOM     22  C   UNL     1      -6.616 -11.233  13.908  0.00  0.00    +0.112 A 
ATOM     23  C   UNL     1      -5.841 -10.207  14.259  0.00  0.00    +0.031 A 
ATOM     39  H   UNL     1      -8.057  -8.372  18.228  0.00  0.00    +0.156 HD
ENDROOT
BRANCH  10  24
ATOM     24  C   UNL     1      -9.638  -8.445  16.920  0.00  0.00    +0.035 A 
ATOM     26  C   UNL     1     -10.455  -7.363  17.251  0.00  0.00    +0.024 A 
ATOM     27  C   UNL     1      -9.669  -8.974  15.630  0.00  0.00    +0.024 A 
ATOM     28  C   UNL     1     -11.302  -6.811  16.290  0.00  0.00    +0.013 A 
ATOM     29  C   UNL     1     -10.516  -8.423  14.670  0.00  0.00    +0.013 A 
ATOM     32  C   UNL     1     -11.334  -7.341  15.000  0.00  0.00    +0.017 A 
BRANCH  32  36
ATOM      7  O   UNL     1     -12.892  -7.488  13.235  0.00  0.00    -0.292 OA
ATOM     36  C   UNL     1     -12.218  -6.767  13.999  0.00  0.00    +0.160 C 
ATOM     37  C   UNL     1     -12.343  -5.253  13.860  0.00  0.00    +0.091 C 
ENDBRANCH  32  36
ENDBRANCH  10  24
BRANCH  22  11
ATOM     11  N   UNL     1      -7.069 -11.284  12.578  0.00  0.00    -0.211 N 
ATOM     40  H   UNL     1      -8.093 -11.382  12.509  0.00  0.00    +0.174 HD
BRANCH  11   1
ATOM      1  S   UNL     1      -6.194 -12.254  11.502  0.00  0.00    +0.073 S 
ATOM      4  O   UNL     1      -5.717 -13.439  12.189  0.00  0.00    -0.150 OA
ATOM      5  O   UNL     1      -6.922 -12.377  10.253  0.00  0.00    -0.150 OA
BRANCH   1  25
ATOM     25  C   UNL     1      -4.791 -11.222  11.195  0.00  0.00    +0.109 A 
ATOM     30  C   UNL     1      -4.931 -10.068  10.423  0.00  0.00    +0.032 A 
ATOM     31  C   UNL     1      -3.546 -11.560  11.725  0.00  0.00    +0.032 A 
ATOM     33  C   UNL     1      -3.824  -9.253  10.182  0.00  0.00    +0.047 A 
ATOM     34  C   UNL     1      -2.441 -10.745  11.484  0.00  0.00    +0.047 A 
ATOM     35  C   UNL     1      -2.580  -9.592  10.713  0.00  0.00    +0.120 A 
BRANCH  35   6
ATOM      6  O   UNL     1      -1.500  -8.797  10.476  0.00  0.00    -0.495 OA
ATOM     38  C   UNL     1      -0.429  -8.861  11.416  0.00  0.00    +0.277 C 
ENDBRANCH  35   6
ENDBRANCH   1  25
ENDBRANCH  11   1
ENDBRANCH  22  11
TORSDOF 6
ENDMDL
MODEL 4
REMARK VINA RESULT:      -6.9     25.634     28.831
REMARK  Name = 7113955
REMARK  8 active torsions:
REMARK  status: ('A' for Active; 'I' for Inactive)
REMARK    1  A    between atoms: S_1  and  N_11
REMARK    2  A    between atoms: S_1  and  C_25
REMARK    3  A    between atoms: O_6  and  C_35
REMARK    4  A    between atoms: O_6  and  C_38
REMARK    5  A    between atoms: N_10  and  C_24
REMARK    6  A    between atoms: N_11  and  C_22
REMARK    7  A    between atoms: C_32  and  C_36
REMARK    8  A    between atoms: C_36  and  C_37
REMARK                            x       y       z     vdW  Elec       q    Type
REMARK                         _______ _______ _______ _____ _____    ______ ____
ROOT
ATOM      2  O   UNL     1      -5.402 -14.162  16.105  0.00  0.00    -0.266 OA
ATOM      3  O   UNL     1      -9.354 -11.302  14.674  0.00  0.00    -0.252 OA
ATOM      8  N   UNL     1      -8.600 -10.397  16.663  0.00  0.00    -0.284 N 
ATOM      9  N   UNL     1      -6.115 -12.240  17.240  0.00  0.00    -0.310 N 
ATOM     10  N   UNL     1      -7.945  -9.460  14.601  0.00  0.00    -0.269 N 
ATOM     12  C   UNL     1      -8.361 -12.093  18.463  0.00  0.00    +0.027 C 
ATOM     13  C   UNL     1      -6.864 -10.136  18.410  0.00  0.00    +0.054 C 
ATOM     14  C   UNL     1      -7.654 -11.062  19.337  0.00  0.00    +0.018 C 
ATOM     15  C   UNL     1      -9.307 -11.400  17.462  0.00  0.00    +0.114 C 
ATOM     16  C   UNL     1      -7.297 -12.945  17.756  0.00  0.00    +0.130 C 
ATOM     17  C   UNL     1      -7.842  -9.418  17.462  0.00  0.00    +0.119 C 
ATOM     18  C   UNL     1      -5.840 -10.914  17.604  0.00  0.00    +0.027 A 
ATOM     19  C   UNL     1      -4.699 -10.321  17.210  0.00  0.00    +0.024 A 
ATOM     20  C   UNL     1      -5.227 -12.993  16.443  0.00  0.00    +0.274 A 
ATOM     21  C   UNL     1      -8.691 -10.438  15.256  0.00  0.00    +0.306 C 
ATOM     22  C   UNL     1      -3.998 -12.277  16.020  0.00  0.00    +0.112 A 
ATOM     23  C   UNL     1      -3.746 -11.021  16.391  0.00  0.00    +0.031 A 
ATOM     39  H   UNL     1      -7.786  -8.578  15.075  0.00  0.00    +0.156 HD
ENDROOT
BRANCH  10  24
ATOM     24  C   UNL     1      -7.350  -9.547  13.318  0.00  0.00    +0.035 A 
ATOM     26  C   UNL     1      -5.961  -9.546  13.192  0.00  0.00    +0.024 A 
ATOM     27  C   UNL     1      -8.154  -9.635  12.182  0.00  0.00    +0.024 A 
ATOM     28  C   UNL     1      -5.376  -9.634  11.929  0.00  0.00    +0.013 A 
ATOM     29  C   UNL     1      -7.569  -9.721  10.919  0.00  0.00    +0.013 A 
ATOM     32  C   UNL     1      -6.180  -9.721  10.792  0.00  0.00    +0.017 A 
BRANCH  32  36
ATOM      7  O   UNL     1      -6.141 -10.397   8.533  0.00  0.00    -0.292 OA
ATOM     36  C   UNL     1      -5.571  -9.810   9.475  0.00  0.00    +0.160 C 
ATOM     37  C   UNL     1      -4.206  -9.181   9.214  0.00  0.00    +0.091 C 
ENDBRANCH  32  36
ENDBRANCH  10  24
BRANCH  22  11
ATOM     11  N   UNL     1      -3.045 -12.923  15.213  0.00  0.00    -0.211 N 
ATOM     40  H   UNL     1      -2.345 -13.444  15.761  0.00  0.00    +0.174 HD
BRANCH  11   1
ATOM      1  S   UNL     1      -2.409 -12.042  13.915  0.00  0.00    +0.073 S 
ATOM      4  O   UNL     1      -2.632 -10.625  14.130  0.00  0.00    -0.150 OA
ATOM      5  O   UNL     1      -1.082 -12.533  13.596  0.00  0.00    -0.150 OA
BRANCH   1  25
ATOM     25  C   UNL     1      -3.489 -12.553  12.611  0.00  0.00    +0.109 A 
ATOM     30  C   UNL     1      -3.079 -12.439  11.282  0.00  0.00    +0.032 A 
ATOM     31  C   UNL     1      -4.749 -13.071  12.910  0.00  0.00    +0.032 A 
ATOM     33  C   UNL     1      -3.930 -12.843  10.253  0.00  0.00    +0.047 A 
ATOM     34  C   UNL     1      -5.599 -13.476  11.881  0.00  0.00    +0.047 A 
ATOM     35  C   UNL     1      -5.190 -13.361  10.553  0.00  0.00    +0.120 A 
BRANCH  35   6
ATOM      6  O   UNL     1      -6.021 -13.754   9.548  0.00  0.00    -0.495 OA
ATOM     38  C   UNL     1      -7.412 -13.488   9.716  0.00  0.00    +0.277 C 
ENDBRANCH  35   6
ENDBRANCH   1  25
ENDBRANCH  11   1
ENDBRANCH  22  11
TORSDOF 6
ENDMDL
MODEL 5
REMARK VINA RESULT:      -6.9     26.276     30.029
REMARK  Name = 7113955
REMARK  8 active torsions:
REMARK  status: ('A' for Active; 'I' for Inactive)
REMARK    1  A    between atoms: S_1  and  N_11
REMARK    2  A    between atoms: S_1  and  C_25
REMARK    3  A    between atoms: O_6  and  C_35
REMARK    4  A    between atoms: O_6  and  C_38
REMARK    5  A    between atoms: N_10  and  C_24
REMARK    6  A    between atoms: N_11  and  C_22
REMARK    7  A    between atoms: C_32  and  C_36
REMARK    8  A    between atoms: C_36  and  C_37
REMARK                            x       y       z     vdW  Elec       q    Type
REMARK                         _______ _______ _______ _____ _____    ______ ____
ROOT
ATOM      2  O   UNL     1      -7.465 -13.561  12.169  0.00  0.00    -0.266 OA
ATOM      3  O   UNL     1      -2.973 -12.743  14.405  0.00  0.00    -0.252 OA
ATOM      8  N   UNL     1      -3.062 -11.296  12.605  0.00  0.00    -0.284 N 
ATOM      9  N   UNL     1      -5.946 -11.906  11.504  0.00  0.00    -0.310 N 
ATOM     10  N   UNL     1      -3.600 -10.539  14.771  0.00  0.00    -0.269 N 
ATOM     12  C   UNL     1      -3.659 -12.439  10.480  0.00  0.00    +0.027 C 
ATOM     13  C   UNL     1      -4.323 -10.093  10.845  0.00  0.00    +0.054 C 
ATOM     14  C   UNL     1      -3.810 -11.083   9.798  0.00  0.00    +0.018 C 
ATOM     15  C   UNL     1      -2.672 -12.346  11.661  0.00  0.00    +0.114 C 
ATOM     16  C   UNL     1      -5.048 -12.917  10.928  0.00  0.00    +0.130 C 
ATOM     17  C   UNL     1      -3.289  -9.981  11.981  0.00  0.00    +0.119 C 
ATOM     18  C   UNL     1      -5.661 -10.536  11.407  0.00  0.00    +0.027 A 
ATOM     19  C   UNL     1      -6.546  -9.622  11.844  0.00  0.00    +0.024 A 
ATOM     20  C   UNL     1      -7.149 -12.377  12.070  0.00  0.00    +0.274 A 
ATOM     21  C   UNL     1      -3.185 -11.606  13.975  0.00  0.00    +0.306 C 
ATOM     22  C   UNL     1      -8.074 -11.322  12.556  0.00  0.00    +0.112 A 
ATOM     23  C   UNL     1      -7.792 -10.024  12.439  0.00  0.00    +0.031 A 
ATOM     39  H   UNL     1      -3.357  -9.598  14.482  0.00  0.00    +0.156 HD
ENDROOT
BRANCH  10  24
ATOM     24  C   UNL     1      -4.355 -10.603  15.969  0.00  0.00    +0.035 A 
ATOM     26  C   UNL     1      -5.458  -9.767  16.144  0.00  0.00    +0.024 A 
ATOM     27  C   UNL     1      -3.996 -11.503  16.972  0.00  0.00    +0.024 A 
ATOM     28  C   UNL     1      -6.201  -9.831  17.322  0.00  0.00    +0.013 A 
ATOM     29  C   UNL     1      -4.739 -11.567  18.150  0.00  0.00    +0.013 A 
ATOM     32  C   UNL     1      -5.842 -10.731  18.326  0.00  0.00    +0.017 A 
BRANCH  32  36
ATOM      7  O   UNL     1      -6.077 -10.659  20.671  0.00  0.00    -0.292 OA
ATOM     36  C   UNL     1      -6.616 -10.797  19.554  0.00  0.00    +0.160 C 
ATOM     37  C   UNL     1      -8.121 -11.040  19.504  0.00  0.00    +0.091 C 
ENDBRANCH  32  36
ENDBRANCH  10  24
BRANCH  22  11
ATOM     11  N   UNL     1      -9.298 -11.674  13.151  0.00  0.00    -0.211 N 
ATOM     40  H   UNL     1     -10.102 -11.186  12.728  0.00  0.00    +0.174 HD
BRANCH  11   1
ATOM      1  S   UNL     1      -9.338 -11.762  14.840  0.00  0.00    +0.073 S 
ATOM      4  O   UNL     1     -10.360 -12.705  15.256  0.00  0.00    -0.150 OA
ATOM      5  O   UNL     1      -7.987 -11.875  15.355  0.00  0.00    -0.150 OA
BRANCH   1  25
ATOM     25  C   UNL     1      -9.922 -10.141  15.241  0.00  0.00    +0.109 A 
ATOM     30  C   UNL     1      -9.444  -9.490  16.378  0.00  0.00    +0.032 A 
ATOM     31  C   UNL     1     -10.859  -9.514  14.420  0.00  0.00    +0.032 A 
ATOM     33  C   UNL     1      -9.903  -8.211  16.694  0.00  0.00    +0.047 A 
ATOM     34  C   UNL     1     -11.318  -8.236  14.736  0.00  0.00    +0.047 A 
ATOM     35  C   UNL     1     -10.840  -7.584  15.872  0.00  0.00    +0.120 A 
BRANCH  35   6
ATOM      6  O   UNL     1     -11.290  -6.337  16.181  0.00  0.00    -0.495 OA
ATOM     38  C   UNL     1     -12.148  -5.703  15.234  0.00  0.00    +0.277 C 
ENDBRANCH  35   6
ENDBRANCH   1  25
ENDBRANCH  11   1
ENDBRANCH  22  11
TORSDOF 6
ENDMDL
MODEL 6
REMARK VINA RESULT:      -6.6     26.573     29.738
REMARK  Name = 7113955
REMARK  8 active torsions:
REMARK  status: ('A' for Active; 'I' for Inactive)
REMARK    1  A    between atoms: S_1  and  N_11
REMARK    2  A    between atoms: S_1  and  C_25
REMARK    3  A    between atoms: O_6  and  C_35
REMARK    4  A    between atoms: O_6  and  C_38
REMARK    5  A    between atoms: N_10  and  C_24
REMARK    6  A    between atoms: N_11  and  C_22
REMARK    7  A    between atoms: C_32  and  C_36
REMARK    8  A    between atoms: C_36  and  C_37
REMARK                            x       y       z     vdW  Elec       q    Type
REMARK                         _______ _______ _______ _____ _____    ______ ____
ROOT
ATOM      2  O   UNL     1      -7.222 -13.040  14.376  0.00  0.00    -0.266 OA
ATOM      3  O   UNL     1      -9.818 -11.296  18.384  0.00  0.00    -0.252 OA
ATOM      8  N   UNL     1      -7.583 -11.065  18.923  0.00  0.00    -0.284 N 
ATOM      9  N   UNL     1      -6.231 -12.071  16.266  0.00  0.00    -0.310 N 
ATOM     10  N   UNL     1      -8.806  -9.229  18.092  0.00  0.00    -0.269 N 
ATOM     12  C   UNL     1      -6.289 -13.159  18.584  0.00  0.00    +0.027 C 
ATOM     13  C   UNL     1      -5.192 -10.973  18.283  0.00  0.00    +0.054 C 
ATOM     14  C   UNL     1      -4.991 -12.392  18.817  0.00  0.00    +0.018 C 
ATOM     15  C   UNL     1      -7.464 -12.473  19.308  0.00  0.00    +0.114 C 
ATOM     16  C   UNL     1      -6.528 -13.265  17.071  0.00  0.00    +0.130 C 
ATOM     17  C   UNL     1      -6.334 -10.297  19.064  0.00  0.00    +0.119 C 
ATOM     18  C   UNL     1      -5.520 -10.989  16.801  0.00  0.00    +0.027 A 
ATOM     19  C   UNL     1      -5.164  -9.953  16.020  0.00  0.00    +0.024 A 
ATOM     20  C   UNL     1      -6.613 -12.113  14.908  0.00  0.00    +0.274 A 
ATOM     21  C   UNL     1      -8.823 -10.571  18.468  0.00  0.00    +0.306 C 
ATOM     22  C   UNL     1      -6.214 -10.931  14.104  0.00  0.00    +0.112 A 
ATOM     23  C   UNL     1      -5.521  -9.919  14.627  0.00  0.00    +0.031 A 
ATOM     39  H   UNL     1      -8.149  -8.608  18.552  0.00  0.00    +0.156 HD
ENDROOT
BRANCH  10  24
ATOM     24  C   UNL     1      -9.609  -8.601  17.108  0.00  0.00    +0.035 A 
ATOM     26  C   UNL     1     -10.456  -7.552  17.464  0.00  0.00    +0.024 A 
ATOM     27  C   UNL     1      -9.551  -9.032  15.783  0.00  0.00    +0.024 A 
ATOM     28  C   UNL     1     -11.244  -6.933  16.495  0.00  0.00    +0.013 A 
ATOM     29  C   UNL     1     -10.340  -8.414  14.814  0.00  0.00    +0.013 A 
ATOM     32  C   UNL     1     -11.187  -7.364  15.169  0.00  0.00    +0.017 A 
BRANCH  32  36
ATOM      7  O   UNL     1     -12.204  -5.488  14.165  0.00  0.00    -0.292 OA
ATOM     36  C   UNL     1     -12.010  -6.720  14.159  0.00  0.00    +0.160 C 
ATOM     37  C   UNL     1     -12.662  -7.548  13.056  0.00  0.00    +0.091 C 
ENDBRANCH  32  36
ENDBRANCH  10  24
BRANCH  22  11
ATOM     11  N   UNL     1      -6.550 -10.857  12.741  0.00  0.00    -0.211 N 
ATOM     40  H   UNL     1      -7.405 -11.384  12.511  0.00  0.00    +0.174 HD
BRANCH  11   1
ATOM      1  S   UNL     1      -5.291 -11.036  11.624  0.00  0.00    +0.073 S 
ATOM      4  O   UNL     1      -4.128 -10.295  12.076  0.00  0.00    -0.150 OA
ATOM      5  O   UNL     1      -5.167 -12.432  11.249  0.00  0.00    -0.150 OA
BRANCH   1  25
ATOM     25  C   UNL     1      -5.959 -10.173  10.233  0.00  0.00    +0.109 A 
ATOM     30  C   UNL     1      -7.024  -9.290  10.407  0.00  0.00    +0.032 A 
ATOM     31  C   UNL     1      -5.420 -10.374   8.962  0.00  0.00    +0.032 A 
ATOM     33  C   UNL     1      -7.552  -8.608   9.309  0.00  0.00    +0.047 A 
ATOM     34  C   UNL     1      -5.946  -9.693   7.865  0.00  0.00    +0.047 A 
ATOM     35  C   UNL     1      -7.012  -8.810   8.039  0.00  0.00    +0.120 A 
BRANCH  35   6
ATOM      6  O   UNL     1      -7.527  -8.145   6.968  0.00  0.00    -0.495 OA
ATOM     38  C   UNL     1      -8.211  -6.921   7.231  0.00  0.00    +0.277 C 
ENDBRANCH  35   6
ENDBRANCH   1  25
ENDBRANCH  11   1
ENDBRANCH  22  11
TORSDOF 6
ENDMDL
MODEL 7
REMARK VINA RESULT:      -6.6     16.606     21.212
REMARK  Name = 7113955
REMARK  8 active torsions:
REMARK  status: ('A' for Active; 'I' for Inactive)
REMARK    1  A    between atoms: S_1  and  N_11
REMARK    2  A    between atoms: S_1  and  C_25
REMARK    3  A    between atoms: O_6  and  C_35
REMARK    4  A    between atoms: O_6  and  C_38
REMARK    5  A    between atoms: N_10  and  C_24
REMARK    6  A    between atoms: N_11  and  C_22
REMARK    7  A    between atoms: C_32  and  C_36
REMARK    8  A    between atoms: C_36  and  C_37
REMARK                            x       y       z     vdW  Elec       q    Type
REMARK                         _______ _______ _______ _____ _____    ______ ____
ROOT
ATOM      2  O   UNL     1      -6.543  10.252   5.742  0.00  0.00    -0.266 OA
ATOM      3  O   UNL     1      -2.823  12.338   2.975  0.00  0.00    -0.252 OA
ATOM      8  N   UNL     1      -1.799  10.798   4.360  0.00  0.00    -0.284 N 
ATOM      9  N   UNL     1      -4.299   9.583   5.835  0.00  0.00    -0.310 N 
ATOM     10  N   UNL     1      -2.323  10.235   2.132  0.00  0.00    -0.269 N 
ATOM     12  C   UNL     1      -2.432  11.080   6.747  0.00  0.00    +0.027 C 
ATOM     13  C   UNL     1      -1.890   8.840   5.874  0.00  0.00    +0.054 C 
ATOM     14  C   UNL     1      -1.738   9.764   7.083  0.00  0.00    +0.018 C 
ATOM     15  C   UNL     1      -1.801  11.723   5.496  0.00  0.00    +0.114 C 
ATOM     16  C   UNL     1      -3.931  10.807   6.560  0.00  0.00    +0.130 C 
ATOM     17  C   UNL     1      -1.201   9.485   4.657  0.00  0.00    +0.119 C 
ATOM     18  C   UNL     1      -3.353   8.584   5.563  0.00  0.00    +0.027 A 
ATOM     19  C   UNL     1      -3.730   7.424   4.996  0.00  0.00    +0.024 A 
ATOM     20  C   UNL     1      -5.664   9.422   5.515  0.00  0.00    +0.274 A 
ATOM     21  C   UNL     1      -2.343  11.212   3.126  0.00  0.00    +0.306 C 
ATOM     22  C   UNL     1      -6.013   8.133   4.869  0.00  0.00    +0.112 A 
ATOM     23  C   UNL     1      -5.102   7.187   4.635  0.00  0.00    +0.031 A 
ATOM     39  H   UNL     1      -1.587   9.538   2.156  0.00  0.00    +0.156 HD
ENDROOT
BRANCH  10  24
ATOM     24  C   UNL     1      -3.238  10.079   1.061  0.00  0.00    +0.035 A 
ATOM     26  C   UNL     1      -4.605  10.238   1.283  0.00  0.00    +0.024 A 
ATOM     27  C   UNL     1      -2.769   9.768  -0.215  0.00  0.00    +0.024 A 
ATOM     28  C   UNL     1      -5.505  10.086   0.228  0.00  0.00    +0.013 A 
ATOM     29  C   UNL     1      -3.669   9.615  -1.270  0.00  0.00    +0.013 A 
ATOM     32  C   UNL     1      -5.037   9.774  -1.049  0.00  0.00    +0.017 A 
BRANCH  32  36
ATOM      7  O   UNL     1      -5.920  10.341  -3.161  0.00  0.00    -0.292 OA
ATOM     36  C   UNL     1      -5.974   9.614  -2.148  0.00  0.00    +0.160 C 
ATOM     37  C   UNL     1      -7.056   8.540  -2.087  0.00  0.00    +0.091 C 
ENDBRANCH  32  36
ENDBRANCH  10  24
BRANCH  22  11
ATOM     11  N   UNL     1      -7.342   7.866   4.494  0.00  0.00    -0.211 N 
ATOM     40  H   UNL     1      -7.841   8.707   4.168  0.00  0.00    +0.174 HD
BRANCH  11   1
ATOM      1  S   UNL     1      -8.244   6.862   5.514  0.00  0.00    +0.073 S 
ATOM      4  O   UNL     1      -7.505   5.641   5.777  0.00  0.00    -0.150 OA
ATOM      5  O   UNL     1      -8.784   7.640   6.613  0.00  0.00    -0.150 OA
BRANCH   1  25
ATOM     25  C   UNL     1      -9.595   6.442   4.452  0.00  0.00    +0.109 A 
ATOM     30  C   UNL     1      -9.548   6.779   3.099  0.00  0.00    +0.032 A 
ATOM     31  C   UNL     1     -10.706   5.774   4.966  0.00  0.00    +0.032 A 
ATOM     33  C   UNL     1     -10.613   6.447   2.261  0.00  0.00    +0.047 A 
ATOM     34  C   UNL     1     -11.770   5.442   4.128  0.00  0.00    +0.047 A 
ATOM     35  C   UNL     1     -11.723   5.778   2.776  0.00  0.00    +0.120 A 
BRANCH  35   6
ATOM      6  O   UNL     1     -12.763   5.456   1.958  0.00  0.00    -0.495 OA
ATOM     38  C   UNL     1     -12.533   5.538   0.553  0.00  0.00    +0.277 C 
ENDBRANCH  35   6
ENDBRANCH   1  25
ENDBRANCH  11   1
ENDBRANCH  22  11
TORSDOF 6
ENDMDL
MODEL 8
REMARK VINA RESULT:      -6.5     26.488     30.375
REMARK  Name = 7113955
REMARK  8 active torsions:
REMARK  status: ('A' for Active; 'I' for Inactive)
REMARK    1  A    between atoms: S_1  and  N_11
REMARK    2  A    between atoms: S_1  and  C_25
REMARK    3  A    between atoms: O_6  and  C_35
REMARK    4  A    between atoms: O_6  and  C_38
REMARK    5  A    between atoms: N_10  and  C_24
REMARK    6  A    between atoms: N_11  and  C_22
REMARK    7  A    between atoms: C_32  and  C_36
REMARK    8  A    between atoms: C_36  and  C_37
REMARK                            x       y       z     vdW  Elec       q    Type
REMARK                         _______ _______ _______ _____ _____    ______ ____
ROOT
ATOM      2  O   UNL     1      -4.048  -9.924  17.093  0.00  0.00    -0.266 OA
ATOM      3  O   UNL     1      -5.832  -9.525  12.349  0.00  0.00    -0.252 OA
ATOM      8  N   UNL     1      -4.458 -11.384  12.359  0.00  0.00    -0.284 N 
ATOM      9  N   UNL     1      -3.616 -11.474  15.390  0.00  0.00    -0.310 N 
ATOM     10  N   UNL     1      -6.794 -11.625  12.575  0.00  0.00    -0.269 N 
ATOM     12  C   UNL     1      -2.214 -10.918  13.319  0.00  0.00    +0.027 C 
ATOM     13  C   UNL     1      -3.213 -13.158  13.558  0.00  0.00    +0.054 C 
ATOM     14  C   UNL     1      -1.902 -12.411  13.307  0.00  0.00    +0.018 C 
ATOM     15  C   UNL     1      -3.248 -10.570  12.230  0.00  0.00    +0.114 C 
ATOM     16  C   UNL     1      -2.704 -10.533  14.722  0.00  0.00    +0.130 C 
ATOM     17  C   UNL     1      -4.203 -12.834  12.423  0.00  0.00    +0.119 C 
ATOM     18  C   UNL     1      -3.816 -12.770  14.895  0.00  0.00    +0.027 A 
ATOM     19  C   UNL     1      -4.568 -13.653  15.578  0.00  0.00    +0.024 A 
ATOM     20  C   UNL     1      -4.199 -11.040  16.599  0.00  0.00    +0.274 A 
ATOM     21  C   UNL     1      -5.718 -10.753  12.410  0.00  0.00    +0.306 C 
ATOM     22  C   UNL     1      -5.037 -12.049  17.293  0.00  0.00    +0.112 A 
ATOM     23  C   UNL     1      -5.201 -13.284  16.816  0.00  0.00    +0.031 A 
ATOM     39  H   UNL     1      -6.711 -12.566  12.208  0.00  0.00    +0.156 HD
ENDROOT
BRANCH  10  24
ATOM     24  C   UNL     1      -8.026 -11.358  13.221  0.00  0.00    +0.035 A 
ATOM     26  C   UNL     1      -8.885 -10.385  12.713  0.00  0.00    +0.024 A 
ATOM     27  C   UNL     1      -8.380 -12.072  14.366  0.00  0.00    +0.024 A 
ATOM     28  C   UNL     1     -10.098 -10.125  13.349  0.00  0.00    +0.013 A 
ATOM     29  C   UNL     1      -9.593 -11.811  15.003  0.00  0.00    +0.013 A 
ATOM     32  C   UNL     1     -10.453 -10.837  14.494  0.00  0.00    +0.017 A 
BRANCH  32  36
ATOM      7  O   UNL     1     -12.344  -9.506  14.955  0.00  0.00    -0.292 OA
ATOM     36  C   UNL     1     -11.717 -10.566  15.159  0.00  0.00    +0.160 C 
ATOM     37  C   UNL     1     -12.310 -11.582  16.129  0.00  0.00    +0.091 C 
ENDBRANCH  32  36
ENDBRANCH  10  24
BRANCH  22  11
ATOM     11  N   UNL     1      -5.679 -11.726  18.501  0.00  0.00    -0.211 N 
ATOM     40  H   UNL     1      -5.069 -11.849  19.323  0.00  0.00    +0.174 HD
BRANCH  11   1
ATOM      1  S   UNL     1      -7.262 -12.288  18.709  0.00  0.00    +0.073 S 
ATOM      4  O   UNL     1      -7.540 -13.331  17.739  0.00  0.00    -0.150 OA
ATOM      5  O   UNL     1      -7.519 -12.513  20.118  0.00  0.00    -0.150 OA
BRANCH   1  25
ATOM     25  C   UNL     1      -8.184 -10.859  18.225  0.00  0.00    +0.109 A 
ATOM     30  C   UNL     1      -9.483 -10.675  18.699  0.00  0.00    +0.032 A 
ATOM     31  C   UNL     1      -7.613  -9.915  17.371  0.00  0.00    +0.032 A 
ATOM     33  C   UNL     1     -10.211  -9.547  18.318  0.00  0.00    +0.047 A 
ATOM     34  C   UNL     1      -8.340  -8.788  16.991  0.00  0.00    +0.047 A 
ATOM     35  C   UNL     1      -9.639  -8.604  17.465  0.00  0.00    +0.120 A 
BRANCH  35   6
ATOM      6  O   UNL     1     -10.350  -7.504  17.093  0.00  0.00    -0.495 OA
ATOM     38  C   UNL     1     -10.100  -6.980  15.789  0.00  0.00    +0.277 C 
ENDBRANCH  35   6
ENDBRANCH   1  25
ENDBRANCH  11   1
ENDBRANCH  22  11
TORSDOF 6
ENDMDL
MODEL 9
REMARK VINA RESULT:      -6.5     27.057     30.457
REMARK  Name = 7113955
REMARK  8 active torsions:
REMARK  status: ('A' for Active; 'I' for Inactive)
REMARK    1  A    between atoms: S_1  and  N_11
REMARK    2  A    between atoms: S_1  and  C_25
REMARK    3  A    between atoms: O_6  and  C_35
REMARK    4  A    between atoms: O_6  and  C_38
REMARK    5  A    between atoms: N_10  and  C_24
REMARK    6  A    between atoms: N_11  and  C_22
REMARK    7  A    between atoms: C_32  and  C_36
REMARK    8  A    between atoms: C_36  and  C_37
REMARK                            x       y       z     vdW  Elec       q    Type
REMARK                         _______ _______ _______ _____ _____    ______ ____
ROOT
ATOM      2  O   UNL     1      -7.468 -13.062  11.924  0.00  0.00    -0.266 OA
ATOM      3  O   UNL     1      -4.389 -13.338  15.960  0.00  0.00    -0.252 OA
ATOM      8  N   UNL     1      -3.346 -11.924  14.459  0.00  0.00    -0.284 N 
ATOM      9  N   UNL     1      -5.492 -11.825  12.159  0.00  0.00    -0.310 N 
ATOM     10  N   UNL     1      -4.615 -11.046  16.241  0.00  0.00    -0.269 N 
ATOM     12  C   UNL     1      -3.167 -12.900  12.181  0.00  0.00    +0.027 C 
ATOM     13  C   UNL     1      -3.393 -10.462  12.459  0.00  0.00    +0.054 C 
ATOM     14  C   UNL     1      -2.697 -11.552  11.643  0.00  0.00    +0.018 C 
ATOM     15  C   UNL     1      -2.816 -13.042  13.675  0.00  0.00    +0.114 C 
ATOM     16  C   UNL     1      -4.676 -13.027  11.929  0.00  0.00    +0.130 C 
ATOM     17  C   UNL     1      -2.978 -10.596  13.936  0.00  0.00    +0.119 C 
ATOM     18  C   UNL     1      -4.902 -10.566  12.336  0.00  0.00    +0.027 A 
ATOM     19  C   UNL     1      -5.665  -9.463  12.436  0.00  0.00    +0.024 A 
ATOM     20  C   UNL     1      -6.892 -11.989  12.094  0.00  0.00    +0.274 A 
ATOM     21  C   UNL     1      -4.133 -12.186  15.600  0.00  0.00    +0.306 C 
ATOM     22  C   UNL     1      -7.680 -10.740  12.236  0.00  0.00    +0.112 A 
ATOM     23  C   UNL     1      -7.100  -9.548  12.386  0.00  0.00    +0.031 A 
ATOM     39  H   UNL     1      -4.069 -10.194  16.184  0.00  0.00    +0.156 HD
ENDROOT
BRANCH  10  24
ATOM     24  C   UNL     1      -5.819 -10.918  16.979  0.00  0.00    +0.035 A 
ATOM     26  C   UNL     1      -6.614  -9.783  16.824  0.00  0.00    +0.024 A 
ATOM     27  C   UNL     1      -6.207 -11.929  17.857  0.00  0.00    +0.024 A 
ATOM     28  C   UNL     1      -7.799  -9.660  17.549  0.00  0.00    +0.013 A 
ATOM     29  C   UNL     1      -7.392 -11.805  18.583  0.00  0.00    +0.013 A 
ATOM     32  C   UNL     1      -8.189 -10.670  18.429  0.00  0.00    +0.017 A 
BRANCH  32  36
ATOM      7  O   UNL     1      -9.561 -11.079  20.303  0.00  0.00    -0.292 OA
ATOM     36  C   UNL     1      -9.423 -10.540  19.186  0.00  0.00    +0.160 C 
ATOM     37  C   UNL     1     -10.589  -9.732  18.624  0.00  0.00    +0.091 C 
ENDBRANCH  32  36
ENDBRANCH  10  24
BRANCH  22  11
ATOM     11  N   UNL     1      -9.085 -10.781  12.200  0.00  0.00    -0.211 N 
ATOM     40  H   UNL     1      -9.493 -10.009  11.654  0.00  0.00    +0.174 HD
BRANCH  11   1
ATOM      1  S   UNL     1      -9.884 -11.115  13.654  0.00  0.00    +0.073 S 
ATOM      4  O   UNL     1     -11.005 -12.002  13.404  0.00  0.00    -0.150 OA
ATOM      5  O   UNL     1      -8.913 -11.438  14.682  0.00  0.00    -0.150 OA
BRANCH   1  25
ATOM     25  C   UNL     1     -10.548  -9.521  14.037  0.00  0.00    +0.109 A 
ATOM     30  C   UNL     1      -9.974  -8.752  15.049  0.00  0.00    +0.032 A 
ATOM     31  C   UNL     1     -11.645  -9.033  13.328  0.00  0.00    +0.032 A 
ATOM     33  C   UNL     1     -10.497  -7.494  15.351  0.00  0.00    +0.047 A 
ATOM     34  C   UNL     1     -12.168  -7.776  13.629  0.00  0.00    +0.047 A 
ATOM     35  C   UNL     1     -11.594  -7.006  14.641  0.00  0.00    +0.120 A 
BRANCH  35   6
ATOM      6  O   UNL     1     -12.105  -5.780  14.937  0.00  0.00    -0.495 OA
ATOM     38  C   UNL     1     -13.004  -5.206  13.989  0.00  0.00    +0.277 C 
ENDBRANCH  35   6
ENDBRANCH   1  25
ENDBRANCH  11   1
ENDBRANCH  22  11
TORSDOF 6
ENDMDL
MODEL 10
REMARK VINA RESULT:      -6.5     15.929     20.171
REMARK  Name = 7113955
REMARK  8 active torsions:
REMARK  status: ('A' for Active; 'I' for Inactive)
REMARK    1  A    between atoms: S_1  and  N_11
REMARK    2  A    between atoms: S_1  and  C_25
REMARK    3  A    between atoms: O_6  and  C_35
REMARK    4  A    between atoms: O_6  and  C_38
REMARK    5  A    between atoms: N_10  and  C_24
REMARK    6  A    between atoms: N_11  and  C_22
REMARK    7  A    between atoms: C_32  and  C_36
REMARK    8  A    between atoms: C_36  and  C_37
REMARK                            x       y       z     vdW  Elec       q    Type
REMARK                         _______ _______ _______ _____ _____    ______ ____
ROOT
ATOM      2  O   UNL     1      -5.383  12.183   5.261  0.00  0.00    -0.266 OA
ATOM      3  O   UNL     1      -1.188  12.156   2.388  0.00  0.00    -0.252 OA
ATOM      8  N   UNL     1      -0.828  10.597   4.056  0.00  0.00    -0.284 N 
ATOM      9  N   UNL     1      -3.580  10.719   5.577  0.00  0.00    -0.310 N 
ATOM     10  N   UNL     1      -1.566   9.914   1.924  0.00  0.00    -0.269 N 
ATOM     12  C   UNL     1      -1.261  11.503   6.330  0.00  0.00    +0.027 C 
ATOM     13  C   UNL     1      -1.656   9.116   5.860  0.00  0.00    +0.054 C 
ATOM     14  C   UNL     1      -1.134  10.098   6.910  0.00  0.00    +0.018 C 
ATOM     15  C   UNL     1      -0.448  11.628   5.026  0.00  0.00    +0.114 C 
ATOM     16  C   UNL     1      -2.750  11.808   6.112  0.00  0.00    +0.130 C 
ATOM     17  C   UNL     1      -0.789   9.225   4.592  0.00  0.00    +0.119 C 
ATOM     18  C   UNL     1      -3.107   9.401   5.520  0.00  0.00    +0.027 A 
ATOM     19  C   UNL     1      -3.918   8.401   5.128  0.00  0.00    +0.024 A 
ATOM     20  C   UNL     1      -4.904  11.051   5.216  0.00  0.00    +0.274 A 
ATOM     21  C   UNL     1      -1.185  10.975   2.745  0.00  0.00    +0.306 C 
ATOM     22  C   UNL     1      -5.741   9.910   4.770  0.00  0.00    +0.112 A 
ATOM     23  C   UNL     1      -5.278   8.660   4.740  0.00  0.00    +0.031 A 
ATOM     39  H   UNL     1      -1.163   9.001   2.099  0.00  0.00    +0.156 HD
ENDROOT
BRANCH  10  24
ATOM     24  C   UNL     1      -2.486   9.948   0.847  0.00  0.00    +0.035 A 
ATOM     26  C   UNL     1      -2.053   9.669  -0.449  0.00  0.00    +0.024 A 
ATOM     27  C   UNL     1      -3.825  10.259   1.084  0.00  0.00    +0.024 A 
ATOM     28  C   UNL     1      -2.959   9.701  -1.508  0.00  0.00    +0.013 A 
ATOM     29  C   UNL     1      -4.731  10.291   0.024  0.00  0.00    +0.013 A 
ATOM     32  C   UNL     1      -4.299  10.012  -1.272  0.00  0.00    +0.017 A 
BRANCH  32  36
ATOM      7  O   UNL     1      -6.292   9.370  -2.357  0.00  0.00    -0.292 OA
ATOM     36  C   UNL     1      -5.243  10.046  -2.376  0.00  0.00    +0.160 C 
ATOM     37  C   UNL     1      -4.970  10.921  -3.596  0.00  0.00    +0.091 C 
ENDBRANCH  32  36
ENDBRANCH  10  24
BRANCH  22  11
ATOM     11  N   UNL     1      -7.074  10.122   4.375  0.00  0.00    -0.211 N 
ATOM     40  H   UNL     1      -7.207  11.021   3.889  0.00  0.00    +0.174 HD
BRANCH  11   1
ATOM      1  S   UNL     1      -8.281   9.742   5.498  0.00  0.00    +0.073 S 
ATOM      4  O   UNL     1      -7.734   9.796   6.841  0.00  0.00    -0.150 OA
ATOM      5  O   UNL     1      -9.495  10.467   5.174  0.00  0.00    -0.150 OA
BRANCH   1  25
ATOM     25  C   UNL     1      -8.565   8.040   5.113  0.00  0.00    +0.109 A 
ATOM     30  C   UNL     1      -8.864   7.662   3.804  0.00  0.00    +0.032 A 
ATOM     31  C   UNL     1      -8.489   7.074   6.116  0.00  0.00    +0.032 A 
ATOM     33  C   UNL     1      -9.087   6.319   3.499  0.00  0.00    +0.047 A 
ATOM     34  C   UNL     1      -8.711   5.732   5.812  0.00  0.00    +0.047 A 
ATOM     35  C   UNL     1      -9.010   5.354   4.503  0.00  0.00    +0.120 A 
BRANCH  35   6
ATOM      6  O   UNL     1      -9.229   4.044   4.206  0.00  0.00    -0.495 OA
ATOM     38  C   UNL     1      -8.925   3.620   2.879  0.00  0.00    +0.277 C 
ENDBRANCH  35   6
ENDBRANCH   1  25
ENDBRANCH  11   1
ENDBRANCH  22  11
TORSDOF 6
ENDMDL
