MODEL 1
REMARK VINA RESULT:      -6.6      0.000      0.000
REMARK  Name = 38029018
REMARK  9 active torsions:
REMARK  status: ('A' for Active; 'I' for Inactive)
REMARK    1  A    between atoms: N_3  and  C_14
REMARK    2  A    between atoms: C_7  and  C_11
REMARK    3  A    between atoms: C_8  and  C_14
REMARK    4  A    between atoms: C_10  and  C_16
REMARK    5  A    between atoms: C_11  and  C_19
REMARK    6  A    between atoms: C_11  and  C_20
REMARK    7  A    between atoms: C_12  and  C_22
REMARK    8  A    between atoms: C_15  and  C_21
REMARK    9  A    between atoms: C_16  and  C_23
REMARK                            x       y       z     vdW  Elec       q    Type
REMARK                         _______ _______ _______ _____ _____    ______ ____
ROOT
ATOM      7  C   UNL     1      -7.462 -11.775  17.124  0.00  0.00    +0.000 C 
ATOM      8  C   UNL     1      -7.522 -12.073  18.643  0.00  0.00    +0.032 C 
ATOM      9  C   UNL     1      -6.244 -12.464  16.490  0.00  0.00    +0.012 C 
ATOM     10  C   UNL     1      -4.919 -12.007  17.129  0.00  0.00    +0.023 C 
ATOM     12  C   UNL     1      -4.991 -12.018  18.642  0.00  0.00    -0.073 C 
ATOM     13  C   UNL     1      -6.162 -12.061  19.301  0.00  0.00    -0.022 C 
ATOM     22  C   UNL     1      -3.681 -12.024  19.382  0.00  0.00    +0.039 C 
ENDROOT
BRANCH   7  11
ATOM     11  C   UNL     1      -8.741 -12.220  16.407  0.00  0.00    -0.013 C 
ATOM     19  C   UNL     1      -8.972 -13.714  16.610  0.00  0.00    +0.007 C 
ATOM     20  C   UNL     1      -8.663 -11.881  14.921  0.00  0.00    +0.007 C 
ENDBRANCH   7  11
BRANCH   8  14
ATOM     14  C   UNL     1      -8.447 -11.086  19.364  0.00  0.00    +0.112 C 
BRANCH  14   3
ATOM      1  O   UNL     1     -11.055  -9.875  18.932  0.00  0.00    -0.276 OA
ATOM      3  N   UNL     1      -8.764  -9.977  18.518  0.00  0.00    -0.315 N 
ATOM     21  C   UNL     1     -10.047  -9.461  18.372  0.00  0.00    +0.216 C 
ATOM     33  H   UNL     1      -8.000  -9.510  18.038  0.00  0.00    +0.149 HD
BRANCH  21  15
ATOM     15  C   UNL     1     -10.146  -8.300  17.440  0.00  0.00    +0.075 C 
ATOM     17  C   UNL     1      -9.362  -8.322  16.160  0.00  0.00    +0.013 C 
ATOM     18  C   UNL     1     -10.854  -8.476  16.128  0.00  0.00    +0.013 C 
ENDBRANCH  21  15
ENDBRANCH  14   3
ENDBRANCH   8  14
BRANCH  10  16
ATOM     16  C   UNL     1      -4.501 -10.627  16.609  0.00  0.00    +0.103 C 
BRANCH  16  23
ATOM      2  O   UNL     1      -2.202 -10.945  16.107  0.00  0.00    -0.276 OA
ATOM      4  N   UNL     1      -3.637 -10.680  14.299  0.00  0.00    -0.298 N 
ATOM      5  N   UNL     1      -4.174 -10.730  11.455  0.00  0.00    -0.312 N 
ATOM      6  N   UNL     1      -5.024  -9.722   9.495  0.00  0.00    -0.240 NA
ATOM     23  C   UNL     1      -3.337 -10.768  15.659  0.00  0.00    +0.216 C 
ATOM     24  C   UNL     1      -4.988 -10.480  13.767  0.00  0.00    +0.126 C 
ATOM     25  C   UNL     1      -2.563 -10.802  13.315  0.00  0.00    +0.126 C 
ATOM     26  C   UNL     1      -4.987  -9.904  12.351  0.00  0.00    +0.125 C 
ATOM     27  C   UNL     1      -3.042 -11.466  12.027  0.00  0.00    +0.125 C 
ATOM     28  C   UNL     1      -4.445 -10.789  10.090  0.00  0.00    +0.121 A 
ATOM     29  C   UNL     1      -4.096 -11.953   9.424  0.00  0.00    +0.043 A 
ATOM     30  C   UNL     1      -4.360 -12.028   8.061  0.00  0.00    +0.005 A 
ATOM     31  C   UNL     1      -5.265  -9.831   8.169  0.00  0.00    +0.113 A 
ATOM     32  C   UNL     1      -4.955 -10.950   7.414  0.00  0.00    +0.020 A 
ENDBRANCH  16  23
ENDBRANCH  10  16
TORSDOF 6
ENDMDL
MODEL 2
REMARK VINA RESULT:      -6.6      2.278      3.585
REMARK  Name = 38029018
REMARK  9 active torsions:
REMARK  status: ('A' for Active; 'I' for Inactive)
REMARK    1  A    between atoms: N_3  and  C_14
REMARK    2  A    between atoms: C_7  and  C_11
REMARK    3  A    between atoms: C_8  and  C_14
REMARK    4  A    between atoms: C_10  and  C_16
REMARK    5  A    between atoms: C_11  and  C_19
REMARK    6  A    between atoms: C_11  and  C_20
REMARK    7  A    between atoms: C_12  and  C_22
REMARK    8  A    between atoms: C_15  and  C_21
REMARK    9  A    between atoms: C_16  and  C_23
REMARK                            x       y       z     vdW  Elec       q    Type
REMARK                         _______ _______ _______ _____ _____    ______ ____
ROOT
ATOM      7  C   UNL     1      -4.759 -12.437  16.306  0.00  0.00    +0.000 C 
ATOM      8  C   UNL     1      -3.880 -11.932  17.477  0.00  0.00    +0.032 C 
ATOM      9  C   UNL     1      -3.887 -12.771  15.087  0.00  0.00    +0.012 C 
ATOM     10  C   UNL     1      -3.077 -11.555  14.600  0.00  0.00    +0.023 C 
ATOM     12  C   UNL     1      -2.392 -10.839  15.745  0.00  0.00    -0.073 C 
ATOM     13  C   UNL     1      -2.755 -11.031  17.026  0.00  0.00    -0.022 C 
ATOM     22  C   UNL     1      -1.247  -9.931  15.389  0.00  0.00    +0.039 C 
ENDROOT
BRANCH   7  11
ATOM     11  C   UNL     1      -5.586 -13.664  16.704  0.00  0.00    -0.013 C 
ATOM     19  C   UNL     1      -4.913 -14.941  16.212  0.00  0.00    +0.007 C 
ATOM     20  C   UNL     1      -7.004 -13.552  16.152  0.00  0.00    +0.007 C 
ENDBRANCH   7  11
BRANCH   8  14
ATOM     14  C   UNL     1      -4.725 -11.206  18.531  0.00  0.00    +0.112 C 
BRANCH  14   3
ATOM      1  O   UNL     1      -7.328 -10.674  19.713  0.00  0.00    -0.276 OA
ATOM      3  N   UNL     1      -5.841 -10.552  17.922  0.00  0.00    -0.315 N 
ATOM     21  C   UNL     1      -7.055 -10.338  18.566  0.00  0.00    +0.216 C 
ATOM     33  H   UNL     1      -5.721 -10.176  16.985  0.00  0.00    +0.149 HD
BRANCH  21  15
ATOM     15  C   UNL     1      -8.080  -9.633  17.742  0.00  0.00    +0.075 C 
ATOM     17  C   UNL     1      -7.888  -9.545  16.256  0.00  0.00    +0.013 C 
ATOM     18  C   UNL     1      -8.955 -10.434  16.823  0.00  0.00    +0.013 C 
ENDBRANCH  21  15
ENDBRANCH  14   3
ENDBRANCH   8  14
BRANCH  10  16
ATOM     16  C   UNL     1      -3.957 -10.590  13.797  0.00  0.00    +0.103 C 
BRANCH  16  23
ATOM      2  O   UNL     1      -2.175 -10.654  12.229  0.00  0.00    -0.276 OA
ATOM      4  N   UNL     1      -4.204  -9.813  11.469  0.00  0.00    -0.298 N 
ATOM      5  N   UNL     1      -5.929  -8.883   9.339  0.00  0.00    -0.312 N 
ATOM      6  N   UNL     1      -7.401  -7.278   8.425  0.00  0.00    -0.240 NA
ATOM     23  C   UNL     1      -3.356 -10.360  12.433  0.00  0.00    +0.216 C 
ATOM     24  C   UNL     1      -5.609  -9.475  11.709  0.00  0.00    +0.126 C 
ATOM     25  C   UNL     1      -3.695  -9.557  10.124  0.00  0.00    +0.126 C 
ATOM     26  C   UNL     1      -6.147  -8.442  10.719  0.00  0.00    +0.125 C 
ATOM     27  C   UNL     1      -4.774  -9.742   9.060  0.00  0.00    +0.125 C 
ATOM     28  C   UNL     1      -6.773  -8.470   8.311  0.00  0.00    +0.121 A 
ATOM     29  C   UNL     1      -6.913  -9.320   7.226  0.00  0.00    +0.043 A 
ATOM     30  C   UNL     1      -7.753  -8.923   6.191  0.00  0.00    +0.005 A 
ATOM     31  C   UNL     1      -8.209  -6.925   7.399  0.00  0.00    +0.113 A 
ATOM     32  C   UNL     1      -8.416  -7.702   6.272  0.00  0.00    +0.020 A 
ENDBRANCH  16  23
ENDBRANCH  10  16
TORSDOF 6
ENDMDL
MODEL 3
REMARK VINA RESULT:      -6.4      4.599      8.063
REMARK  Name = 38029018
REMARK  9 active torsions:
REMARK  status: ('A' for Active; 'I' for Inactive)
REMARK    1  A    between atoms: N_3  and  C_14
REMARK    2  A    between atoms: C_7  and  C_11
REMARK    3  A    between atoms: C_8  and  C_14
REMARK    4  A    between atoms: C_10  and  C_16
REMARK    5  A    between atoms: C_11  and  C_19
REMARK    6  A    between atoms: C_11  and  C_20
REMARK    7  A    between atoms: C_12  and  C_22
REMARK    8  A    between atoms: C_15  and  C_21
REMARK    9  A    between atoms: C_16  and  C_23
REMARK                            x       y       z     vdW  Elec       q    Type
REMARK                         _______ _______ _______ _____ _____    ______ ____
ROOT
ATOM      7  C   UNL     1      -9.543 -10.395  17.407  0.00  0.00    +0.000 C 
ATOM      8  C   UNL     1      -9.277 -10.949  18.829  0.00  0.00    +0.032 C 
ATOM      9  C   UNL     1     -10.306  -9.065  17.483  0.00  0.00    +0.012 C 
ATOM     10  C   UNL     1     -11.656  -9.209  18.210  0.00  0.00    +0.023 C 
ATOM     12  C   UNL     1     -11.519  -9.986  19.504  0.00  0.00    -0.073 C 
ATOM     13  C   UNL     1     -10.442 -10.747  19.769  0.00  0.00    -0.022 C 
ATOM     22  C   UNL     1     -12.628  -9.831  20.508  0.00  0.00    +0.039 C 
ENDROOT
BRANCH   7  11
ATOM     11  C   UNL     1      -8.242 -10.203  16.620  0.00  0.00    -0.013 C 
ATOM     19  C   UNL     1      -7.344  -9.186  17.317  0.00  0.00    +0.007 C 
ATOM     20  C   UNL     1      -8.545  -9.766  15.190  0.00  0.00    +0.007 C 
ENDBRANCH   7  11
BRANCH   8  14
ATOM     14  C   UNL     1      -8.909 -12.437  18.784  0.00  0.00    +0.112 C 
BRANCH  14   3
ATOM      1  O   UNL     1      -6.597 -11.603  20.337  0.00  0.00    -0.276 OA
ATOM      3  N   UNL     1      -7.529 -12.608  18.452  0.00  0.00    -0.315 N 
ATOM     21  C   UNL     1      -6.483 -12.175  19.260  0.00  0.00    +0.216 C 
ATOM     33  H   UNL     1      -7.302 -13.119  17.604  0.00  0.00    +0.149 HD
BRANCH  21  15
ATOM     15  C   UNL     1      -5.122 -12.461  18.718  0.00  0.00    +0.075 C 
ATOM     17  C   UNL     1      -4.920 -12.497  17.231  0.00  0.00    +0.013 C 
ATOM     18  C   UNL     1      -4.361 -11.361  18.036  0.00  0.00    +0.013 C 
ENDBRANCH  21  15
ENDBRANCH  14   3
ENDBRANCH   8  14
BRANCH  10  16
ATOM     16  C   UNL     1     -12.710  -9.846  17.298  0.00  0.00    +0.103 C 
BRANCH  16  23
ATOM      2  O   UNL     1     -14.742  -8.644  17.563  0.00  0.00    -0.276 OA
ATOM      4  N   UNL     1     -13.433  -8.088  15.725  0.00  0.00    -0.298 N 
ATOM      5  N   UNL     1     -12.827  -6.390  13.460  0.00  0.00    -0.312 N 
ATOM      6  N   UNL     1     -12.321  -6.103  11.171  0.00  0.00    -0.240 NA
ATOM     23  C   UNL     1     -13.725  -8.808  16.884  0.00  0.00    +0.216 C 
ATOM     24  C   UNL     1     -12.220  -8.277  14.925  0.00  0.00    +0.126 C 
ATOM     25  C   UNL     1     -14.369  -7.068  15.256  0.00  0.00    +0.126 C 
ATOM     26  C   UNL     1     -12.378  -7.784  13.487  0.00  0.00    +0.125 C 
ATOM     27  C   UNL     1     -13.651  -5.907  14.572  0.00  0.00    +0.125 C 
ATOM     28  C   UNL     1     -12.512  -5.554  12.392  0.00  0.00    +0.121 A 
ATOM     29  C   UNL     1     -12.417  -4.198  12.656  0.00  0.00    +0.043 A 
ATOM     30  C   UNL     1     -12.103  -3.349  11.600  0.00  0.00    +0.005 A 
ATOM     31  C   UNL     1     -12.017  -5.248  10.169  0.00  0.00    +0.113 A 
ATOM     32  C   UNL     1     -11.898  -3.876  10.329  0.00  0.00    +0.020 A 
ENDBRANCH  16  23
ENDBRANCH  10  16
TORSDOF 6
ENDMDL
MODEL 4
REMARK VINA RESULT:      -6.4     24.337     27.295
REMARK  Name = 38029018
REMARK  9 active torsions:
REMARK  status: ('A' for Active; 'I' for Inactive)
REMARK    1  A    between atoms: N_3  and  C_14
REMARK    2  A    between atoms: C_7  and  C_11
REMARK    3  A    between atoms: C_8  and  C_14
REMARK    4  A    between atoms: C_10  and  C_16
REMARK    5  A    between atoms: C_11  and  C_19
REMARK    6  A    between atoms: C_11  and  C_20
REMARK    7  A    between atoms: C_12  and  C_22
REMARK    8  A    between atoms: C_15  and  C_21
REMARK    9  A    between atoms: C_16  and  C_23
REMARK                            x       y       z     vdW  Elec       q    Type
REMARK                         _______ _______ _______ _____ _____    ______ ____
ROOT
ATOM      7  C   UNL     1      10.217   6.493   6.396  0.00  0.00    +0.000 C 
ATOM      8  C   UNL     1       9.898   7.533   7.499  0.00  0.00    +0.032 C 
ATOM      9  C   UNL     1      11.735   6.303   6.261  0.00  0.00    +0.012 C 
ATOM     10  C   UNL     1      12.457   7.618   5.915  0.00  0.00    +0.023 C 
ATOM     12  C   UNL     1      11.995   8.763   6.792  0.00  0.00    -0.073 C 
ATOM     13  C   UNL     1      10.855   8.702   7.504  0.00  0.00    -0.022 C 
ATOM     22  C   UNL     1      12.896   9.964   6.870  0.00  0.00    +0.039 C 
ENDROOT
BRANCH   7  11
ATOM     11  C   UNL     1       9.548   5.144   6.677  0.00  0.00    -0.013 C 
ATOM     19  C   UNL     1       9.948   4.629   8.055  0.00  0.00    +0.007 C 
ATOM     20  C   UNL     1       9.913   4.133   5.594  0.00  0.00    +0.007 C 
ENDBRANCH   7  11
BRANCH   8  14
ATOM     14  C   UNL     1       8.460   8.051   7.372  0.00  0.00    +0.112 C 
BRANCH  14   3
ATOM      1  O   UNL     1       8.377  10.233   5.452  0.00  0.00    -0.276 OA
ATOM      3  N   UNL     1       8.021   7.999   6.013  0.00  0.00    -0.315 N 
ATOM     21  C   UNL     1       8.016   9.099   5.162  0.00  0.00    +0.216 C 
ATOM     33  H   UNL     1       7.746   7.097   5.634  0.00  0.00    +0.149 HD
BRANCH  21  15
ATOM     15  C   UNL     1       7.518   8.815   3.783  0.00  0.00    +0.075 C 
ATOM     17  C   UNL     1       8.043   9.626   2.635  0.00  0.00    +0.013 C 
ATOM     18  C   UNL     1       8.448   8.189   2.785  0.00  0.00    +0.013 C 
ENDBRANCH  21  15
ENDBRANCH  14   3
ENDBRANCH   8  14
BRANCH  10  16
ATOM     16  C   UNL     1      12.295   7.964   4.430  0.00  0.00    +0.103 C 
BRANCH  16  23
ATOM      2  O   UNL     1      14.588   7.469   4.054  0.00  0.00    -0.276 OA
ATOM      4  N   UNL     1      13.082   6.723   2.449  0.00  0.00    -0.298 N 
ATOM      5  N   UNL     1      12.451   5.181   0.082  0.00  0.00    -0.312 N 
ATOM      6  N   UNL     1      11.495   4.998  -2.070  0.00  0.00    -0.240 NA
ATOM     23  C   UNL     1      13.431   7.366   3.637  0.00  0.00    +0.216 C 
ATOM     24  C   UNL     1      11.707   6.592   1.960  0.00  0.00    +0.126 C 
ATOM     25  C   UNL     1      14.126   6.122   1.622  0.00  0.00    +0.126 C 
ATOM     26  C   UNL     1      11.637   6.340   0.454  0.00  0.00    +0.125 C 
ATOM     27  C   UNL     1      13.631   4.873   0.896  0.00  0.00    +0.125 C 
ATOM     28  C   UNL     1      12.138   4.410  -1.035  0.00  0.00    +0.121 A 
ATOM     29  C   UNL     1      12.511   3.077  -1.011  0.00  0.00    +0.043 A 
ATOM     30  C   UNL     1      12.204   2.294  -2.118  0.00  0.00    +0.005 A 
ATOM     31  C   UNL     1      11.214   4.206  -3.129  0.00  0.00    +0.113 A 
ATOM     32  C   UNL     1      11.544   2.862  -3.203  0.00  0.00    +0.020 A 
ENDBRANCH  16  23
ENDBRANCH  10  16
TORSDOF 6
ENDMDL
MODEL 5
REMARK VINA RESULT:      -6.3      1.547      2.076
REMARK  Name = 38029018
REMARK  9 active torsions:
REMARK  status: ('A' for Active; 'I' for Inactive)
REMARK    1  A    between atoms: N_3  and  C_14
REMARK    2  A    between atoms: C_7  and  C_11
REMARK    3  A    between atoms: C_8  and  C_14
REMARK    4  A    between atoms: C_10  and  C_16
REMARK    5  A    between atoms: C_11  and  C_19
REMARK    6  A    between atoms: C_11  and  C_20
REMARK    7  A    between atoms: C_12  and  C_22
REMARK    8  A    between atoms: C_15  and  C_21
REMARK    9  A    between atoms: C_16  and  C_23
REMARK                            x       y       z     vdW  Elec       q    Type
REMARK                         _______ _______ _______ _____ _____    ______ ____
ROOT
ATOM      7  C   UNL     1      -6.169 -13.313  16.409  0.00  0.00    +0.000 C 
ATOM      8  C   UNL     1      -7.290 -13.414  17.473  0.00  0.00    +0.032 C 
ATOM      9  C   UNL     1      -4.810 -13.072  17.083  0.00  0.00    +0.012 C 
ATOM     10  C   UNL     1      -4.800 -11.783  17.927  0.00  0.00    +0.023 C 
ATOM     12  C   UNL     1      -6.023 -11.681  18.815  0.00  0.00    -0.073 C 
ATOM     13  C   UNL     1      -7.121 -12.428  18.605  0.00  0.00    -0.022 C 
ATOM     22  C   UNL     1      -5.938 -10.733  19.980  0.00  0.00    +0.039 C 
ENDROOT
BRANCH   7  11
ATOM     11  C   UNL     1      -6.099 -14.570  15.536  0.00  0.00    -0.013 C 
ATOM     19  C   UNL     1      -5.962 -15.815  16.406  0.00  0.00    +0.007 C 
ATOM     20  C   UNL     1      -4.940 -14.469  14.549  0.00  0.00    +0.007 C 
ENDBRANCH   7  11
BRANCH   8  14
ATOM     14  C   UNL     1      -8.674 -13.231  16.839  0.00  0.00    +0.112 C 
BRANCH  14   3
ATOM      1  O   UNL     1      -8.540 -11.164  14.798  0.00  0.00    -0.276 OA
ATOM      3  N   UNL     1      -9.105 -11.872  16.945  0.00  0.00    -0.315 N 
ATOM     21  C   UNL     1      -9.003 -10.948  15.912  0.00  0.00    +0.216 C 
ATOM     33  H   UNL     1      -9.558 -11.582  17.807  0.00  0.00    +0.149 HD
BRANCH  21  15
ATOM     15  C   UNL     1      -9.518  -9.586  16.243  0.00  0.00    +0.075 C 
ATOM     17  C   UNL     1      -9.919  -9.282  17.657  0.00  0.00    +0.013 C 
ATOM     18  C   UNL     1      -8.675  -8.671  17.082  0.00  0.00    +0.013 C 
ENDBRANCH  21  15
ENDBRANCH  14   3
ENDBRANCH   8  14
BRANCH  10  16
ATOM     16  C   UNL     1      -4.662 -10.541  17.038  0.00  0.00    +0.103 C 
BRANCH  16  23
ATOM      2  O   UNL     1      -2.331 -10.767  16.642  0.00  0.00    -0.276 OA
ATOM      4  N   UNL     1      -3.705 -10.704  14.770  0.00  0.00    -0.298 N 
ATOM      5  N   UNL     1      -4.127 -10.975  11.919  0.00  0.00    -0.312 N 
ATOM      6  N   UNL     1      -4.950 -10.150   9.865  0.00  0.00    -0.240 NA
ATOM     23  C   UNL     1      -3.455 -10.682  16.143  0.00  0.00    +0.216 C 
ATOM     24  C   UNL     1      -5.043 -10.613  14.178  0.00  0.00    +0.126 C 
ATOM     25  C   UNL     1      -2.589 -10.833  13.837  0.00  0.00    +0.126 C 
ATOM     26  C   UNL     1      -5.016 -10.136  12.726  0.00  0.00    +0.125 C 
ATOM     27  C   UNL     1      -2.982 -11.607  12.581  0.00  0.00    +0.125 C 
ATOM     28  C   UNL     1      -4.340 -11.141  10.553  0.00  0.00    +0.121 A 
ATOM     29  C   UNL     1      -3.905 -12.327   9.983  0.00  0.00    +0.043 A 
ATOM     30  C   UNL     1      -4.111 -12.508   8.620  0.00  0.00    +0.005 A 
ATOM     31  C   UNL     1      -5.132 -10.361   8.542  0.00  0.00    +0.113 A 
ATOM     32  C   UNL     1      -4.735 -11.510   7.878  0.00  0.00    +0.020 A 
ENDBRANCH  16  23
ENDBRANCH  10  16
TORSDOF 6
ENDMDL
MODEL 6
REMARK VINA RESULT:      -6.3     28.555     30.861
REMARK  Name = 38029018
REMARK  9 active torsions:
REMARK  status: ('A' for Active; 'I' for Inactive)
REMARK    1  A    between atoms: N_3  and  C_14
REMARK    2  A    between atoms: C_7  and  C_11
REMARK    3  A    between atoms: C_8  and  C_14
REMARK    4  A    between atoms: C_10  and  C_16
REMARK    5  A    between atoms: C_11  and  C_19
REMARK    6  A    between atoms: C_11  and  C_20
REMARK    7  A    between atoms: C_12  and  C_22
REMARK    8  A    between atoms: C_15  and  C_21
REMARK    9  A    between atoms: C_16  and  C_23
REMARK                            x       y       z     vdW  Elec       q    Type
REMARK                         _______ _______ _______ _____ _____    ______ ____
ROOT
ATOM      7  C   UNL     1      14.274   7.937  20.909  0.00  0.00    +0.000 C 
ATOM      8  C   UNL     1      12.925   7.203  21.114  0.00  0.00    +0.032 C 
ATOM      9  C   UNL     1      14.588   8.831  22.117  0.00  0.00    +0.012 C 
ATOM     10  C   UNL     1      13.492   9.885  22.362  0.00  0.00    +0.023 C 
ATOM     12  C   UNL     1      12.105   9.277  22.312  0.00  0.00    -0.073 C 
ATOM     13  C   UNL     1      11.873   8.072  21.763  0.00  0.00    -0.022 C 
ATOM     22  C   UNL     1      10.996  10.067  22.951  0.00  0.00    +0.039 C 
ENDROOT
BRANCH   7  11
ATOM     11  C   UNL     1      15.426   6.954  20.677  0.00  0.00    -0.013 C 
ATOM     19  C   UNL     1      16.665   7.396  21.449  0.00  0.00    +0.007 C 
ATOM     20  C   UNL     1      15.731   6.832  19.188  0.00  0.00    +0.007 C 
ENDBRANCH   7  11
BRANCH   8  14
ATOM     14  C   UNL     1      12.387   6.653  19.789  0.00  0.00    +0.112 C 
BRANCH  14   3
ATOM      1  O   UNL     1      13.213   7.316  17.081  0.00  0.00    -0.276 OA
ATOM      3  N   UNL     1      11.895   7.711  18.963  0.00  0.00    -0.315 N 
ATOM     21  C   UNL     1      12.351   7.956  17.672  0.00  0.00    +0.216 C 
ATOM     33  H   UNL     1      11.135   8.282  19.321  0.00  0.00    +0.149 HD
BRANCH  21  15
ATOM     15  C   UNL     1      11.695   9.111  16.991  0.00  0.00    +0.075 C 
ATOM     17  C   UNL     1      11.993   9.371  15.543  0.00  0.00    +0.013 C 
ATOM     18  C   UNL     1      10.647   8.847  15.950  0.00  0.00    +0.013 C 
ENDBRANCH  21  15
ENDBRANCH  14   3
ENDBRANCH   8  14
BRANCH  10  16
ATOM     16  C   UNL     1      13.616  11.051  21.375  0.00  0.00    +0.103 C 
BRANCH  16  23
ATOM      2  O   UNL     1      14.651  12.515  22.932  0.00  0.00    -0.276 OA
ATOM      4  N   UNL     1      15.752  12.194  20.911  0.00  0.00    -0.298 N 
ATOM      5  N   UNL     1      18.059  12.529  19.196  0.00  0.00    -0.312 N 
ATOM      6  N   UNL     1      19.026  13.156  17.134  0.00  0.00    -0.240 NA
ATOM     23  C   UNL     1      14.714  11.986  21.820  0.00  0.00    +0.216 C 
ATOM     24  C   UNL     1      15.831  11.556  19.594  0.00  0.00    +0.126 C 
ATOM     25  C   UNL     1      16.851  13.089  21.266  0.00  0.00    +0.126 C 
ATOM     26  C   UNL     1      16.728  12.319  18.620  0.00  0.00    +0.125 C 
ATOM     27  C   UNL     1      18.174  12.639  20.653  0.00  0.00    +0.125 C 
ATOM     28  C   UNL     1      19.182  12.657  18.381  0.00  0.00    +0.121 A 
ATOM     29  C   UNL     1      20.398  12.261  18.912  0.00  0.00    +0.043 A 
ATOM     30  C   UNL     1      21.529  12.382  18.112  0.00  0.00    +0.005 A 
ATOM     31  C   UNL     1      20.147  13.259  16.385  0.00  0.00    +0.113 A 
ATOM     32  C   UNL     1      21.409  12.891  16.822  0.00  0.00    +0.020 A 
ENDBRANCH  16  23
ENDBRANCH  10  16
TORSDOF 6
ENDMDL
MODEL 7
REMARK VINA RESULT:      -6.3     27.980     30.197
REMARK  Name = 38029018
REMARK  9 active torsions:
REMARK  status: ('A' for Active; 'I' for Inactive)
REMARK    1  A    between atoms: N_3  and  C_14
REMARK    2  A    between atoms: C_7  and  C_11
REMARK    3  A    between atoms: C_8  and  C_14
REMARK    4  A    between atoms: C_10  and  C_16
REMARK    5  A    between atoms: C_11  and  C_19
REMARK    6  A    between atoms: C_11  and  C_20
REMARK    7  A    between atoms: C_12  and  C_22
REMARK    8  A    between atoms: C_15  and  C_21
REMARK    9  A    between atoms: C_16  and  C_23
REMARK                            x       y       z     vdW  Elec       q    Type
REMARK                         _______ _______ _______ _____ _____    ______ ____
ROOT
ATOM      7  C   UNL     1      12.680   9.619  20.982  0.00  0.00    +0.000 C 
ATOM      8  C   UNL     1      11.820   8.448  20.444  0.00  0.00    +0.032 C 
ATOM      9  C   UNL     1      12.605  10.820  20.028  0.00  0.00    +0.012 C 
ATOM     10  C   UNL     1      13.093  10.469  18.610  0.00  0.00    +0.023 C 
ATOM     12  C   UNL     1      12.489   9.172  18.112  0.00  0.00    -0.073 C 
ATOM     13  C   UNL     1      11.912   8.287  18.945  0.00  0.00    -0.022 C 
ATOM     22  C   UNL     1      12.521   8.935  16.627  0.00  0.00    +0.039 C 
ENDROOT
BRANCH   7  11
ATOM     11  C   UNL     1      12.244  10.045  22.388  0.00  0.00    -0.013 C 
ATOM     19  C   UNL     1      10.740   9.853  22.559  0.00  0.00    +0.007 C 
ATOM     20  C   UNL     1      12.638  11.495  22.650  0.00  0.00    +0.007 C 
ENDBRANCH   7  11
BRANCH   8  14
ATOM     14  C   UNL     1      12.198   7.126  21.123  0.00  0.00    +0.112 C 
BRANCH  14   3
ATOM      1  O   UNL     1      14.851   7.549  22.235  0.00  0.00    -0.276 OA
ATOM      3  N   UNL     1      13.442   6.635  20.619  0.00  0.00    -0.315 N 
ATOM     21  C   UNL     1      14.671   6.887  21.220  0.00  0.00    +0.216 C 
ATOM     33  H   UNL     1      13.420   6.025  19.807  0.00  0.00    +0.149 HD
BRANCH  21  15
ATOM     15  C   UNL     1      15.840   6.273  20.524  0.00  0.00    +0.075 C 
ATOM     17  C   UNL     1      15.968   6.427  19.037  0.00  0.00    +0.013 C 
ATOM     18  C   UNL     1      16.901   7.166  19.951  0.00  0.00    +0.013 C 
ENDBRANCH  21  15
ENDBRANCH  14   3
ENDBRANCH   8  14
BRANCH  10  16
ATOM     16  C   UNL     1      14.624  10.420  18.547  0.00  0.00    +0.103 C 
BRANCH  16  23
ATOM      2  O   UNL     1      15.289  12.657  18.989  0.00  0.00    -0.276 OA
ATOM      4  N   UNL     1      15.490  11.923  16.794  0.00  0.00    -0.298 N 
ATOM      5  N   UNL     1      16.399  12.284  14.069  0.00  0.00    -0.312 N 
ATOM      6  N   UNL     1      15.999  12.285  11.741  0.00  0.00    -0.240 NA
ATOM     23  C   UNL     1      15.164  11.770  18.141  0.00  0.00    +0.216 C 
ATOM     24  C   UNL     1      15.351  10.865  15.789  0.00  0.00    +0.126 C 
ATOM     25  C   UNL     1      16.015  13.202  16.321  0.00  0.00    +0.126 C 
ATOM     26  C   UNL     1      15.261  11.410  14.364  0.00  0.00    +0.125 C 
ATOM     27  C   UNL     1      17.011  13.023  15.178  0.00  0.00    +0.125 C 
ATOM     28  C   UNL     1      16.868  12.438  12.767  0.00  0.00    +0.121 A 
ATOM     29  C   UNL     1      18.209  12.744  12.608  0.00  0.00    +0.043 A 
ATOM     30  C   UNL     1      18.693  12.901  11.314  0.00  0.00    +0.005 A 
ATOM     31  C   UNL     1      16.505  12.445  10.498  0.00  0.00    +0.113 A 
ATOM     32  C   UNL     1      17.830  12.751  10.232  0.00  0.00    +0.020 A 
ENDBRANCH  16  23
ENDBRANCH  10  16
TORSDOF 6
ENDMDL
MODEL 8
REMARK VINA RESULT:      -6.2     28.325     30.835
REMARK  Name = 38029018
REMARK  9 active torsions:
REMARK  status: ('A' for Active; 'I' for Inactive)
REMARK    1  A    between atoms: N_3  and  C_14
REMARK    2  A    between atoms: C_7  and  C_11
REMARK    3  A    between atoms: C_8  and  C_14
REMARK    4  A    between atoms: C_10  and  C_16
REMARK    5  A    between atoms: C_11  and  C_19
REMARK    6  A    between atoms: C_11  and  C_20
REMARK    7  A    between atoms: C_12  and  C_22
REMARK    8  A    between atoms: C_15  and  C_21
REMARK    9  A    between atoms: C_16  and  C_23
REMARK                            x       y       z     vdW  Elec       q    Type
REMARK                         _______ _______ _______ _____ _____    ______ ____
ROOT
ATOM      7  C   UNL     1      14.182  10.021  18.220  0.00  0.00    +0.000 C 
ATOM      8  C   UNL     1      12.856  10.178  19.007  0.00  0.00    +0.032 C 
ATOM      9  C   UNL     1      14.417   8.548  17.854  0.00  0.00    +0.012 C 
ATOM     10  C   UNL     1      14.478   7.643  19.098  0.00  0.00    +0.023 C 
ATOM     12  C   UNL     1      13.343   7.928  20.060  0.00  0.00    -0.073 C 
ATOM     13  C   UNL     1      12.620   9.061  19.994  0.00  0.00    -0.022 C 
ATOM     22  C   UNL     1      13.025   6.860  21.070  0.00  0.00    +0.039 C 
ENDROOT
BRANCH   7  11
ATOM     11  C   UNL     1      14.194  10.879  16.950  0.00  0.00    -0.013 C 
ATOM     19  C   UNL     1      14.219   9.992  15.710  0.00  0.00    +0.007 C 
ATOM     20  C   UNL     1      15.387  11.829  16.961  0.00  0.00    +0.007 C 
ENDBRANCH   7  11
BRANCH   8  14
ATOM     14  C   UNL     1      12.803  11.525  19.737  0.00  0.00    +0.112 C 
BRANCH  14   3
ATOM      1  O   UNL     1      12.321  13.598  21.718  0.00  0.00    -0.276 OA
ATOM      3  N   UNL     1      12.040  11.419  20.942  0.00  0.00    -0.315 N 
ATOM     21  C   UNL     1      11.861  12.469  21.836  0.00  0.00    +0.216 C 
ATOM     33  H   UNL     1      11.561  10.542  21.127  0.00  0.00    +0.149 HD
BRANCH  21  15
ATOM     15  C   UNL     1      11.026  12.134  23.027  0.00  0.00    +0.075 C 
ATOM     17  C   UNL     1      10.918  10.702  23.464  0.00  0.00    +0.013 C 
ATOM     18  C   UNL     1      11.701  11.682  24.288  0.00  0.00    +0.013 C 
ENDBRANCH  21  15
ENDBRANCH  14   3
ENDBRANCH   8  14
BRANCH  10  16
ATOM     16  C   UNL     1      15.835   7.761  19.802  0.00  0.00    +0.103 C 
BRANCH  16  23
ATOM      2  O   UNL     1      16.369   5.827  18.531  0.00  0.00    -0.276 OA
ATOM      4  N   UNL     1      17.838   6.389  20.241  0.00  0.00    -0.298 N 
ATOM      5  N   UNL     1      20.337   6.039  21.659  0.00  0.00    -0.312 N 
ATOM      6  N   UNL     1      21.549   5.724  23.661  0.00  0.00    -0.240 NA
ATOM     23  C   UNL     1      16.697   6.571  19.459  0.00  0.00    +0.216 C 
ATOM     24  C   UNL     1      18.232   7.279  21.337  0.00  0.00    +0.126 C 
ATOM     25  C   UNL     1      18.721   5.256  19.974  0.00  0.00    +0.126 C 
ATOM     26  C   UNL     1      19.169   6.604  22.338  0.00  0.00    +0.125 C 
ATOM     27  C   UNL     1      20.181   5.589  20.272  0.00  0.00    +0.125 C 
ATOM     28  C   UNL     1      21.555   5.897  22.320  0.00  0.00    +0.121 A 
ATOM     29  C   UNL     1      22.704   5.943  21.548  0.00  0.00    +0.043 A 
ATOM     30  C   UNL     1      23.928   5.804  22.194  0.00  0.00    +0.005 A 
ATOM     31  C   UNL     1      22.758   5.592  24.254  0.00  0.00    +0.113 A 
ATOM     32  C   UNL     1      23.963   5.624  23.573  0.00  0.00    +0.020 A 
ENDBRANCH  16  23
ENDBRANCH  10  16
TORSDOF 6
ENDMDL
MODEL 9
REMARK VINA RESULT:      -6.2     26.186     29.276
REMARK  Name = 38029018
REMARK  9 active torsions:
REMARK  status: ('A' for Active; 'I' for Inactive)
REMARK    1  A    between atoms: N_3  and  C_14
REMARK    2  A    between atoms: C_7  and  C_11
REMARK    3  A    between atoms: C_8  and  C_14
REMARK    4  A    between atoms: C_10  and  C_16
REMARK    5  A    between atoms: C_11  and  C_19
REMARK    6  A    between atoms: C_11  and  C_20
REMARK    7  A    between atoms: C_12  and  C_22
REMARK    8  A    between atoms: C_15  and  C_21
REMARK    9  A    between atoms: C_16  and  C_23
REMARK                            x       y       z     vdW  Elec       q    Type
REMARK                         _______ _______ _______ _____ _____    ______ ____
ROOT
ATOM      7  C   UNL     1       9.707   8.758   5.204  0.00  0.00    +0.000 C 
ATOM      8  C   UNL     1       9.079   7.599   4.389  0.00  0.00    +0.032 C 
ATOM      9  C   UNL     1      10.897   9.364   4.447  0.00  0.00    +0.012 C 
ATOM     10  C   UNL     1      11.994   8.322   4.157  0.00  0.00    +0.023 C 
ATOM     12  C   UNL     1      11.417   7.038   3.595  0.00  0.00    -0.073 C 
ATOM     13  C   UNL     1      10.110   6.739   3.696  0.00  0.00    -0.022 C 
ATOM     22  C   UNL     1      12.370   6.126   2.873  0.00  0.00    +0.039 C 
ENDROOT
BRANCH   7  11
ATOM     11  C   UNL     1       8.681   9.852   5.519  0.00  0.00    -0.013 C 
ATOM     19  C   UNL     1       8.488  10.762   4.310  0.00  0.00    +0.007 C 
ATOM     20  C   UNL     1       9.119  10.657   6.738  0.00  0.00    +0.007 C 
ENDBRANCH   7  11
BRANCH   8  14
ATOM     14  C   UNL     1       8.189   6.719   5.273  0.00  0.00    +0.112 C 
BRANCH  14   3
ATOM      1  O   UNL     1       8.421   7.303   8.112  0.00  0.00    -0.276 OA
ATOM      3  N   UNL     1       8.972   6.021   6.245  0.00  0.00    -0.315 N 
ATOM     21  C   UNL     1       9.022   6.372   7.590  0.00  0.00    +0.216 C 
ATOM     33  H   UNL     1       9.477   5.192   5.945  0.00  0.00    +0.149 HD
BRANCH  21  15
ATOM     15  C   UNL     1       9.903   5.503   8.425  0.00  0.00    +0.075 C 
ATOM     17  C   UNL     1       9.361   4.925   9.699  0.00  0.00    +0.013 C 
ATOM     18  C   UNL     1       9.605   4.035   8.516  0.00  0.00    +0.013 C 
ENDBRANCH  21  15
ENDBRANCH  14   3
ENDBRANCH   8  14
BRANCH  10  16
ATOM     16  C   UNL     1      12.837   8.043   5.407  0.00  0.00    +0.103 C 
BRANCH  16  23
ATOM      2  O   UNL     1      13.437  10.248   6.053  0.00  0.00    -0.276 OA
ATOM      4  N   UNL     1      15.154   8.880   5.292  0.00  0.00    -0.298 N 
ATOM      5  N   UNL     1      17.963   8.339   4.851  0.00  0.00    -0.312 N 
ATOM      6  N   UNL     1      19.745   7.680   3.447  0.00  0.00    -0.240 NA
ATOM     23  C   UNL     1      13.827   9.162   5.618  0.00  0.00    +0.216 C 
ATOM     24  C   UNL     1      15.618   7.586   4.784  0.00  0.00    +0.126 C 
ATOM     25  C   UNL     1      16.172   9.914   5.463  0.00  0.00    +0.126 C 
ATOM     26  C   UNL     1      16.942   7.688   4.027  0.00  0.00    +0.125 C 
ATOM     27  C   UNL     1      17.527   9.322   5.847  0.00  0.00    +0.125 C 
ATOM     28  C   UNL     1      19.316   8.060   4.672  0.00  0.00    +0.121 A 
ATOM     29  C   UNL     1      20.142   8.194   5.776  0.00  0.00    +0.043 A 
ATOM     30  C   UNL     1      21.496   7.920   5.614  0.00  0.00    +0.005 A 
ATOM     31  C   UNL     1      21.066   7.421   3.328  0.00  0.00    +0.113 A 
ATOM     32  C   UNL     1      21.975   7.526   4.368  0.00  0.00    +0.020 A 
ENDBRANCH  16  23
ENDBRANCH  10  16
TORSDOF 6
ENDMDL
MODEL 10
REMARK VINA RESULT:      -6.2     28.702     31.504
REMARK  Name = 38029018
REMARK  9 active torsions:
REMARK  status: ('A' for Active; 'I' for Inactive)
REMARK    1  A    between atoms: N_3  and  C_14
REMARK    2  A    between atoms: C_7  and  C_11
REMARK    3  A    between atoms: C_8  and  C_14
REMARK    4  A    between atoms: C_10  and  C_16
REMARK    5  A    between atoms: C_11  and  C_19
REMARK    6  A    between atoms: C_11  and  C_20
REMARK    7  A    between atoms: C_12  and  C_22
REMARK    8  A    between atoms: C_15  and  C_21
REMARK    9  A    between atoms: C_16  and  C_23
REMARK                            x       y       z     vdW  Elec       q    Type
REMARK                         _______ _______ _______ _____ _____    ______ ____
ROOT
ATOM      7  C   UNL     1      14.788   8.232  20.192  0.00  0.00    +0.000 C 
ATOM      8  C   UNL     1      13.997   7.130  19.443  0.00  0.00    +0.032 C 
ATOM      9  C   UNL     1      14.344   8.307  21.660  0.00  0.00    +0.012 C 
ATOM     10  C   UNL     1      12.840   8.608  21.798  0.00  0.00    +0.023 C 
ATOM     12  C   UNL     1      12.005   7.737  20.882  0.00  0.00    -0.073 C 
ATOM     13  C   UNL     1      12.542   7.073  19.843  0.00  0.00    -0.022 C 
ATOM     22  C   UNL     1      10.544   7.608  21.215  0.00  0.00    +0.039 C 
ENDROOT
BRANCH   7  11
ATOM     11  C   UNL     1      16.300   7.994  20.119  0.00  0.00    -0.013 C 
ATOM     19  C   UNL     1      16.639   6.579  20.577  0.00  0.00    +0.007 C 
ATOM     20  C   UNL     1      17.042   9.028  20.960  0.00  0.00    +0.007 C 
ENDBRANCH   7  11
BRANCH   8  14
ATOM     14  C   UNL     1      14.103   7.308  17.924  0.00  0.00    +0.112 C 
BRANCH  14   3
ATOM      1  O   UNL     1      13.697   8.455  15.283  0.00  0.00    -0.276 OA
ATOM      3  N   UNL     1      14.063   8.694  17.572  0.00  0.00    -0.315 N 
ATOM     21  C   UNL     1      13.862   9.154  16.275  0.00  0.00    +0.216 C 
ATOM     33  H   UNL     1      14.134   9.378  18.320  0.00  0.00    +0.149 HD
BRANCH  21  15
ATOM     15  C   UNL     1      13.855  10.640  16.139  0.00  0.00    +0.075 C 
ATOM     17  C   UNL     1      14.555  11.472  17.173  0.00  0.00    +0.013 C 
ATOM     18  C   UNL     1      15.133  11.348  15.795  0.00  0.00    +0.013 C 
ENDBRANCH  21  15
ENDBRANCH  14   3
ENDBRANCH   8  14
BRANCH  10  16
ATOM     16  C   UNL     1      12.548  10.094  21.557  0.00  0.00    +0.103 C 
BRANCH  16  23
ATOM      2  O   UNL     1      10.832  10.494  23.149  0.00  0.00    -0.276 OA
ATOM      4  N   UNL     1      12.873  11.537  23.531  0.00  0.00    -0.298 N 
ATOM      5  N   UNL     1      14.664  13.076  25.205  0.00  0.00    -0.312 N 
ATOM      6  N   UNL     1      16.141  14.891  25.528  0.00  0.00    -0.240 NA
ATOM     23  C   UNL     1      11.998  10.720  22.815  0.00  0.00    +0.216 C 
ATOM     24  C   UNL     1      14.261  11.796  23.138  0.00  0.00    +0.126 C 
ATOM     25  C   UNL     1      12.414  12.184  24.758  0.00  0.00    +0.126 C 
ATOM     26  C   UNL     1      14.818  13.082  23.748  0.00  0.00    +0.125 C 
ATOM     27  C   UNL     1      13.539  12.334  25.779  0.00  0.00    +0.125 C 
ATOM     28  C   UNL     1      15.541  13.785  26.023  0.00  0.00    +0.121 A 
ATOM     29  C   UNL     1      15.741  13.302  27.306  0.00  0.00    +0.043 A 
ATOM     30  C   UNL     1      16.614  13.998  28.135  0.00  0.00    +0.005 A 
ATOM     31  C   UNL     1      16.982  15.542  26.363  0.00  0.00    +0.113 A 
ATOM     32  C   UNL     1      17.249  15.141  27.662  0.00  0.00    +0.020 A 
ENDBRANCH  16  23
ENDBRANCH  10  16
TORSDOF 6
ENDMDL
