MODEL 1
REMARK VINA RESULT:      -7.9      0.000      0.000
REMARK  Name = 11911795
REMARK  9 active torsions:
REMARK  status: ('A' for Active; 'I' for Inactive)
REMARK    1  A    between atoms: O_3  and  C_14
REMARK    2  A    between atoms: O_3  and  C_18
REMARK    3  A    between atoms: N_5  and  C_13
REMARK    4  A    between atoms: N_8  and  C_22
REMARK    5  A    between atoms: N_9  and  C_28
REMARK    6  A    between atoms: N_9  and  C_34
REMARK    7  A    between atoms: N_9  and  C_35
REMARK    8  A    between atoms: C_19  and  C_23
REMARK    9  A    between atoms: C_31  and  C_36
REMARK                            x       y       z     vdW  Elec       q    Type
REMARK                         _______ _______ _______ _____ _____    ______ ____
ROOT
ATOM      1  O   UNL     1     -11.451  -8.909  17.449  0.00  0.00    -0.368 OA
ATOM      2  O   UNL     1      -9.336  -8.514  15.263  0.00  0.00    -0.368 OA
ATOM     11  C   UNL     1      -9.226  -8.581  16.700  0.00  0.00    +0.173 C 
ATOM     12  C   UNL     1     -10.452  -7.894  17.267  0.00  0.00    +0.192 C 
ATOM     13  C   UNL     1      -9.362 -10.012  17.163  0.00  0.00    +0.130 C 
ATOM     14  C   UNL     1     -10.827  -6.932  16.164  0.00  0.00    +0.235 C 
ATOM     15  C   UNL     1     -10.869 -10.199  17.200  0.00  0.00    +0.185 C 
ATOM     16  C   UNL     1     -10.483  -7.722  14.922  0.00  0.00    +0.207 C 
ENDROOT
BRANCH  13   5
ATOM      5  N   UNL     1      -8.804 -10.167  18.490  0.00  0.00    -0.306 N 
ATOM      6  N   UNL     1      -6.723 -10.857  17.654  0.00  0.00    -0.214 NA
ATOM      7  N   UNL     1      -7.109 -10.683  20.027  0.00  0.00    -0.223 NA
ATOM     17  C   UNL     1      -7.507 -10.581  18.731  0.00  0.00    +0.216 A 
ATOM     19  C   UNL     1      -5.464 -11.260  17.926  0.00  0.00    +0.076 A 
ATOM     20  C   UNL     1      -5.838 -11.090  20.226  0.00  0.00    +0.116 A 
ATOM     21  C   UNL     1      -4.962 -11.395  19.204  0.00  0.00    +0.048 A 
ATOM     37  H   UNL     1      -9.363  -9.913  19.296  0.00  0.00    +0.149 HD
BRANCH  19  23
ATOM     23  C   UNL     1      -4.650 -11.547  16.769  0.00  0.00    +0.001 A 
ATOM     26  C   UNL     1      -3.669 -10.640  16.362  0.00  0.00    +0.012 A 
ATOM     27  C   UNL     1      -4.838 -12.732  16.056  0.00  0.00    +0.012 A 
ATOM     28  C   UNL     1      -3.071 -12.102  14.533  0.00  0.00    +0.029 A 
ATOM     29  C   UNL     1      -2.881 -10.918  15.245  0.00  0.00    +0.024 A 
ATOM     30  C   UNL     1      -4.049 -13.009  14.938  0.00  0.00    +0.024 A 
BRANCH  28   9
ATOM      9  N   UNL     1      -2.274 -12.384  13.405  0.00  0.00    -0.336 N 
ATOM     34  C   UNL     1      -1.502 -13.608  13.339  0.00  0.00    +0.129 C 
ATOM     35  C   UNL     1      -2.207 -11.447  12.300  0.00  0.00    +0.129 C 
ENDBRANCH  28   9
ENDBRANCH  19  23
ENDBRANCH  13   5
BRANCH  14   3
ATOM      3  O   UNL     1     -12.183  -6.548  16.190  0.00  0.00    -0.442 OA
BRANCH   3  18
ATOM      4  O   UNL     1     -13.474  -7.183  14.412  0.00  0.00    -0.226 OA
ATOM      8  N   UNL     1     -12.506  -5.054  14.531  0.00  0.00    -0.251 N 
ATOM     18  C   UNL     1     -12.793  -6.333  14.971  0.00  0.00    +0.405 C 
ATOM     38  H   UNL     1     -11.918  -4.491  15.140  0.00  0.00    +0.158 HD
BRANCH   8  22
ATOM     22  C   UNL     1     -12.931  -4.430  13.335  0.00  0.00    +0.038 A 
ATOM     24  C   UNL     1     -12.054  -4.343  12.266  0.00  0.00    +0.042 A 
ATOM     25  C   UNL     1     -14.216  -3.918  13.257  0.00  0.00    +0.023 A 
ATOM     31  C   UNL     1     -12.473  -3.726  11.088  0.00  0.00    +0.054 A 
ATOM     32  C   UNL     1     -14.635  -3.301  12.078  0.00  0.00    +0.003 A 
ATOM     33  C   UNL     1     -13.763  -3.205  10.993  0.00  0.00    +0.019 A 
BRANCH  31  36
ATOM     10  N   UNL     1     -10.855  -3.549   9.072  0.00  0.00    -0.191 NA
ATOM     36  C   UNL     1     -11.580  -3.628   9.976  0.00  0.00    +0.099 C 
ENDBRANCH  31  36
ENDBRANCH   8  22
ENDBRANCH   3  18
ENDBRANCH  14   3
TORSDOF 7
ENDMDL
MODEL 2
REMARK VINA RESULT:      -7.7      4.632      6.819
REMARK  Name = 11911795
REMARK  9 active torsions:
REMARK  status: ('A' for Active; 'I' for Inactive)
REMARK    1  A    between atoms: O_3  and  C_14
REMARK    2  A    between atoms: O_3  and  C_18
REMARK    3  A    between atoms: N_5  and  C_13
REMARK    4  A    between atoms: N_8  and  C_22
REMARK    5  A    between atoms: N_9  and  C_28
REMARK    6  A    between atoms: N_9  and  C_34
REMARK    7  A    between atoms: N_9  and  C_35
REMARK    8  A    between atoms: C_19  and  C_23
REMARK    9  A    between atoms: C_31  and  C_36
REMARK                            x       y       z     vdW  Elec       q    Type
REMARK                         _______ _______ _______ _____ _____    ______ ____
ROOT
ATOM      1  O   UNL     1      -5.992 -12.259  19.121  0.00  0.00    -0.368 OA
ATOM      2  O   UNL     1      -7.322 -11.330  16.517  0.00  0.00    -0.368 OA
ATOM     11  C   UNL     1      -6.051 -10.997  17.115  0.00  0.00    +0.173 C 
ATOM     12  C   UNL     1      -6.272 -10.945  18.613  0.00  0.00    +0.192 C 
ATOM     13  C   UNL     1      -5.077 -12.136  16.928  0.00  0.00    +0.130 C 
ATOM     14  C   UNL     1      -7.739 -10.605  18.716  0.00  0.00    +0.235 C 
ATOM     15  C   UNL     1      -5.448 -13.069  18.067  0.00  0.00    +0.185 C 
ATOM     16  C   UNL     1      -8.324 -11.360  17.544  0.00  0.00    +0.207 C 
ENDROOT
BRANCH  13   5
ATOM      5  N   UNL     1      -3.717 -11.666  17.085  0.00  0.00    -0.306 N 
ATOM      6  N   UNL     1      -3.566 -11.012  14.837  0.00  0.00    -0.214 NA
ATOM      7  N   UNL     1      -1.708 -10.709  16.343  0.00  0.00    -0.223 NA
ATOM     17  C   UNL     1      -2.975 -11.113  16.058  0.00  0.00    +0.216 A 
ATOM     19  C   UNL     1      -2.813 -10.469  13.858  0.00  0.00    +0.076 A 
ATOM     20  C   UNL     1      -1.013 -10.174  15.318  0.00  0.00    +0.116 A 
ATOM     21  C   UNL     1      -1.518 -10.027  14.042  0.00  0.00    +0.048 A 
ATOM     37  H   UNL     1      -3.287 -11.688  18.003  0.00  0.00    +0.149 HD
BRANCH  19  23
ATOM     23  C   UNL     1      -3.459 -10.371  12.571  0.00  0.00    +0.001 A 
ATOM     26  C   UNL     1      -2.700 -10.133  11.423  0.00  0.00    +0.012 A 
ATOM     27  C   UNL     1      -4.844 -10.515  12.470  0.00  0.00    +0.012 A 
ATOM     28  C   UNL     1      -4.708 -10.183  10.081  0.00  0.00    +0.029 A 
ATOM     29  C   UNL     1      -3.324 -10.040  10.179  0.00  0.00    +0.024 A 
ATOM     30  C   UNL     1      -5.468 -10.421  11.225  0.00  0.00    +0.024 A 
BRANCH  28   9
ATOM      9  N   UNL     1      -5.341 -10.090   8.823  0.00  0.00    -0.336 N 
ATOM     34  C   UNL     1      -6.467  -9.199   8.633  0.00  0.00    +0.129 C 
ATOM     35  C   UNL     1      -4.880 -10.895   7.708  0.00  0.00    +0.129 C 
ENDBRANCH  28   9
ENDBRANCH  19  23
ENDBRANCH  13   5
BRANCH  14   3
ATOM      3  O   UNL     1      -8.322 -10.994  19.941  0.00  0.00    -0.442 OA
BRANCH   3  18
ATOM      4  O   UNL     1     -10.155 -12.346  20.154  0.00  0.00    -0.226 OA
ATOM      8  N   UNL     1     -10.358 -10.068  19.651  0.00  0.00    -0.251 N 
ATOM     18  C   UNL     1      -9.680 -11.239  19.935  0.00  0.00    +0.405 C 
ATOM     38  H   UNL     1      -9.784  -9.243  19.497  0.00  0.00    +0.158 HD
BRANCH   8  22
ATOM     22  C   UNL     1     -11.755  -9.875  19.549  0.00  0.00    +0.038 A 
ATOM     24  C   UNL     1     -12.332  -9.735  18.297  0.00  0.00    +0.042 A 
ATOM     25  C   UNL     1     -12.520  -9.830  20.704  0.00  0.00    +0.023 A 
ATOM     31  C   UNL     1     -13.710  -9.543  18.198  0.00  0.00    +0.054 A 
ATOM     32  C   UNL     1     -13.898  -9.638  20.604  0.00  0.00    +0.003 A 
ATOM     33  C   UNL     1     -14.493  -9.495  19.351  0.00  0.00    +0.019 A 
BRANCH  31  36
ATOM     10  N   UNL     1     -14.816  -9.278  15.870  0.00  0.00    -0.191 NA
ATOM     36  C   UNL     1     -14.320  -9.397  16.913  0.00  0.00    +0.099 C 
ENDBRANCH  31  36
ENDBRANCH   8  22
ENDBRANCH   3  18
ENDBRANCH  14   3
TORSDOF 7
ENDMDL
MODEL 3
REMARK VINA RESULT:      -7.5      4.540      7.383
REMARK  Name = 11911795
REMARK  9 active torsions:
REMARK  status: ('A' for Active; 'I' for Inactive)
REMARK    1  A    between atoms: O_3  and  C_14
REMARK    2  A    between atoms: O_3  and  C_18
REMARK    3  A    between atoms: N_5  and  C_13
REMARK    4  A    between atoms: N_8  and  C_22
REMARK    5  A    between atoms: N_9  and  C_28
REMARK    6  A    between atoms: N_9  and  C_34
REMARK    7  A    between atoms: N_9  and  C_35
REMARK    8  A    between atoms: C_19  and  C_23
REMARK    9  A    between atoms: C_31  and  C_36
REMARK                            x       y       z     vdW  Elec       q    Type
REMARK                         _______ _______ _______ _____ _____    ______ ____
ROOT
ATOM      1  O   UNL     1      -4.595  -8.985  10.034  0.00  0.00    -0.368 OA
ATOM      2  O   UNL     1      -5.733 -11.828  10.232  0.00  0.00    -0.368 OA
ATOM     11  C   UNL     1      -4.433 -11.292  10.558  0.00  0.00    +0.173 C 
ATOM     12  C   UNL     1      -4.119 -10.238   9.516  0.00  0.00    +0.192 C 
ATOM     13  C   UNL     1      -4.502 -10.518  11.852  0.00  0.00    +0.130 C 
ATOM     14  C   UNL     1      -4.932 -10.697   8.329  0.00  0.00    +0.235 C 
ATOM     15  C   UNL     1      -5.021  -9.166  11.394  0.00  0.00    +0.185 C 
ATOM     16  C   UNL     1      -6.172 -11.257   8.991  0.00  0.00    +0.207 C 
ENDROOT
BRANCH  13   5
ATOM      5  N   UNL     1      -3.181 -10.380  12.428  0.00  0.00    -0.306 N 
ATOM      6  N   UNL     1      -3.975 -10.719  14.609  0.00  0.00    -0.214 NA
ATOM      7  N   UNL     1      -1.633 -10.332  14.190  0.00  0.00    -0.223 NA
ATOM     17  C   UNL     1      -2.922 -10.480  13.782  0.00  0.00    +0.216 A 
ATOM     19  C   UNL     1      -3.686 -10.809  15.925  0.00  0.00    +0.076 A 
ATOM     20  C   UNL     1      -1.416 -10.435  15.518  0.00  0.00    +0.116 A 
ATOM     21  C   UNL     1      -2.414 -10.676  16.441  0.00  0.00    +0.048 A 
ATOM     37  H   UNL     1      -2.383 -10.255  11.816  0.00  0.00    +0.149 HD
BRANCH  19  23
ATOM     23  C   UNL     1      -4.818 -11.064  16.784  0.00  0.00    +0.001 A 
ATOM     26  C   UNL     1      -4.754 -12.077  17.743  0.00  0.00    +0.012 A 
ATOM     27  C   UNL     1      -5.978 -10.297  16.661  0.00  0.00    +0.012 A 
ATOM     28  C   UNL     1      -7.005 -11.555  18.449  0.00  0.00    +0.029 A 
ATOM     29  C   UNL     1      -5.847 -12.321  18.575  0.00  0.00    +0.024 A 
ATOM     30  C   UNL     1      -7.071 -10.543  17.492  0.00  0.00    +0.024 A 
BRANCH  28   9
ATOM      9  N   UNL     1      -8.111 -11.801  19.290  0.00  0.00    -0.336 N 
ATOM     34  C   UNL     1      -8.189 -13.027  20.059  0.00  0.00    +0.129 C 
ATOM     35  C   UNL     1      -9.189 -10.837  19.386  0.00  0.00    +0.129 C 
ENDBRANCH  28   9
ENDBRANCH  19  23
ENDBRANCH  13   5
BRANCH  14   3
ATOM      3  O   UNL     1      -5.237  -9.662   7.421  0.00  0.00    -0.442 OA
BRANCH   3  18
ATOM      4  O   UNL     1      -7.368  -9.787   6.600  0.00  0.00    -0.226 OA
ATOM      8  N   UNL     1      -6.770  -8.223   8.236  0.00  0.00    -0.251 N 
ATOM     18  C   UNL     1      -6.555  -9.263   7.351  0.00  0.00    +0.405 C 
ATOM     38  H   UNL     1      -5.965  -7.922   8.779  0.00  0.00    +0.158 HD
BRANCH   8  22
ATOM     22  C   UNL     1      -7.974  -7.523   8.481  0.00  0.00    +0.038 A 
ATOM     24  C   UNL     1      -9.008  -8.162   9.147  0.00  0.00    +0.042 A 
ATOM     25  C   UNL     1      -8.097  -6.212   8.049  0.00  0.00    +0.023 A 
ATOM     31  C   UNL     1     -10.195  -7.472   9.388  0.00  0.00    +0.054 A 
ATOM     32  C   UNL     1      -9.286  -5.522   8.289  0.00  0.00    +0.003 A 
ATOM     33  C   UNL     1     -10.335  -6.152   8.959  0.00  0.00    +0.019 A 
BRANCH  31  36
ATOM     10  N   UNL     1     -12.144  -8.641  10.632  0.00  0.00    -0.191 NA
ATOM     36  C   UNL     1     -11.271  -8.117  10.074  0.00  0.00    +0.099 C 
ENDBRANCH  31  36
ENDBRANCH   8  22
ENDBRANCH   3  18
ENDBRANCH  14   3
TORSDOF 7
ENDMDL
MODEL 4
REMARK VINA RESULT:      -7.3     29.765     32.678
REMARK  Name = 11911795
REMARK  9 active torsions:
REMARK  status: ('A' for Active; 'I' for Inactive)
REMARK    1  A    between atoms: O_3  and  C_14
REMARK    2  A    between atoms: O_3  and  C_18
REMARK    3  A    between atoms: N_5  and  C_13
REMARK    4  A    between atoms: N_8  and  C_22
REMARK    5  A    between atoms: N_9  and  C_28
REMARK    6  A    between atoms: N_9  and  C_34
REMARK    7  A    between atoms: N_9  and  C_35
REMARK    8  A    between atoms: C_19  and  C_23
REMARK    9  A    between atoms: C_31  and  C_36
REMARK                            x       y       z     vdW  Elec       q    Type
REMARK                         _______ _______ _______ _____ _____    ______ ____
ROOT
ATOM      1  O   UNL     1      21.043   7.670  20.469  0.00  0.00    -0.368 OA
ATOM      2  O   UNL     1      20.788   6.004  23.032  0.00  0.00    -0.368 OA
ATOM     11  C   UNL     1      21.386   5.707  21.752  0.00  0.00    +0.173 C 
ATOM     12  C   UNL     1      20.511   6.355  20.698  0.00  0.00    +0.192 C 
ATOM     13  C   UNL     1      22.709   6.422  21.621  0.00  0.00    +0.130 C 
ATOM     14  C   UNL     1      19.164   6.407  21.378  0.00  0.00    +0.235 C 
ATOM     15  C   UNL     1      22.284   7.811  21.178  0.00  0.00    +0.185 C 
ATOM     16  C   UNL     1      19.543   6.682  22.816  0.00  0.00    +0.207 C 
ENDROOT
BRANCH  13   5
ATOM      5  N   UNL     1      23.521   5.796  20.599  0.00  0.00    -0.306 N 
ATOM      6  N   UNL     1      23.719   3.803  21.822  0.00  0.00    -0.214 NA
ATOM      7  N   UNL     1      24.764   4.040  19.663  0.00  0.00    -0.223 NA
ATOM     17  C   UNL     1      24.015   4.508  20.697  0.00  0.00    +0.216 A 
ATOM     19  C   UNL     1      24.219   2.552  21.885  0.00  0.00    +0.076 A 
ATOM     20  C   UNL     1      25.231   2.781  19.792  0.00  0.00    +0.116 A 
ATOM     21  C   UNL     1      24.988   1.982  20.891  0.00  0.00    +0.048 A 
ATOM     37  H   UNL     1      23.703   6.293  19.735  0.00  0.00    +0.149 HD
BRANCH  19  23
ATOM     23  C   UNL     1      23.891   1.821  23.086  0.00  0.00    +0.001 A 
ATOM     26  C   UNL     1      22.809   2.219  23.874  0.00  0.00    +0.012 A 
ATOM     27  C   UNL     1      24.653   0.714  23.463  0.00  0.00    +0.012 A 
ATOM     28  C   UNL     1      23.255   0.407  25.409  0.00  0.00    +0.029 A 
ATOM     29  C   UNL     1      22.491   1.512  25.034  0.00  0.00    +0.024 A 
ATOM     30  C   UNL     1      24.335   0.007  24.624  0.00  0.00    +0.024 A 
BRANCH  28   9
ATOM      9  N   UNL     1      22.934  -0.310  26.580  0.00  0.00    -0.336 N 
ATOM     34  C   UNL     1      23.076  -1.751  26.622  0.00  0.00    +0.129 C 
ATOM     35  C   UNL     1      22.444   0.385  27.755  0.00  0.00    +0.129 C 
ENDBRANCH  28   9
ENDBRANCH  19  23
ENDBRANCH  13   5
BRANCH  14   3
ATOM      3  O   UNL     1      18.309   7.400  20.856  0.00  0.00    -0.442 OA
BRANCH   3  18
ATOM      4  O   UNL     1      17.445   6.065  19.211  0.00  0.00    -0.226 OA
ATOM      8  N   UNL     1      16.159   7.721  20.252  0.00  0.00    -0.251 N 
ATOM     18  C   UNL     1      17.298   6.974  20.019  0.00  0.00    +0.405 C 
ATOM     38  H   UNL     1      16.232   8.438  20.970  0.00  0.00    +0.158 HD
BRANCH   8  22
ATOM     22  C   UNL     1      14.901   7.613  19.616  0.00  0.00    +0.038 A 
ATOM     24  C   UNL     1      14.730   8.156  18.352  0.00  0.00    +0.042 A 
ATOM     25  C   UNL     1      13.864   6.966  20.269  0.00  0.00    +0.023 A 
ATOM     31  C   UNL     1      13.489   8.049  17.726  0.00  0.00    +0.054 A 
ATOM     32  C   UNL     1      12.622   6.860  19.642  0.00  0.00    +0.003 A 
ATOM     33  C   UNL     1      12.435   7.401  18.370  0.00  0.00    +0.019 A 
BRANCH  31  36
ATOM     10  N   UNL     1      13.140   9.054  15.363  0.00  0.00    -0.191 NA
ATOM     36  C   UNL     1      13.296   8.603  16.422  0.00  0.00    +0.099 C 
ENDBRANCH  31  36
ENDBRANCH   8  22
ENDBRANCH   3  18
ENDBRANCH  14   3
TORSDOF 7
ENDMDL
MODEL 5
REMARK VINA RESULT:      -7.2     26.443     28.639
REMARK  Name = 11911795
REMARK  9 active torsions:
REMARK  status: ('A' for Active; 'I' for Inactive)
REMARK    1  A    between atoms: O_3  and  C_14
REMARK    2  A    between atoms: O_3  and  C_18
REMARK    3  A    between atoms: N_5  and  C_13
REMARK    4  A    between atoms: N_8  and  C_22
REMARK    5  A    between atoms: N_9  and  C_28
REMARK    6  A    between atoms: N_9  and  C_34
REMARK    7  A    between atoms: N_9  and  C_35
REMARK    8  A    between atoms: C_19  and  C_23
REMARK    9  A    between atoms: C_31  and  C_36
REMARK                            x       y       z     vdW  Elec       q    Type
REMARK                         _______ _______ _______ _____ _____    ______ ____
ROOT
ATOM      1  O   UNL     1      11.300  13.624  10.076  0.00  0.00    -0.368 OA
ATOM      2  O   UNL     1      10.242  11.789  12.296  0.00  0.00    -0.368 OA
ATOM     11  C   UNL     1      11.574  12.000  11.782  0.00  0.00    +0.173 C 
ATOM     12  C   UNL     1      11.438  12.209  10.287  0.00  0.00    +0.192 C 
ATOM     13  C   UNL     1      12.122  13.313  12.287  0.00  0.00    +0.130 C 
ATOM     14  C   UNL     1      10.163  11.468   9.967  0.00  0.00    +0.235 C 
ATOM     15  C   UNL     1      11.515  14.312  11.319  0.00  0.00    +0.185 C 
ATOM     16  C   UNL     1       9.323  11.733  11.196  0.00  0.00    +0.207 C 
ENDROOT
BRANCH  13   5
ATOM      5  N   UNL     1      13.566  13.327  12.185  0.00  0.00    -0.306 N 
ATOM      6  N   UNL     1      13.821  11.885  14.018  0.00  0.00    -0.214 NA
ATOM      7  N   UNL     1      15.740  12.725  12.826  0.00  0.00    -0.223 NA
ATOM     17  C   UNL     1      14.400  12.625  13.035  0.00  0.00    +0.216 A 
ATOM     19  C   UNL     1      14.665  11.214  14.830  0.00  0.00    +0.076 A 
ATOM     20  C   UNL     1      16.525  12.027  13.674  0.00  0.00    +0.116 A 
ATOM     21  C   UNL     1      16.039  11.247  14.703  0.00  0.00    +0.048 A 
ATOM     37  H   UNL     1      14.005  13.833  11.425  0.00  0.00    +0.149 HD
BRANCH  19  23
ATOM     23  C   UNL     1      14.029  10.435  15.865  0.00  0.00    +0.001 A 
ATOM     26  C   UNL     1      14.659  10.264  17.099  0.00  0.00    +0.012 A 
ATOM     27  C   UNL     1      12.782   9.851  15.637  0.00  0.00    +0.012 A 
ATOM     28  C   UNL     1      12.798   8.929  17.870  0.00  0.00    +0.029 A 
ATOM     29  C   UNL     1      14.044   9.512  18.101  0.00  0.00    +0.024 A 
ATOM     30  C   UNL     1      12.167   9.099  16.638  0.00  0.00    +0.024 A 
BRANCH  28   9
ATOM      9  N   UNL     1      12.175   8.170  18.882  0.00  0.00    -0.336 N 
ATOM     34  C   UNL     1      10.963   8.648  19.516  0.00  0.00    +0.129 C 
ATOM     35  C   UNL     1      12.745   6.907  19.309  0.00  0.00    +0.129 C 
ENDBRANCH  28   9
ENDBRANCH  19  23
ENDBRANCH  13   5
BRANCH  14   3
ATOM      3  O   UNL     1       9.533  11.916   8.787  0.00  0.00    -0.442 OA
BRANCH   3  18
ATOM      4  O   UNL     1       9.583  11.346   6.573  0.00  0.00    -0.226 OA
ATOM      8  N   UNL     1       9.203   9.752   8.245  0.00  0.00    -0.251 N 
ATOM     18  C   UNL     1       9.450  11.016   7.745  0.00  0.00    +0.405 C 
ATOM     38  H   UNL     1       9.124   9.677   9.256  0.00  0.00    +0.158 HD
BRANCH   8  22
ATOM     22  C   UNL     1       9.048   8.546   7.523  0.00  0.00    +0.038 A 
ATOM     24  C   UNL     1       9.444   7.351   8.104  0.00  0.00    +0.042 A 
ATOM     25  C   UNL     1       8.502   8.582   6.250  0.00  0.00    +0.023 A 
ATOM     31  C   UNL     1       9.291   6.162   7.391  0.00  0.00    +0.054 A 
ATOM     32  C   UNL     1       8.350   7.392   5.537  0.00  0.00    +0.003 A 
ATOM     33  C   UNL     1       8.745   6.182   6.108  0.00  0.00    +0.019 A 
BRANCH  31  36
ATOM     10  N   UNL     1      10.024   3.914   8.451  0.00  0.00    -0.191 NA
ATOM     36  C   UNL     1       9.695   4.922   7.976  0.00  0.00    +0.099 C 
ENDBRANCH  31  36
ENDBRANCH   8  22
ENDBRANCH   3  18
ENDBRANCH  14   3
TORSDOF 7
ENDMDL
MODEL 6
REMARK VINA RESULT:      -7.2      6.342     10.544
REMARK  Name = 11911795
REMARK  9 active torsions:
REMARK  status: ('A' for Active; 'I' for Inactive)
REMARK    1  A    between atoms: O_3  and  C_14
REMARK    2  A    between atoms: O_3  and  C_18
REMARK    3  A    between atoms: N_5  and  C_13
REMARK    4  A    between atoms: N_8  and  C_22
REMARK    5  A    between atoms: N_9  and  C_28
REMARK    6  A    between atoms: N_9  and  C_34
REMARK    7  A    between atoms: N_9  and  C_35
REMARK    8  A    between atoms: C_19  and  C_23
REMARK    9  A    between atoms: C_31  and  C_36
REMARK                            x       y       z     vdW  Elec       q    Type
REMARK                         _______ _______ _______ _____ _____    ______ ____
ROOT
ATOM      1  O   UNL     1      -3.801  -9.858   9.793  0.00  0.00    -0.368 OA
ATOM      2  O   UNL     1      -5.769 -11.850  11.047  0.00  0.00    -0.368 OA
ATOM     11  C   UNL     1      -4.370 -11.598  11.299  0.00  0.00    +0.173 C 
ATOM     12  C   UNL     1      -3.733 -11.284   9.961  0.00  0.00    +0.192 C 
ATOM     13  C   UNL     1      -4.209 -10.323  12.091  0.00  0.00    +0.130 C 
ATOM     14  C   UNL     1      -4.637 -12.005   8.990  0.00  0.00    +0.235 C 
ATOM     15  C   UNL     1      -4.276  -9.259  11.009  0.00  0.00    +0.185 C 
ATOM     16  C   UNL     1      -5.996 -11.831   9.630  0.00  0.00    +0.207 C 
ENDROOT
BRANCH  13   5
ATOM      5  N   UNL     1      -2.916 -10.296  12.742  0.00  0.00    -0.306 N 
ATOM      6  N   UNL     1      -3.847 -10.724  14.853  0.00  0.00    -0.214 NA
ATOM      7  N   UNL     1      -1.469 -10.444  14.582  0.00  0.00    -0.223 NA
ATOM     17  C   UNL     1      -2.739 -10.494  14.099  0.00  0.00    +0.216 A 
ATOM     19  C   UNL     1      -3.638 -10.911  16.173  0.00  0.00    +0.076 A 
ATOM     20  C   UNL     1      -1.332 -10.641  15.910  0.00  0.00    +0.116 A 
ATOM     21  C   UNL     1      -2.391 -10.882  16.763  0.00  0.00    +0.048 A 
ATOM     37  H   UNL     1      -2.080 -10.177  12.182  0.00  0.00    +0.149 HD
BRANCH  19  23
ATOM     23  C   UNL     1      -4.827 -11.155  16.953  0.00  0.00    +0.001 A 
ATOM     26  C   UNL     1      -4.757 -11.174  18.348  0.00  0.00    +0.012 A 
ATOM     27  C   UNL     1      -6.051 -11.370  16.317  0.00  0.00    +0.012 A 
ATOM     28  C   UNL     1      -7.129 -11.623  18.464  0.00  0.00    +0.029 A 
ATOM     29  C   UNL     1      -5.907 -11.407  19.102  0.00  0.00    +0.024 A 
ATOM     30  C   UNL     1      -7.201 -11.604  17.072  0.00  0.00    +0.024 A 
BRANCH  28   9
ATOM      9  N   UNL     1      -8.292 -11.858  19.226  0.00  0.00    -0.336 N 
ATOM     34  C   UNL     1      -9.361 -10.880  19.255  0.00  0.00    +0.129 C 
ATOM     35  C   UNL     1      -8.429 -13.076  20.001  0.00  0.00    +0.129 C 
ENDBRANCH  28   9
ENDBRANCH  19  23
ENDBRANCH  13   5
BRANCH  14   3
ATOM      3  O   UNL     1      -4.595 -11.476   7.683  0.00  0.00    -0.442 OA
BRANCH   3  18
ATOM      4  O   UNL     1      -4.048 -13.537   6.856  0.00  0.00    -0.226 OA
ATOM      8  N   UNL     1      -4.492 -11.724   5.444  0.00  0.00    -0.251 N 
ATOM     18  C   UNL     1      -4.347 -12.366   6.659  0.00  0.00    +0.405 C 
ATOM     38  H   UNL     1      -4.748 -10.740   5.484  0.00  0.00    +0.158 HD
BRANCH   8  22
ATOM     22  C   UNL     1      -4.331 -12.266   4.148  0.00  0.00    +0.038 A 
ATOM     24  C   UNL     1      -3.063 -12.611   3.709  0.00  0.00    +0.042 A 
ATOM     25  C   UNL     1      -5.445 -12.441   3.342  0.00  0.00    +0.023 A 
ATOM     31  C   UNL     1      -2.904 -13.145   2.430  0.00  0.00    +0.054 A 
ATOM     32  C   UNL     1      -5.286 -12.974   2.062  0.00  0.00    +0.003 A 
ATOM     33  C   UNL     1      -4.015 -13.327   1.607  0.00  0.00    +0.019 A 
BRANCH  31  36
ATOM     10  N   UNL     1      -0.545 -13.800   1.583  0.00  0.00    -0.191 NA
ATOM     36  C   UNL     1      -1.603 -13.507   1.963  0.00  0.00    +0.099 C 
ENDBRANCH  31  36
ENDBRANCH   8  22
ENDBRANCH   3  18
ENDBRANCH  14   3
TORSDOF 7
ENDMDL
MODEL 7
REMARK VINA RESULT:      -7.2      5.513      8.553
REMARK  Name = 11911795
REMARK  9 active torsions:
REMARK  status: ('A' for Active; 'I' for Inactive)
REMARK    1  A    between atoms: O_3  and  C_14
REMARK    2  A    between atoms: O_3  and  C_18
REMARK    3  A    between atoms: N_5  and  C_13
REMARK    4  A    between atoms: N_8  and  C_22
REMARK    5  A    between atoms: N_9  and  C_28
REMARK    6  A    between atoms: N_9  and  C_34
REMARK    7  A    between atoms: N_9  and  C_35
REMARK    8  A    between atoms: C_19  and  C_23
REMARK    9  A    between atoms: C_31  and  C_36
REMARK                            x       y       z     vdW  Elec       q    Type
REMARK                         _______ _______ _______ _____ _____    ______ ____
ROOT
ATOM      1  O   UNL     1      -3.804  -9.580   9.498  0.00  0.00    -0.368 OA
ATOM      2  O   UNL     1      -6.207 -11.175  10.545  0.00  0.00    -0.368 OA
ATOM     11  C   UNL     1      -4.805 -11.223  10.884  0.00  0.00    +0.173 C 
ATOM     12  C   UNL     1      -4.034 -10.995   9.600  0.00  0.00    +0.192 C 
ATOM     13  C   UNL     1      -4.441 -10.037  11.745  0.00  0.00    +0.130 C 
ATOM     14  C   UNL     1      -5.001 -11.481   8.547  0.00  0.00    +0.235 C 
ATOM     15  C   UNL     1      -4.225  -8.942  10.714  0.00  0.00    +0.185 C 
ATOM     16  C   UNL     1      -6.335 -11.059   9.120  0.00  0.00    +0.207 C 
ENDROOT
BRANCH  13   5
ATOM      5  N   UNL     1      -3.213 -10.296  12.466  0.00  0.00    -0.306 N 
ATOM      6  N   UNL     1      -4.328 -10.468  14.524  0.00  0.00    -0.214 NA
ATOM      7  N   UNL     1      -1.938 -10.745  14.383  0.00  0.00    -0.223 NA
ATOM     17  C   UNL     1      -3.158 -10.510  13.831  0.00  0.00    +0.216 A 
ATOM     19  C   UNL     1      -4.237 -10.680  15.853  0.00  0.00    +0.076 A 
ATOM     20  C   UNL     1      -1.920 -10.949  15.717  0.00  0.00    +0.116 A 
ATOM     21  C   UNL     1      -3.050 -10.928  16.511  0.00  0.00    +0.048 A 
ATOM     37  H   UNL     1      -2.343 -10.381  11.953  0.00  0.00    +0.149 HD
BRANCH  19  23
ATOM     23  C   UNL     1      -5.490 -10.633  16.568  0.00  0.00    +0.001 A 
ATOM     26  C   UNL     1      -6.387  -9.586  16.341  0.00  0.00    +0.012 A 
ATOM     27  C   UNL     1      -5.811 -11.634  17.487  0.00  0.00    +0.012 A 
ATOM     28  C   UNL     1      -7.916 -10.543  17.948  0.00  0.00    +0.029 A 
ATOM     29  C   UNL     1      -7.599  -9.542  17.030  0.00  0.00    +0.024 A 
ATOM     30  C   UNL     1      -7.023 -11.588  18.177  0.00  0.00    +0.024 A 
BRANCH  28   9
ATOM      9  N   UNL     1      -9.142 -10.499  18.645  0.00  0.00    -0.336 N 
ATOM     34  C   UNL     1     -10.153  -9.524  18.292  0.00  0.00    +0.129 C 
ATOM     35  C   UNL     1      -9.401 -11.422  19.734  0.00  0.00    +0.129 C 
ENDBRANCH  28   9
ENDBRANCH  19  23
ENDBRANCH  13   5
BRANCH  14   3
ATOM      3  O   UNL     1      -4.771 -10.925   7.272  0.00  0.00    -0.442 OA
BRANCH   3  18
ATOM      4  O   UNL     1      -6.539 -11.624   6.000  0.00  0.00    -0.226 OA
ATOM      8  N   UNL     1      -6.086  -9.352   6.332  0.00  0.00    -0.251 N 
ATOM     18  C   UNL     1      -5.878 -10.710   6.477  0.00  0.00    +0.405 C 
ATOM     38  H   UNL     1      -5.425  -8.743   6.808  0.00  0.00    +0.158 HD
BRANCH   8  22
ATOM     22  C   UNL     1      -7.107  -8.700   5.601  0.00  0.00    +0.038 A 
ATOM     24  C   UNL     1      -7.146  -8.834   4.222  0.00  0.00    +0.042 A 
ATOM     25  C   UNL     1      -8.047  -7.941   6.279  0.00  0.00    +0.023 A 
ATOM     31  C   UNL     1      -8.153  -8.191   3.502  0.00  0.00    +0.054 A 
ATOM     32  C   UNL     1      -9.054  -7.298   5.558  0.00  0.00    +0.003 A 
ATOM     33  C   UNL     1      -9.106  -7.423   4.169  0.00  0.00    +0.019 A 
BRANCH  31  36
ATOM     10  N   UNL     1      -8.251  -8.423   0.924  0.00  0.00    -0.191 NA
ATOM     36  C   UNL     1      -8.207  -8.319   2.079  0.00  0.00    +0.099 C 
ENDBRANCH  31  36
ENDBRANCH   8  22
ENDBRANCH   3  18
ENDBRANCH  14   3
TORSDOF 7
ENDMDL
MODEL 8
REMARK VINA RESULT:      -7.1     29.631     32.606
REMARK  Name = 11911795
REMARK  9 active torsions:
REMARK  status: ('A' for Active; 'I' for Inactive)
REMARK    1  A    between atoms: O_3  and  C_14
REMARK    2  A    between atoms: O_3  and  C_18
REMARK    3  A    between atoms: N_5  and  C_13
REMARK    4  A    between atoms: N_8  and  C_22
REMARK    5  A    between atoms: N_9  and  C_28
REMARK    6  A    between atoms: N_9  and  C_34
REMARK    7  A    between atoms: N_9  and  C_35
REMARK    8  A    between atoms: C_19  and  C_23
REMARK    9  A    between atoms: C_31  and  C_36
REMARK                            x       y       z     vdW  Elec       q    Type
REMARK                         _______ _______ _______ _____ _____    ______ ____
ROOT
ATOM      1  O   UNL     1      21.232   7.036  20.216  0.00  0.00    -0.368 OA
ATOM      2  O   UNL     1      20.655   5.994  23.043  0.00  0.00    -0.368 OA
ATOM     11  C   UNL     1      21.240   5.356  21.888  0.00  0.00    +0.173 C 
ATOM     12  C   UNL     1      20.503   5.886  20.675  0.00  0.00    +0.192 C 
ATOM     13  C   UNL     1      22.658   5.836  21.695  0.00  0.00    +0.130 C 
ATOM     14  C   UNL     1      19.159   6.266  21.247  0.00  0.00    +0.235 C 
ATOM     15  C   UNL     1      22.458   7.147  20.956  0.00  0.00    +0.185 C 
ATOM     16  C   UNL     1      19.531   6.779  22.620  0.00  0.00    +0.207 C 
ENDROOT
BRANCH  13   5
ATOM      5  N   UNL     1      23.397   4.902  20.872  0.00  0.00    -0.306 N 
ATOM      6  N   UNL     1      23.470   3.288  22.573  0.00  0.00    -0.214 NA
ATOM      7  N   UNL     1      24.483   2.871  20.426  0.00  0.00    -0.223 NA
ATOM     17  C   UNL     1      23.795   3.650  21.303  0.00  0.00    +0.216 A 
ATOM     19  C   UNL     1      23.875   2.061  22.961  0.00  0.00    +0.076 A 
ATOM     20  C   UNL     1      24.856   1.656  20.879  0.00  0.00    +0.116 A 
ATOM     21  C   UNL     1      24.577   1.193  22.149  0.00  0.00    +0.048 A 
ATOM     37  H   UNL     1      23.598   5.141  19.907  0.00  0.00    +0.149 HD
BRANCH  19  23
ATOM     23  C   UNL     1      23.519   1.697  24.311  0.00  0.00    +0.001 A 
ATOM     26  C   UNL     1      23.305   0.357  24.642  0.00  0.00    +0.012 A 
ATOM     27  C   UNL     1      23.390   2.682  25.292  0.00  0.00    +0.012 A 
ATOM     28  C   UNL     1      22.833   0.991  26.925  0.00  0.00    +0.029 A 
ATOM     29  C   UNL     1      22.963   0.005  25.947  0.00  0.00    +0.024 A 
ATOM     30  C   UNL     1      23.046   2.329  26.598  0.00  0.00    +0.024 A 
BRANCH  28   9
ATOM      9  N   UNL     1      22.488   0.636  28.246  0.00  0.00    -0.336 N 
ATOM     34  C   UNL     1      21.737  -0.575  28.508  0.00  0.00    +0.129 C 
ATOM     35  C   UNL     1      22.868   1.486  29.358  0.00  0.00    +0.129 C 
ENDBRANCH  28   9
ENDBRANCH  19  23
ENDBRANCH  13   5
BRANCH  14   3
ATOM      3  O   UNL     1      18.477   7.237  20.485  0.00  0.00    -0.442 OA
BRANCH   3  18
ATOM      4  O   UNL     1      17.204   5.819  19.220  0.00  0.00    -0.226 OA
ATOM      8  N   UNL     1      16.310   7.768  20.159  0.00  0.00    -0.251 N 
ATOM     18  C   UNL     1      17.300   6.843  19.884  0.00  0.00    +0.405 C 
ATOM     38  H   UNL     1      16.583   8.561  20.734  0.00  0.00    +0.158 HD
BRANCH   8  22
ATOM     22  C   UNL     1      14.960   7.748  19.739  0.00  0.00    +0.038 A 
ATOM     24  C   UNL     1      14.017   7.090  20.514  0.00  0.00    +0.042 A 
ATOM     25  C   UNL     1      14.606   8.387  18.561  0.00  0.00    +0.023 A 
ATOM     31  C   UNL     1      12.686   7.071  20.098  0.00  0.00    +0.054 A 
ATOM     32  C   UNL     1      13.274   8.366  18.146  0.00  0.00    +0.003 A 
ATOM     33  C   UNL     1      12.314   7.708  18.915  0.00  0.00    +0.019 A 
BRANCH  31  36
ATOM     10  N   UNL     1      10.902   5.849  21.527  0.00  0.00    -0.191 NA
ATOM     36  C   UNL     1      11.701   6.397  20.886  0.00  0.00    +0.099 C 
ENDBRANCH  31  36
ENDBRANCH   8  22
ENDBRANCH   3  18
ENDBRANCH  14   3
TORSDOF 7
ENDMDL
MODEL 9
REMARK VINA RESULT:      -7.0     29.326     31.771
REMARK  Name = 11911795
REMARK  9 active torsions:
REMARK  status: ('A' for Active; 'I' for Inactive)
REMARK    1  A    between atoms: O_3  and  C_14
REMARK    2  A    between atoms: O_3  and  C_18
REMARK    3  A    between atoms: N_5  and  C_13
REMARK    4  A    between atoms: N_8  and  C_22
REMARK    5  A    between atoms: N_9  and  C_28
REMARK    6  A    between atoms: N_9  and  C_34
REMARK    7  A    between atoms: N_9  and  C_35
REMARK    8  A    between atoms: C_19  and  C_23
REMARK    9  A    between atoms: C_31  and  C_36
REMARK                            x       y       z     vdW  Elec       q    Type
REMARK                         _______ _______ _______ _____ _____    ______ ____
ROOT
ATOM      1  O   UNL     1      12.609  10.284  17.632  0.00  0.00    -0.368 OA
ATOM      2  O   UNL     1      14.388   7.788  17.490  0.00  0.00    -0.368 OA
ATOM     11  C   UNL     1      13.824   8.623  16.456  0.00  0.00    +0.173 C 
ATOM     12  C   UNL     1      12.447   9.040  16.930  0.00  0.00    +0.192 C 
ATOM     13  C   UNL     1      14.589   9.921  16.365  0.00  0.00    +0.130 C 
ATOM     14  C   UNL     1      12.068   7.916  17.864  0.00  0.00    +0.235 C 
ATOM     15  C   UNL     1      13.959  10.747  17.472  0.00  0.00    +0.185 C 
ATOM     16  C   UNL     1      13.395   7.571  18.502  0.00  0.00    +0.207 C 
ENDROOT
BRANCH  13   5
ATOM      5  N   UNL     1      14.365  10.549  15.080  0.00  0.00    -0.306 N 
ATOM      6  N   UNL     1      16.607  11.211  14.887  0.00  0.00    -0.214 NA
ATOM      7  N   UNL     1      15.010  11.728  13.157  0.00  0.00    -0.223 NA
ATOM     17  C   UNL     1      15.357  11.181  14.353  0.00  0.00    +0.216 A 
ATOM     19  C   UNL     1      17.550  11.837  14.152  0.00  0.00    +0.076 A 
ATOM     20  C   UNL     1      16.002  12.338  12.475  0.00  0.00    +0.116 A 
ATOM     21  C   UNL     1      17.304  12.423  12.927  0.00  0.00    +0.048 A 
ATOM     37  H   UNL     1      13.450  10.486  14.649  0.00  0.00    +0.149 HD
BRANCH  19  23
ATOM     23  C   UNL     1      18.870  11.856  14.736  0.00  0.00    +0.001 A 
ATOM     26  C   UNL     1      19.114  12.604  15.890  0.00  0.00    +0.012 A 
ATOM     27  C   UNL     1      19.906  11.126  14.151  0.00  0.00    +0.012 A 
ATOM     28  C   UNL     1      21.422  11.891  15.869  0.00  0.00    +0.029 A 
ATOM     29  C   UNL     1      20.389  12.621  16.456  0.00  0.00    +0.024 A 
ATOM     30  C   UNL     1      21.181  11.144  14.717  0.00  0.00    +0.024 A 
BRANCH  28   9
ATOM      9  N   UNL     1      22.712  11.907  16.441  0.00  0.00    -0.336 N 
ATOM     34  C   UNL     1      23.288  10.694  16.985  0.00  0.00    +0.129 C 
ATOM     35  C   UNL     1      23.473  13.140  16.502  0.00  0.00    +0.129 C 
ENDBRANCH  28   9
ENDBRANCH  19  23
ENDBRANCH  13   5
BRANCH  14   3
ATOM      3  O   UNL     1      11.099   8.282  18.821  0.00  0.00    -0.442 OA
BRANCH   3  18
ATOM      4  O   UNL     1      11.543   7.483  20.918  0.00  0.00    -0.226 OA
ATOM      8  N   UNL     1      11.921   9.722  20.350  0.00  0.00    -0.251 N 
ATOM     18  C   UNL     1      11.530   8.416  20.125  0.00  0.00    +0.405 C 
ATOM     38  H   UNL     1      11.836  10.359  19.561  0.00  0.00    +0.158 HD
BRANCH   8  22
ATOM     22  C   UNL     1      12.425  10.286  21.545  0.00  0.00    +0.038 A 
ATOM     24  C   UNL     1      11.546  10.865  22.447  0.00  0.00    +0.042 A 
ATOM     25  C   UNL     1      13.789  10.249  21.789  0.00  0.00    +0.023 A 
ATOM     31  C   UNL     1      12.045  11.421  23.624  0.00  0.00    +0.054 A 
ATOM     32  C   UNL     1      14.287  10.807  22.968  0.00  0.00    +0.003 A 
ATOM     33  C   UNL     1      13.415  11.393  23.885  0.00  0.00    +0.019 A 
BRANCH  31  36
ATOM     10  N   UNL     1      10.426  12.509  25.330  0.00  0.00    -0.191 NA
ATOM     36  C   UNL     1      11.152  12.022  24.565  0.00  0.00    +0.099 C 
ENDBRANCH  31  36
ENDBRANCH   8  22
ENDBRANCH   3  18
ENDBRANCH  14   3
TORSDOF 7
ENDMDL
MODEL 10
REMARK VINA RESULT:      -6.8     26.078     28.337
REMARK  Name = 11911795
REMARK  9 active torsions:
REMARK  status: ('A' for Active; 'I' for Inactive)
REMARK    1  A    between atoms: O_3  and  C_14
REMARK    2  A    between atoms: O_3  and  C_18
REMARK    3  A    between atoms: N_5  and  C_13
REMARK    4  A    between atoms: N_8  and  C_22
REMARK    5  A    between atoms: N_9  and  C_28
REMARK    6  A    between atoms: N_9  and  C_34
REMARK    7  A    between atoms: N_9  and  C_35
REMARK    8  A    between atoms: C_19  and  C_23
REMARK    9  A    between atoms: C_31  and  C_36
REMARK                            x       y       z     vdW  Elec       q    Type
REMARK                         _______ _______ _______ _____ _____    ______ ____
ROOT
ATOM      1  O   UNL     1      10.647   5.591   5.904  0.00  0.00    -0.368 OA
ATOM      2  O   UNL     1       9.455   7.320   3.667  0.00  0.00    -0.368 OA
ATOM     11  C   UNL     1      10.710   6.613   3.766  0.00  0.00    +0.173 C 
ATOM     12  C   UNL     1      11.169   6.733   5.205  0.00  0.00    +0.192 C 
ATOM     13  C   UNL     1      10.485   5.132   3.575  0.00  0.00    +0.130 C 
ATOM     14  C   UNL     1      10.508   8.014   5.654  0.00  0.00    +0.235 C 
ATOM     15  C   UNL     1      10.047   4.690   4.960  0.00  0.00    +0.185 C 
ATOM     16  C   UNL     1       9.187   7.965   4.921  0.00  0.00    +0.207 C 
ENDROOT
BRANCH  13   5
ATOM      5  N   UNL     1      11.723   4.479   3.207  0.00  0.00    -0.306 N 
ATOM      6  N   UNL     1      11.175   4.481   0.925  0.00  0.00    -0.214 NA
ATOM      7  N   UNL     1      13.259   3.549   1.697  0.00  0.00    -0.223 NA
ATOM     17  C   UNL     1      12.062   4.160   1.905  0.00  0.00    +0.216 A 
ATOM     19  C   UNL     1      11.537   4.154  -0.333  0.00  0.00    +0.076 A 
ATOM     20  C   UNL     1      13.558   3.251   0.415  0.00  0.00    +0.116 A 
ATOM     21  C   UNL     1      12.728   3.534  -0.651  0.00  0.00    +0.048 A 
ATOM     37  H   UNL     1      12.414   4.283   3.922  0.00  0.00    +0.149 HD
BRANCH  19  23
ATOM     23  C   UNL     1      10.582   4.505  -1.356  0.00  0.00    +0.001 A 
ATOM     26  C   UNL     1       9.736   5.602  -1.178  0.00  0.00    +0.012 A 
ATOM     27  C   UNL     1      10.501   3.750  -2.527  0.00  0.00    +0.012 A 
ATOM     28  C   UNL     1       8.734   5.185  -3.337  0.00  0.00    +0.029 A 
ATOM     29  C   UNL     1       8.814   5.942  -2.168  0.00  0.00    +0.024 A 
ATOM     30  C   UNL     1       9.577   4.089  -3.517  0.00  0.00    +0.024 A 
BRANCH  28   9
ATOM      9  N   UNL     1       7.803   5.528  -4.339  0.00  0.00    -0.336 N 
ATOM     34  C   UNL     1       6.512   6.081  -3.982  0.00  0.00    +0.129 C 
ATOM     35  C   UNL     1       8.119   5.320  -5.738  0.00  0.00    +0.129 C 
ENDBRANCH  28   9
ENDBRANCH  19  23
ENDBRANCH  13   5
BRANCH  14   3
ATOM      3  O   UNL     1      10.337   8.098   7.051  0.00  0.00    -0.442 OA
BRANCH   3  18
ATOM      4  O   UNL     1      11.714   9.800   7.714  0.00  0.00    -0.226 OA
ATOM      8  N   UNL     1       9.405   9.869   8.092  0.00  0.00    -0.251 N 
ATOM     18  C   UNL     1      10.590   9.321   7.637  0.00  0.00    +0.405 C 
ATOM     38  H   UNL     1       8.565   9.317   7.935  0.00  0.00    +0.158 HD
BRANCH   8  22
ATOM     22  C   UNL     1       9.214  11.106   8.750  0.00  0.00    +0.038 A 
ATOM     24  C   UNL     1       9.162  11.138  10.134  0.00  0.00    +0.042 A 
ATOM     25  C   UNL     1       9.082  12.262   7.997  0.00  0.00    +0.023 A 
ATOM     31  C   UNL     1       8.973  12.359  10.782  0.00  0.00    +0.054 A 
ATOM     32  C   UNL     1       8.893  13.482   8.646  0.00  0.00    +0.003 A 
ATOM     33  C   UNL     1       8.838  13.531  10.039  0.00  0.00    +0.019 A 
BRANCH  31  36
ATOM     10  N   UNL     1       8.873  12.450  13.370  0.00  0.00    -0.191 NA
ATOM     36  C   UNL     1       8.918  12.409  12.210  0.00  0.00    +0.099 C 
ENDBRANCH  31  36
ENDBRANCH   8  22
ENDBRANCH   3  18
ENDBRANCH  14   3
TORSDOF 7
ENDMDL
