MODEL 1
REMARK VINA RESULT:      -8.7      0.000      0.000
REMARK  Name = 40777135
REMARK  6 active torsions:
REMARK  status: ('A' for Active; 'I' for Inactive)
REMARK    1  A    between atoms: N_4  and  C_15
REMARK    2  A    between atoms: N_7  and  C_25
REMARK    3  A    between atoms: C_9  and  C_16
REMARK    4  A    between atoms: C_10  and  C_15
REMARK    5  A    between atoms: C_18  and  C_21
REMARK    6  A    between atoms: C_19  and  C_22
REMARK                            x       y       z     vdW  Elec       q    Type
REMARK                         _______ _______ _______ _____ _____    ______ ____
ROOT
ATOM      3  N   UNL     1      12.080  11.542  24.773  0.00  0.00    -0.297 NA
ATOM      8  C   UNL     1      11.238  12.093  22.372  0.00  0.00    +0.002 C 
ATOM      9  C   UNL     1      10.896  10.623  22.743  0.00  0.00    +0.055 C 
ATOM     10  C   UNL     1      13.172  12.168  23.983  0.00  0.00    +0.074 C 
ATOM     11  C   UNL     1      12.759  12.312  22.502  0.00  0.00    +0.024 C 
ATOM     12  C   UNL     1      10.557  12.989  23.429  0.00  0.00    +0.019 C 
ATOM     13  C   UNL     1      11.602  10.312  24.095  0.00  0.00    +0.094 C 
ATOM     14  C   UNL     1      10.953  12.504  24.834  0.00  0.00    +0.085 C 
ENDROOT
BRANCH   9  16
ATOM      5  N   UNL     1      11.085   8.264  22.128  0.00  0.00    -0.237 NA
ATOM      6  N   UNL     1      11.579   7.559  19.877  0.00  0.00    -0.232 NA
ATOM     16  C   UNL     1      11.143   9.542  21.701  0.00  0.00    +0.050 A 
ATOM     17  C   UNL     1      11.410   9.904  20.396  0.00  0.00    +0.052 A 
ATOM     18  C   UNL     1      11.622   8.859  19.519  0.00  0.00    +0.076 A 
ATOM     19  C   UNL     1      11.310   7.336  21.177  0.00  0.00    +0.127 A 
ATOM     22  C   UNL     1      11.256   5.910  21.612  0.00  0.00    +0.088 C 
BRANCH  18  21
ATOM      1 BR   UNL     1      14.324  10.476  18.958  0.00  0.00    -0.050 Br
ATOM     21  C   UNL     1      11.912   9.104  18.126  0.00  0.00    +0.014 A 
ATOM     23  C   UNL     1      13.053   9.796  17.719  0.00  0.00    +0.027 A 
ATOM     24  C   UNL     1      11.009   8.626  17.176  0.00  0.00    +0.011 A 
ATOM     26  C   UNL     1      13.291  10.009  16.362  0.00  0.00    +0.016 A 
ATOM     27  C   UNL     1      11.248   8.840  15.819  0.00  0.00    +0.001 A 
ATOM     28  C   UNL     1      12.389   9.531  15.411  0.00  0.00    +0.001 A 
ENDBRANCH  18  21
ENDBRANCH   9  16
BRANCH  10  15
ATOM     15  C   UNL     1      14.501  11.426  24.135  0.00  0.00    +0.124 C 
BRANCH  15   4
ATOM      2  O   UNL     1      16.239  10.420  22.093  0.00  0.00    -0.253 OA
ATOM      4  N   UNL     1      14.439  10.136  23.518  0.00  0.00    -0.298 N 
ATOM      7  N   UNL     1      15.027   8.409  22.104  0.00  0.00    -0.269 N 
ATOM     20  C   UNL     1      15.331   9.710  22.518  0.00  0.00    +0.304 C 
ATOM     34  H   UNL     1      13.709   9.497  23.816  0.00  0.00    +0.150 HD
ATOM     35  H   UNL     1      14.236   7.959  22.559  0.00  0.00    +0.156 HD
BRANCH   7  25
ATOM     25  C   UNL     1      15.687   7.634  21.124  0.00  0.00    +0.035 A 
ATOM     29  C   UNL     1      15.009   7.248  19.967  0.00  0.00    +0.023 A 
ATOM     30  C   UNL     1      17.017   7.255  21.312  0.00  0.00    +0.023 A 
ATOM     31  C   UNL     1      15.661   6.484  18.999  0.00  0.00    +0.002 A 
ATOM     32  C   UNL     1      17.668   6.490  20.344  0.00  0.00    +0.002 A 
ATOM     33  C   UNL     1      16.991   6.104  19.188  0.00  0.00    +0.000 A 
ENDBRANCH   7  25
ENDBRANCH  15   4
ENDBRANCH  10  15
TORSDOF 5
ENDMDL
MODEL 2
REMARK VINA RESULT:      -8.3     25.666     28.784
REMARK  Name = 40777135
REMARK  6 active torsions:
REMARK  status: ('A' for Active; 'I' for Inactive)
REMARK    1  A    between atoms: N_4  and  C_15
REMARK    2  A    between atoms: N_7  and  C_25
REMARK    3  A    between atoms: C_9  and  C_16
REMARK    4  A    between atoms: C_10  and  C_15
REMARK    5  A    between atoms: C_18  and  C_21
REMARK    6  A    between atoms: C_19  and  C_22
REMARK                            x       y       z     vdW  Elec       q    Type
REMARK                         _______ _______ _______ _____ _____    ______ ____
ROOT
ATOM      3  N   UNL     1      -6.021 -10.401   9.886  0.00  0.00    -0.297 NA
ATOM      8  C   UNL     1      -3.697  -9.326  10.356  0.00  0.00    +0.002 C 
ATOM      9  C   UNL     1      -3.668 -10.846  10.678  0.00  0.00    +0.055 C 
ATOM     10  C   UNL     1      -6.185  -9.183  10.722  0.00  0.00    +0.074 C 
ATOM     11  C   UNL     1      -4.811  -8.651  11.182  0.00  0.00    +0.024 C 
ATOM     12  C   UNL     1      -4.091  -9.193   8.869  0.00  0.00    +0.019 C 
ATOM     13  C   UNL     1      -5.128 -11.370  10.568  0.00  0.00    +0.094 C 
ATOM     14  C   UNL     1      -5.377  -9.996   8.612  0.00  0.00    +0.085 C 
ENDROOT
BRANCH   9  16
ATOM      5  N   UNL     1      -2.492 -10.325  12.759  0.00  0.00    -0.237 NA
ATOM      6  N   UNL     1      -1.755 -12.040  14.282  0.00  0.00    -0.232 NA
ATOM     16  C   UNL     1      -2.988 -11.295  11.964  0.00  0.00    +0.050 A 
ATOM     17  C   UNL     1      -2.907 -12.642  12.255  0.00  0.00    +0.052 A 
ATOM     18  C   UNL     1      -2.273 -12.958  13.440  0.00  0.00    +0.076 A 
ATOM     19  C   UNL     1      -1.897 -10.761  13.885  0.00  0.00    +0.127 A 
ATOM     22  C   UNL     1      -1.335  -9.717  14.789  0.00  0.00    +0.088 C 
BRANCH  18  21
ATOM      1 BR   UNL     1      -4.638 -14.088  15.273  0.00  0.00    -0.050 Br
ATOM     21  C   UNL     1      -2.122 -14.331  13.859  0.00  0.00    +0.014 A 
ATOM     23  C   UNL     1      -3.068 -14.968  14.662  0.00  0.00    +0.027 A 
ATOM     24  C   UNL     1      -0.985 -15.022  13.438  0.00  0.00    +0.011 A 
ATOM     26  C   UNL     1      -2.879 -16.297  15.042  0.00  0.00    +0.016 A 
ATOM     27  C   UNL     1      -0.796 -16.350  13.819  0.00  0.00    +0.001 A 
ATOM     28  C   UNL     1      -1.742 -16.988  14.621  0.00  0.00    +0.001 A 
ENDBRANCH  18  21
ENDBRANCH   9  16
BRANCH  10  15
ATOM     15  C   UNL     1      -7.134  -9.408  11.900  0.00  0.00    +0.124 C 
BRANCH  15   4
ATOM      2  O   UNL     1      -6.972 -11.186  14.140  0.00  0.00    -0.253 OA
ATOM      4  N   UNL     1      -6.472  -9.158  13.144  0.00  0.00    -0.298 N 
ATOM      7  N   UNL     1      -5.720  -9.564  15.288  0.00  0.00    -0.269 N 
ATOM     20  C   UNL     1      -6.434 -10.082  14.203  0.00  0.00    +0.304 C 
ATOM     34  H   UNL     1      -6.010  -8.263  13.269  0.00  0.00    +0.150 HD
ATOM     35  H   UNL     1      -5.337  -8.628  15.176  0.00  0.00    +0.156 HD
BRANCH   7  25
ATOM     25  C   UNL     1      -5.461 -10.184  16.531  0.00  0.00    +0.035 A 
ATOM     29  C   UNL     1      -6.466 -10.256  17.497  0.00  0.00    +0.023 A 
ATOM     30  C   UNL     1      -4.201 -10.723  16.794  0.00  0.00    +0.023 A 
ATOM     31  C   UNL     1      -6.210 -10.868  18.724  0.00  0.00    +0.002 A 
ATOM     32  C   UNL     1      -3.947 -11.334  18.022  0.00  0.00    +0.002 A 
ATOM     33  C   UNL     1      -4.950 -11.407  18.987  0.00  0.00    +0.000 A 
ENDBRANCH   7  25
ENDBRANCH  15   4
ENDBRANCH  10  15
TORSDOF 5
ENDMDL
MODEL 3
REMARK VINA RESULT:      -8.3     25.616     29.026
REMARK  Name = 40777135
REMARK  6 active torsions:
REMARK  status: ('A' for Active; 'I' for Inactive)
REMARK    1  A    between atoms: N_4  and  C_15
REMARK    2  A    between atoms: N_7  and  C_25
REMARK    3  A    between atoms: C_9  and  C_16
REMARK    4  A    between atoms: C_10  and  C_15
REMARK    5  A    between atoms: C_18  and  C_21
REMARK    6  A    between atoms: C_19  and  C_22
REMARK                            x       y       z     vdW  Elec       q    Type
REMARK                         _______ _______ _______ _____ _____    ______ ____
ROOT
ATOM      3  N   UNL     1      -6.083 -10.413   9.797  0.00  0.00    -0.297 NA
ATOM      8  C   UNL     1      -3.925  -9.222  10.638  0.00  0.00    +0.002 C 
ATOM      9  C   UNL     1      -3.877 -10.737  10.978  0.00  0.00    +0.055 C 
ATOM     10  C   UNL     1      -6.443  -9.201  10.580  0.00  0.00    +0.074 C 
ATOM     11  C   UNL     1      -5.194  -8.600  11.258  0.00  0.00    +0.024 C 
ATOM     12  C   UNL     1      -4.069  -9.114   9.104  0.00  0.00    +0.019 C 
ATOM     13  C   UNL     1      -5.271 -11.334  10.631  0.00  0.00    +0.094 C 
ATOM     14  C   UNL     1      -5.255  -9.981   8.645  0.00  0.00    +0.085 C 
ENDROOT
BRANCH   9  16
ATOM      5  N   UNL     1      -2.527 -10.323  12.975  0.00  0.00    -0.237 NA
ATOM      6  N   UNL     1      -2.512 -11.833  14.852  0.00  0.00    -0.232 NA
ATOM     16  C   UNL     1      -3.402 -11.148  12.365  0.00  0.00    +0.050 A 
ATOM     17  C   UNL     1      -3.872 -12.319  12.925  0.00  0.00    +0.052 A 
ATOM     18  C   UNL     1      -3.387 -12.613  14.184  0.00  0.00    +0.076 A 
ATOM     19  C   UNL     1      -2.129 -10.720  14.199  0.00  0.00    +0.127 A 
ATOM     22  C   UNL     1      -1.160  -9.833  14.905  0.00  0.00    +0.088 C 
BRANCH  18  21
ATOM      1 BR   UNL     1      -1.583 -15.195  13.631  0.00  0.00    -0.050 Br
ATOM     21  C   UNL     1      -3.799 -13.809  14.879  0.00  0.00    +0.014 A 
ATOM     23  C   UNL     1      -3.115 -15.017  14.741  0.00  0.00    +0.027 A 
ATOM     24  C   UNL     1      -4.920 -13.732  15.706  0.00  0.00    +0.011 A 
ATOM     26  C   UNL     1      -3.551 -16.148  15.433  0.00  0.00    +0.016 A 
ATOM     27  C   UNL     1      -5.355 -14.863  16.397  0.00  0.00    +0.001 A 
ATOM     28  C   UNL     1      -4.672 -16.070  16.260  0.00  0.00    +0.001 A 
ENDBRANCH  18  21
ENDBRANCH   9  16
BRANCH  10  15
ATOM     15  C   UNL     1      -7.564  -9.469  11.585  0.00  0.00    +0.124 C 
BRANCH  15   4
ATOM      2  O   UNL     1      -7.027 -11.330  13.695  0.00  0.00    -0.253 OA
ATOM      4  N   UNL     1      -7.144  -9.155  12.916  0.00  0.00    -0.298 N 
ATOM      7  N   UNL     1      -6.503  -9.524  15.102  0.00  0.00    -0.269 N 
ATOM     20  C   UNL     1      -6.898 -10.125  13.903  0.00  0.00    +0.304 C 
ATOM     34  H   UNL     1      -7.021  -8.177  13.161  0.00  0.00    +0.150 HD
ATOM     35  H   UNL     1      -6.446  -8.509  15.106  0.00  0.00    +0.156 HD
BRANCH   7  25
ATOM     25  C   UNL     1      -6.168 -10.157  16.321  0.00  0.00    +0.035 A 
ATOM     29  C   UNL     1      -7.167 -10.744  17.098  0.00  0.00    +0.023 A 
ATOM     30  C   UNL     1      -4.840 -10.196  16.747  0.00  0.00    +0.023 A 
ATOM     31  C   UNL     1      -6.837 -11.370  18.301  0.00  0.00    +0.002 A 
ATOM     32  C   UNL     1      -4.511 -10.821  17.949  0.00  0.00    +0.002 A 
ATOM     33  C   UNL     1      -5.509 -11.408  18.727  0.00  0.00    +0.000 A 
ENDBRANCH   7  25
ENDBRANCH  15   4
ENDBRANCH  10  15
TORSDOF 5
ENDMDL
MODEL 4
REMARK VINA RESULT:      -7.8     28.058     30.577
REMARK  Name = 40777135
REMARK  6 active torsions:
REMARK  status: ('A' for Active; 'I' for Inactive)
REMARK    1  A    between atoms: N_4  and  C_15
REMARK    2  A    between atoms: N_7  and  C_25
REMARK    3  A    between atoms: C_9  and  C_16
REMARK    4  A    between atoms: C_10  and  C_15
REMARK    5  A    between atoms: C_18  and  C_21
REMARK    6  A    between atoms: C_19  and  C_22
REMARK                            x       y       z     vdW  Elec       q    Type
REMARK                         _______ _______ _______ _____ _____    ______ ____
ROOT
ATOM      3  N   UNL     1     -18.493   3.100  26.226  0.00  0.00    -0.297 NA
ATOM      8  C   UNL     1     -17.236   0.839  26.523  0.00  0.00    +0.002 C 
ATOM      9  C   UNL     1     -17.476   1.512  27.902  0.00  0.00    +0.055 C 
ATOM     10  C   UNL     1     -17.326   3.043  25.307  0.00  0.00    +0.074 C 
ATOM     11  C   UNL     1     -16.452   1.807  25.613  0.00  0.00    +0.024 C 
ATOM     12  C   UNL     1     -18.624   0.633  25.879  0.00  0.00    +0.019 C 
ATOM     13  C   UNL     1     -18.043   2.935  27.630  0.00  0.00    +0.094 C 
ATOM     14  C   UNL     1     -19.390   1.967  25.892  0.00  0.00    +0.085 C 
ENDROOT
BRANCH   9  16
ATOM      5  N   UNL     1     -15.467   0.494  28.854  0.00  0.00    -0.237 NA
ATOM      6  N   UNL     1     -14.257   1.500  30.678  0.00  0.00    -0.232 NA
ATOM     16  C   UNL     1     -16.331   1.528  28.904  0.00  0.00    +0.050 A 
ATOM     17  C   UNL     1     -16.226   2.572  29.801  0.00  0.00    +0.052 A 
ATOM     18  C   UNL     1     -15.158   2.505  30.673  0.00  0.00    +0.076 A 
ATOM     19  C   UNL     1     -14.468   0.542  29.756  0.00  0.00    +0.127 A 
ATOM     22  C   UNL     1     -13.493  -0.586  29.732  0.00  0.00    +0.088 C 
BRANCH  18  21
ATOM      1 BR   UNL     1     -14.649   1.446  33.648  0.00  0.00    -0.050 Br
ATOM     21  C   UNL     1     -14.937   3.533  31.661  0.00  0.00    +0.014 A 
ATOM     23  C   UNL     1     -14.702   3.232  33.002  0.00  0.00    +0.027 A 
ATOM     24  C   UNL     1     -14.967   4.863  31.238  0.00  0.00    +0.011 A 
ATOM     26  C   UNL     1     -14.494   4.261  33.921  0.00  0.00    +0.016 A 
ATOM     27  C   UNL     1     -14.760   5.891  32.158  0.00  0.00    +0.001 A 
ATOM     28  C   UNL     1     -14.524   5.591  33.499  0.00  0.00    +0.001 A 
ENDBRANCH  18  21
ENDBRANCH   9  16
BRANCH  10  15
ATOM     15  C   UNL     1     -16.510   4.336  25.322  0.00  0.00    +0.124 C 
BRANCH  15   4
ATOM      2  O   UNL     1     -15.858   6.532  23.602  0.00  0.00    -0.253 OA
ATOM      4  N   UNL     1     -15.539   4.340  24.269  0.00  0.00    -0.298 N 
ATOM      7  N   UNL     1     -14.280   5.168  22.522  0.00  0.00    -0.269 N 
ATOM     20  C   UNL     1     -15.272   5.461  23.463  0.00  0.00    +0.304 C 
ATOM     34  H   UNL     1     -15.020   3.486  24.093  0.00  0.00    +0.150 HD
ATOM     35  H   UNL     1     -13.897   4.227  22.541  0.00  0.00    +0.156 HD
BRANCH   7  25
ATOM     25  C   UNL     1     -13.738   6.027  21.538  0.00  0.00    +0.035 A 
ATOM     29  C   UNL     1     -14.587   6.732  20.684  0.00  0.00    +0.023 A 
ATOM     30  C   UNL     1     -12.355   6.171  21.422  0.00  0.00    +0.023 A 
ATOM     31  C   UNL     1     -14.052   7.580  19.714  0.00  0.00    +0.002 A 
ATOM     32  C   UNL     1     -11.821   7.018  20.451  0.00  0.00    +0.002 A 
ATOM     33  C   UNL     1     -12.669   7.723  19.597  0.00  0.00    +0.000 A 
ENDBRANCH   7  25
ENDBRANCH  15   4
ENDBRANCH  10  15
TORSDOF 5
ENDMDL
MODEL 5
REMARK VINA RESULT:      -7.7      2.517      6.414
REMARK  Name = 40777135
REMARK  6 active torsions:
REMARK  status: ('A' for Active; 'I' for Inactive)
REMARK    1  A    between atoms: N_4  and  C_15
REMARK    2  A    between atoms: N_7  and  C_25
REMARK    3  A    between atoms: C_9  and  C_16
REMARK    4  A    between atoms: C_10  and  C_15
REMARK    5  A    between atoms: C_18  and  C_21
REMARK    6  A    between atoms: C_19  and  C_22
REMARK                            x       y       z     vdW  Elec       q    Type
REMARK                         _______ _______ _______ _____ _____    ______ ____
ROOT
ATOM      3  N   UNL     1      13.827   8.331  21.796  0.00  0.00    -0.297 NA
ATOM      8  C   UNL     1      14.147   6.942  19.616  0.00  0.00    +0.002 C 
ATOM      9  C   UNL     1      14.456   8.442  19.355  0.00  0.00    +0.055 C 
ATOM     10  C   UNL     1      12.634   7.477  21.557  0.00  0.00    +0.074 C 
ATOM     11  C   UNL     1      12.713   6.806  20.170  0.00  0.00    +0.024 C 
ATOM     12  C   UNL     1      15.110   6.476  20.730  0.00  0.00    +0.019 C 
ATOM     13  C   UNL     1      14.051   9.228  20.635  0.00  0.00    +0.094 C 
ATOM     14  C   UNL     1      15.005   7.439  21.925  0.00  0.00    +0.085 C 
ENDROOT
BRANCH   9  16
ATOM      5  N   UNL     1      12.666   8.704  17.709  0.00  0.00    -0.237 NA
ATOM      6  N   UNL     1      12.865  10.186  15.820  0.00  0.00    -0.232 NA
ATOM     16  C   UNL     1      13.905   9.080  18.088  0.00  0.00    +0.050 A 
ATOM     17  C   UNL     1      14.676   9.990  17.394  0.00  0.00    +0.052 A 
ATOM     18  C   UNL     1      14.098  10.517  16.256  0.00  0.00    +0.076 A 
ATOM     19  C   UNL     1      12.214   9.288  16.583  0.00  0.00    +0.127 A 
ATOM     22  C   UNL     1      10.848   8.896  16.132  0.00  0.00    +0.088 C 
BRANCH  18  21
ATOM      1 BR   UNL     1      14.011  13.529  17.329  0.00  0.00    -0.050 Br
ATOM     21  C   UNL     1      14.801  11.478  15.441  0.00  0.00    +0.014 A 
ATOM     23  C   UNL     1      14.855  12.832  15.775  0.00  0.00    +0.027 A 
ATOM     24  C   UNL     1      15.438  11.018  14.288  0.00  0.00    +0.011 A 
ATOM     26  C   UNL     1      15.546  13.725  14.956  0.00  0.00    +0.016 A 
ATOM     27  C   UNL     1      16.128  11.911  13.470  0.00  0.00    +0.001 A 
ATOM     28  C   UNL     1      16.183  13.264  13.803  0.00  0.00    +0.001 A 
ENDBRANCH  18  21
ENDBRANCH   9  16
BRANCH  10  15
ATOM     15  C   UNL     1      11.323   8.243  21.746  0.00  0.00    +0.124 C 
BRANCH  15   4
ATOM      2  O   UNL     1      11.340  11.094  22.021  0.00  0.00    -0.253 OA
ATOM      4  N   UNL     1      11.337   8.985  22.970  0.00  0.00    -0.298 N 
ATOM      7  N   UNL     1      11.358  10.831  24.355  0.00  0.00    -0.269 N 
ATOM     20  C   UNL     1      11.344  10.390  23.028  0.00  0.00    +0.304 C 
ATOM     34  H   UNL     1      11.347   8.467  23.843  0.00  0.00    +0.150 HD
ATOM     35  H   UNL     1      11.361  10.112  25.074  0.00  0.00    +0.156 HD
BRANCH   7  25
ATOM     25  C   UNL     1      11.369  12.164  24.825  0.00  0.00    +0.035 A 
ATOM     29  C   UNL     1      12.444  12.627  25.585  0.00  0.00    +0.023 A 
ATOM     30  C   UNL     1      10.306  13.017  24.530  0.00  0.00    +0.023 A 
ATOM     31  C   UNL     1      12.455  13.942  26.049  0.00  0.00    +0.002 A 
ATOM     32  C   UNL     1      10.317  14.332  24.994  0.00  0.00    +0.002 A 
ATOM     33  C   UNL     1      11.391  14.795  25.754  0.00  0.00    +0.000 A 
ENDBRANCH   7  25
ENDBRANCH  15   4
ENDBRANCH  10  15
TORSDOF 5
ENDMDL
MODEL 6
REMARK VINA RESULT:      -7.7     25.830     29.369
REMARK  Name = 40777135
REMARK  6 active torsions:
REMARK  status: ('A' for Active; 'I' for Inactive)
REMARK    1  A    between atoms: N_4  and  C_15
REMARK    2  A    between atoms: N_7  and  C_25
REMARK    3  A    between atoms: C_9  and  C_16
REMARK    4  A    between atoms: C_10  and  C_15
REMARK    5  A    between atoms: C_18  and  C_21
REMARK    6  A    between atoms: C_19  and  C_22
REMARK                            x       y       z     vdW  Elec       q    Type
REMARK                         _______ _______ _______ _____ _____    ______ ____
ROOT
ATOM      3  N   UNL     1      -5.402 -11.070   9.968  0.00  0.00    -0.297 NA
ATOM      8  C   UNL     1      -4.029  -9.129  11.029  0.00  0.00    +0.002 C 
ATOM      9  C   UNL     1      -3.648 -10.486  11.684  0.00  0.00    +0.055 C 
ATOM     10  C   UNL     1      -6.311  -9.963  10.366  0.00  0.00    +0.074 C 
ATOM     11  C   UNL     1      -5.547  -8.898  11.181  0.00  0.00    +0.024 C 
ATOM     12  C   UNL     1      -3.739  -9.267   9.519  0.00  0.00    +0.019 C 
ATOM     13  C   UNL     1      -4.643 -11.555  11.147  0.00  0.00    +0.094 C 
ATOM     14  C   UNL     1      -4.432 -10.531   8.983  0.00  0.00    +0.085 C 
ENDROOT
BRANCH   9  16
ATOM      5  N   UNL     1      -2.259 -10.403  13.696  0.00  0.00    -0.237 NA
ATOM      6  N   UNL     1      -3.187 -10.627  15.908  0.00  0.00    -0.232 NA
ATOM     16  C   UNL     1      -3.506 -10.538  13.199  0.00  0.00    +0.050 A 
ATOM     17  C   UNL     1      -4.628 -10.720  13.981  0.00  0.00    +0.052 A 
ATOM     18  C   UNL     1      -4.406 -10.756  15.343  0.00  0.00    +0.076 A 
ATOM     19  C   UNL     1      -2.173 -10.456  15.039  0.00  0.00    +0.127 A 
ATOM     22  C   UNL     1      -0.810 -10.312  15.626  0.00  0.00    +0.088 C 
BRANCH  18  21
ATOM      1 BR   UNL     1      -5.183 -13.802  15.935  0.00  0.00    -0.050 Br
ATOM     21  C   UNL     1      -5.496 -10.942  16.270  0.00  0.00    +0.014 A 
ATOM     23  C   UNL     1      -5.954 -12.210  16.630  0.00  0.00    +0.027 A 
ATOM     24  C   UNL     1      -6.098  -9.804  16.809  0.00  0.00    +0.011 A 
ATOM     26  C   UNL     1      -7.011 -12.340  17.530  0.00  0.00    +0.016 A 
ATOM     27  C   UNL     1      -7.156  -9.935  17.708  0.00  0.00    +0.001 A 
ATOM     28  C   UNL     1      -7.613 -11.202  18.069  0.00  0.00    +0.001 A 
ENDBRANCH  18  21
ENDBRANCH   9  16
BRANCH  10  15
ATOM     15  C   UNL     1      -7.551 -10.467  11.106  0.00  0.00    +0.124 C 
BRANCH  15   4
ATOM      2  O   UNL     1      -9.913 -10.232  12.709  0.00  0.00    -0.253 OA
ATOM      4  N   UNL     1      -7.648  -9.872  12.404  0.00  0.00    -0.298 N 
ATOM      7  N   UNL     1      -8.637  -9.161  14.364  0.00  0.00    -0.269 N 
ATOM     20  C   UNL     1      -8.847  -9.793  13.135  0.00  0.00    +0.304 C 
ATOM     34  H   UNL     1      -6.806  -9.483  12.816  0.00  0.00    +0.150 HD
ATOM     35  H   UNL     1      -7.688  -8.854  14.563  0.00  0.00    +0.156 HD
BRANCH   7  25
ATOM     25  C   UNL     1      -9.588  -8.893  15.375  0.00  0.00    +0.035 A 
ATOM     29  C   UNL     1      -9.832  -7.577  15.771  0.00  0.00    +0.023 A 
ATOM     30  C   UNL     1     -10.282  -9.942  15.977  0.00  0.00    +0.023 A 
ATOM     31  C   UNL     1     -10.771  -7.312  16.768  0.00  0.00    +0.002 A 
ATOM     32  C   UNL     1     -11.220  -9.677  16.975  0.00  0.00    +0.002 A 
ATOM     33  C   UNL     1     -11.465  -8.363  17.371  0.00  0.00    +0.000 A 
ENDBRANCH   7  25
ENDBRANCH  15   4
ENDBRANCH  10  15
TORSDOF 5
ENDMDL
MODEL 7
REMARK VINA RESULT:      -7.4     25.725     29.402
REMARK  Name = 40777135
REMARK  6 active torsions:
REMARK  status: ('A' for Active; 'I' for Inactive)
REMARK    1  A    between atoms: N_4  and  C_15
REMARK    2  A    between atoms: N_7  and  C_25
REMARK    3  A    between atoms: C_9  and  C_16
REMARK    4  A    between atoms: C_10  and  C_15
REMARK    5  A    between atoms: C_18  and  C_21
REMARK    6  A    between atoms: C_19  and  C_22
REMARK                            x       y       z     vdW  Elec       q    Type
REMARK                         _______ _______ _______ _____ _____    ______ ____
ROOT
ATOM      3  N   UNL     1      -5.532 -11.075  10.677  0.00  0.00    -0.297 NA
ATOM      8  C   UNL     1      -3.155 -11.806  11.452  0.00  0.00    +0.002 C 
ATOM      9  C   UNL     1      -4.170 -11.928  12.622  0.00  0.00    +0.055 C 
ATOM     10  C   UNL     1      -4.532 -10.043  10.295  0.00  0.00    +0.074 C 
ATOM     11  C   UNL     1      -3.158 -10.357  10.923  0.00  0.00    +0.024 C 
ATOM     12  C   UNL     1      -3.680 -12.706  10.312  0.00  0.00    +0.019 C 
ATOM     13  C   UNL     1      -5.506 -11.288  12.145  0.00  0.00    +0.094 C 
ATOM     14  C   UNL     1      -5.147 -12.347  10.018  0.00  0.00    +0.085 C 
ENDROOT
BRANCH   9  16
ATOM      5  N   UNL     1      -2.502 -10.918  14.098  0.00  0.00    -0.237 NA
ATOM      6  N   UNL     1      -2.930 -10.511  16.434  0.00  0.00    -0.232 NA
ATOM     16  C   UNL     1      -3.747 -11.426  13.995  0.00  0.00    +0.050 A 
ATOM     17  C   UNL     1      -4.630 -11.510  15.052  0.00  0.00    +0.052 A 
ATOM     18  C   UNL     1      -4.163 -11.032  16.260  0.00  0.00    +0.076 A 
ATOM     19  C   UNL     1      -2.163 -10.485  15.328  0.00  0.00    +0.127 A 
ATOM     22  C   UNL     1      -0.792  -9.918  15.481  0.00  0.00    +0.088 C 
BRANCH  18  21
ATOM      1 BR   UNL     1      -7.019  -9.623  15.962  0.00  0.00    -0.050 Br
ATOM     21  C   UNL     1      -4.989 -11.065  17.443  0.00  0.00    +0.014 A 
ATOM     23  C   UNL     1      -6.261 -10.493  17.473  0.00  0.00    +0.027 A 
ATOM     24  C   UNL     1      -4.478 -11.691  18.581  0.00  0.00    +0.011 A 
ATOM     26  C   UNL     1      -7.023 -10.549  18.640  0.00  0.00    +0.016 A 
ATOM     27  C   UNL     1      -5.241 -11.746  19.747  0.00  0.00    +0.001 A 
ATOM     28  C   UNL     1      -6.513 -11.175  19.777  0.00  0.00    +0.001 A 
ENDBRANCH  18  21
ENDBRANCH   9  16
BRANCH  10  15
ATOM     15  C   UNL     1      -5.002  -8.626  10.628  0.00  0.00    +0.124 C 
BRANCH  15   4
ATOM      2  O   UNL     1      -7.717  -8.721   9.721  0.00  0.00    -0.253 OA
ATOM      4  N   UNL     1      -5.540  -7.980   9.470  0.00  0.00    -0.298 N 
ATOM      7  N   UNL     1      -7.123  -7.341   7.916  0.00  0.00    -0.269 N 
ATOM     20  C   UNL     1      -6.890  -8.072   9.085  0.00  0.00    +0.304 C 
ATOM     34  H   UNL     1      -4.912  -7.431   8.892  0.00  0.00    +0.150 HD
ATOM     35  H   UNL     1      -6.323  -6.859   7.513  0.00  0.00    +0.156 HD
BRANCH   7  25
ATOM     25  C   UNL     1      -8.343  -7.187   7.219  0.00  0.00    +0.035 A 
ATOM     29  C   UNL     1      -9.417  -6.538   7.829  0.00  0.00    +0.023 A 
ATOM     30  C   UNL     1      -8.473  -7.683   5.922  0.00  0.00    +0.023 A 
ATOM     31  C   UNL     1     -10.621  -6.386   7.141  0.00  0.00    +0.002 A 
ATOM     32  C   UNL     1      -9.677  -7.531   5.234  0.00  0.00    +0.002 A 
ATOM     33  C   UNL     1     -10.751  -6.882   5.843  0.00  0.00    +0.000 A 
ENDBRANCH   7  25
ENDBRANCH  15   4
ENDBRANCH  10  15
TORSDOF 5
ENDMDL
MODEL 8
REMARK VINA RESULT:      -7.4     27.597     29.578
REMARK  Name = 40777135
REMARK  6 active torsions:
REMARK  status: ('A' for Active; 'I' for Inactive)
REMARK    1  A    between atoms: N_4  and  C_15
REMARK    2  A    between atoms: N_7  and  C_25
REMARK    3  A    between atoms: C_9  and  C_16
REMARK    4  A    between atoms: C_10  and  C_15
REMARK    5  A    between atoms: C_18  and  C_21
REMARK    6  A    between atoms: C_19  and  C_22
REMARK                            x       y       z     vdW  Elec       q    Type
REMARK                         _______ _______ _______ _____ _____    ______ ____
ROOT
ATOM      3  N   UNL     1      -4.355  -9.727  11.015  0.00  0.00    -0.297 NA
ATOM      8  C   UNL     1      -5.475 -11.195   9.178  0.00  0.00    +0.002 C 
ATOM      9  C   UNL     1      -5.267  -9.744   8.662  0.00  0.00    +0.055 C 
ATOM     10  C   UNL     1      -5.522 -10.451  11.584  0.00  0.00    +0.074 C 
ATOM     11  C   UNL     1      -6.320 -11.160  10.469  0.00  0.00    +0.024 C 
ATOM     12  C   UNL     1      -4.081 -11.736   9.562  0.00  0.00    +0.019 C 
ATOM     13  C   UNL     1      -4.786  -8.888   9.869  0.00  0.00    +0.094 C 
ATOM     14  C   UNL     1      -3.395 -10.739  10.511  0.00  0.00    +0.085 C 
ENDROOT
BRANCH   9  16
ATOM      5  N   UNL     1      -6.489  -9.348   6.581  0.00  0.00    -0.237 NA
ATOM      6  N   UNL     1      -8.426  -7.918   6.481  0.00  0.00    -0.232 NA
ATOM     16  C   UNL     1      -6.406  -9.081   7.901  0.00  0.00    +0.050 A 
ATOM     17  C   UNL     1      -7.282  -8.253   8.573  0.00  0.00    +0.052 A 
ATOM     18  C   UNL     1      -8.283  -7.694   7.804  0.00  0.00    +0.076 A 
ATOM     19  C   UNL     1      -7.508  -8.743   5.942  0.00  0.00    +0.127 A 
ATOM     22  C   UNL     1      -7.632  -9.013   4.480  0.00  0.00    +0.088 C 
BRANCH  18  21
ATOM      1 BR   UNL     1     -10.783  -9.147   9.171  0.00  0.00    -0.050 Br
ATOM     21  C   UNL     1      -9.263  -6.809   8.387  0.00  0.00    +0.014 A 
ATOM     23  C   UNL     1     -10.410  -7.289   9.019  0.00  0.00    +0.027 A 
ATOM     24  C   UNL     1      -9.036  -5.435   8.302  0.00  0.00    +0.011 A 
ATOM     26  C   UNL     1     -11.329  -6.395   9.568  0.00  0.00    +0.016 A 
ATOM     27  C   UNL     1      -9.956  -4.542   8.850  0.00  0.00    +0.001 A 
ATOM     28  C   UNL     1     -11.102  -5.021   9.483  0.00  0.00    +0.001 A 
ENDBRANCH  18  21
ENDBRANCH   9  16
BRANCH  10  15
ATOM     15  C   UNL     1      -6.413  -9.542  12.433  0.00  0.00    +0.124 C 
BRANCH  15   4
ATOM      2  O   UNL     1      -6.814 -11.205  14.730  0.00  0.00    -0.253 OA
ATOM      4  N   UNL     1      -5.853  -9.351  13.736  0.00  0.00    -0.298 N 
ATOM      7  N   UNL     1      -5.419  -9.774  15.962  0.00  0.00    -0.269 N 
ATOM     20  C   UNL     1      -6.096 -10.213  14.820  0.00  0.00    +0.304 C 
ATOM     34  H   UNL     1      -5.253  -8.546  13.886  0.00  0.00    +0.150 HD
ATOM     35  H   UNL     1      -4.864  -8.927  15.867  0.00  0.00    +0.156 HD
BRANCH   7  25
ATOM     25  C   UNL     1      -5.409 -10.367  17.246  0.00  0.00    +0.035 A 
ATOM     29  C   UNL     1      -6.477 -10.156  18.119  0.00  0.00    +0.023 A 
ATOM     30  C   UNL     1      -4.334 -11.163  17.640  0.00  0.00    +0.023 A 
ATOM     31  C   UNL     1      -6.469 -10.741  19.385  0.00  0.00    +0.002 A 
ATOM     32  C   UNL     1      -4.325 -11.747  18.906  0.00  0.00    +0.002 A 
ATOM     33  C   UNL     1      -5.392 -11.537  19.779  0.00  0.00    +0.000 A 
ENDBRANCH   7  25
ENDBRANCH  15   4
ENDBRANCH  10  15
TORSDOF 5
ENDMDL
MODEL 9
REMARK VINA RESULT:      -7.3     27.263     29.753
REMARK  Name = 40777135
REMARK  6 active torsions:
REMARK  status: ('A' for Active; 'I' for Inactive)
REMARK    1  A    between atoms: N_4  and  C_15
REMARK    2  A    between atoms: N_7  and  C_25
REMARK    3  A    between atoms: C_9  and  C_16
REMARK    4  A    between atoms: C_10  and  C_15
REMARK    5  A    between atoms: C_18  and  C_21
REMARK    6  A    between atoms: C_19  and  C_22
REMARK                            x       y       z     vdW  Elec       q    Type
REMARK                         _______ _______ _______ _____ _____    ______ ____
ROOT
ATOM      3  N   UNL     1      -5.177  -9.792  11.612  0.00  0.00    -0.297 NA
ATOM      8  C   UNL     1      -4.361  -9.307   9.188  0.00  0.00    +0.002 C 
ATOM      9  C   UNL     1      -5.280 -10.560   9.211  0.00  0.00    +0.055 C 
ATOM     10  C   UNL     1      -3.702  -9.608  11.600  0.00  0.00    +0.074 C 
ATOM     11  C   UNL     1      -3.176  -9.526  10.151  0.00  0.00    +0.024 C 
ATOM     12  C   UNL     1      -5.193  -8.133   9.750  0.00  0.00    +0.019 C 
ATOM     13  C   UNL     1      -5.559 -10.901  10.703  0.00  0.00    +0.094 C 
ATOM     14  C   UNL     1      -5.796  -8.544  11.104  0.00  0.00    +0.085 C 
ENDROOT
BRANCH   9  16
ATOM      5  N   UNL     1      -4.625 -12.913   9.104  0.00  0.00    -0.237 NA
ATOM      6  N   UNL     1      -4.079 -14.002   7.026  0.00  0.00    -0.232 NA
ATOM     16  C   UNL     1      -4.852 -11.780   8.409  0.00  0.00    +0.050 A 
ATOM     17  C   UNL     1      -4.715 -11.681   7.039  0.00  0.00    +0.052 A 
ATOM     18  C   UNL     1      -4.322 -12.835   6.393  0.00  0.00    +0.076 A 
ATOM     19  C   UNL     1      -4.247 -13.971   8.361  0.00  0.00    +0.127 A 
ATOM     22  C   UNL     1      -3.984 -15.242   9.096  0.00  0.00    +0.088 C 
BRANCH  18  21
ATOM      1 BR   UNL     1      -6.934 -13.592   4.709  0.00  0.00    -0.050 Br
ATOM     21  C   UNL     1      -4.142 -12.863   4.962  0.00  0.00    +0.014 A 
ATOM     23  C   UNL     1      -5.185 -13.176   4.091  0.00  0.00    +0.027 A 
ATOM     24  C   UNL     1      -2.876 -12.565   4.456  0.00  0.00    +0.011 A 
ATOM     26  C   UNL     1      -4.963 -13.190   2.714  0.00  0.00    +0.016 A 
ATOM     27  C   UNL     1      -2.655 -12.579   3.079  0.00  0.00    +0.001 A 
ATOM     28  C   UNL     1      -3.697 -12.892   2.208  0.00  0.00    +0.001 A 
ENDBRANCH  18  21
ENDBRANCH   9  16
BRANCH  10  15
ATOM     15  C   UNL     1      -2.975 -10.681  12.411  0.00  0.00    +0.124 C 
BRANCH  15   4
ATOM      2  O   UNL     1      -4.760 -11.733  14.388  0.00  0.00    -0.253 OA
ATOM      4  N   UNL     1      -2.989 -10.363  13.807  0.00  0.00    -0.298 N 
ATOM      7  N   UNL     1      -3.674 -10.425  16.009  0.00  0.00    -0.269 N 
ATOM     20  C   UNL     1      -3.899 -10.922  14.722  0.00  0.00    +0.304 C 
ATOM     34  H   UNL     1      -2.307  -9.695  14.153  0.00  0.00    +0.150 HD
ATOM     35  H   UNL     1      -2.917  -9.755  16.114  0.00  0.00    +0.156 HD
BRANCH   7  25
ATOM     25  C   UNL     1      -4.376 -10.742  17.195  0.00  0.00    +0.035 A 
ATOM     29  C   UNL     1      -3.802 -11.596  18.138  0.00  0.00    +0.023 A 
ATOM     30  C   UNL     1      -5.641 -10.202  17.424  0.00  0.00    +0.023 A 
ATOM     31  C   UNL     1      -4.493 -11.908  19.308  0.00  0.00    +0.002 A 
ATOM     32  C   UNL     1      -6.333 -10.515  18.594  0.00  0.00    +0.002 A 
ATOM     33  C   UNL     1      -5.760 -11.368  19.536  0.00  0.00    +0.000 A 
ENDBRANCH   7  25
ENDBRANCH  15   4
ENDBRANCH  10  15
TORSDOF 5
ENDMDL
MODEL 10
REMARK VINA RESULT:      -7.2     14.606     18.326
REMARK  Name = 40777135
REMARK  6 active torsions:
REMARK  status: ('A' for Active; 'I' for Inactive)
REMARK    1  A    between atoms: N_4  and  C_15
REMARK    2  A    between atoms: N_7  and  C_25
REMARK    3  A    between atoms: C_9  and  C_16
REMARK    4  A    between atoms: C_10  and  C_15
REMARK    5  A    between atoms: C_18  and  C_21
REMARK    6  A    between atoms: C_19  and  C_22
REMARK                            x       y       z     vdW  Elec       q    Type
REMARK                         _______ _______ _______ _____ _____    ______ ____
ROOT
ATOM      3  N   UNL     1       9.367   5.083   6.386  0.00  0.00    -0.297 NA
ATOM      8  C   UNL     1      10.664   7.255   7.002  0.00  0.00    +0.002 C 
ATOM      9  C   UNL     1       9.145   7.551   6.858  0.00  0.00    +0.055 C 
ATOM     10  C   UNL     1      10.532   5.255   5.478  0.00  0.00    +0.074 C 
ATOM     11  C   UNL     1      11.189   6.635   5.691  0.00  0.00    +0.024 C 
ATOM     12  C   UNL     1      10.806   6.181   8.102  0.00  0.00    +0.019 C 
ATOM     13  C   UNL     1       8.474   6.264   6.297  0.00  0.00    +0.094 C 
ATOM     14  C   UNL     1       9.882   4.996   7.774  0.00  0.00    +0.085 C 
ENDROOT
BRANCH   9  16
ATOM      5  N   UNL     1       9.189   9.978   6.563  0.00  0.00    -0.237 NA
ATOM      6  N   UNL     1       8.003  11.077   4.777  0.00  0.00    -0.232 NA
ATOM     16  C   UNL     1       8.725   8.800   6.098  0.00  0.00    +0.050 A 
ATOM     17  C   UNL     1       7.906   8.681   4.994  0.00  0.00    +0.052 A 
ATOM     18  C   UNL     1       7.574   9.866   4.366  0.00  0.00    +0.076 A 
ATOM     19  C   UNL     1       8.795  11.061   5.865  0.00  0.00    +0.127 A 
ATOM     22  C   UNL     1       9.287  12.382   6.351  0.00  0.00    +0.088 C 
BRANCH  18  21
ATOM      1 BR   UNL     1       9.034   9.157   1.610  0.00  0.00    -0.050 Br
ATOM     21  C   UNL     1       6.723   9.877   3.201  0.00  0.00    +0.014 A 
ATOM     23  C   UNL     1       7.211   9.590   1.926  0.00  0.00    +0.027 A 
ATOM     24  C   UNL     1       5.375  10.190   3.379  0.00  0.00    +0.011 A 
ATOM     26  C   UNL     1       6.350   9.613   0.829  0.00  0.00    +0.016 A 
ATOM     27  C   UNL     1       4.515  10.214   2.281  0.00  0.00    +0.001 A 
ATOM     28  C   UNL     1       5.001   9.926   1.006  0.00  0.00    +0.001 A 
ENDBRANCH  18  21
ENDBRANCH   9  16
BRANCH  10  15
ATOM     15  C   UNL     1      10.167   5.016   4.012  0.00  0.00    +0.124 C 
BRANCH  15   4
ATOM      2  O   UNL     1      11.821   5.906   1.850  0.00  0.00    -0.253 OA
ATOM      4  N   UNL     1      11.186   4.262   3.348  0.00  0.00    -0.298 N 
ATOM      7  N   UNL     1      12.873   3.807   1.841  0.00  0.00    -0.269 N 
ATOM     20  C   UNL     1      11.961   4.767   2.289  0.00  0.00    +0.304 C 
ATOM     34  H   UNL     1      11.354   3.309   3.655  0.00  0.00    +0.150 HD
ATOM     35  H   UNL     1      12.858   2.907   2.315  0.00  0.00    +0.156 HD
BRANCH   7  25
ATOM     25  C   UNL     1      13.821   3.931   0.799  0.00  0.00    +0.035 A 
ATOM     29  C   UNL     1      15.182   3.994   1.100  0.00  0.00    +0.023 A 
ATOM     30  C   UNL     1      13.397   3.990  -0.528  0.00  0.00    +0.023 A 
ATOM     31  C   UNL     1      16.118   4.116   0.073  0.00  0.00    +0.002 A 
ATOM     32  C   UNL     1      14.333   4.113  -1.555  0.00  0.00    +0.002 A 
ATOM     33  C   UNL     1      15.693   4.176  -1.255  0.00  0.00    +0.000 A 
ENDBRANCH   7  25
ENDBRANCH  15   4
ENDBRANCH  10  15
TORSDOF 5
ENDMDL
