MODEL 1
REMARK VINA RESULT:      -6.3      0.000      0.000
REMARK  Name = 38028571
REMARK  15 active torsions:
REMARK  status: ('A' for Active; 'I' for Inactive)
REMARK    1  A    between atoms: O_3  and  C_24
REMARK    2  A    between atoms: O_3  and  C_28
REMARK    3  A    between atoms: O_4  and  C_31
REMARK    4  A    between atoms: N_6  and  C_16
REMARK    5  A    between atoms: N_7  and  C_23
REMARK    6  A    between atoms: C_9  and  C_13
REMARK    7  A    between atoms: C_10  and  C_16
REMARK    8  A    between atoms: C_12  and  C_17
REMARK    9  A    between atoms: C_13  and  C_18
REMARK   10  A    between atoms: C_13  and  C_19
REMARK   11  A    between atoms: C_14  and  C_20
REMARK   12  A    between atoms: C_17  and  C_21
REMARK   13  A    between atoms: C_22  and  C_24
REMARK   14  A    between atoms: C_23  and  C_25
REMARK   15  A    between atoms: C_28  and  C_31
REMARK                            x       y       z     vdW  Elec       q    Type
REMARK                         _______ _______ _______ _____ _____    ______ ____
ROOT
ATOM      9  C   UNL     1      -5.226 -10.551  10.743  0.00  0.00    +0.000 C 
ATOM     10  C   UNL     1      -4.684  -9.603   9.643  0.00  0.00    +0.032 C 
ATOM     11  C   UNL     1      -4.675 -10.145  12.118  0.00  0.00    +0.012 C 
ATOM     12  C   UNL     1      -3.137 -10.176  12.163  0.00  0.00    +0.023 C 
ATOM     14  C   UNL     1      -2.525  -9.486  10.960  0.00  0.00    -0.073 C 
ATOM     15  C   UNL     1      -3.235  -9.226   9.848  0.00  0.00    -0.022 C 
ATOM     20  C   UNL     1      -1.088  -9.060  11.081  0.00  0.00    +0.039 C 
ENDROOT
BRANCH   9  13
ATOM     13  C   UNL     1      -6.757 -10.564  10.779  0.00  0.00    -0.013 C 
ATOM     18  C   UNL     1      -7.253 -11.324  12.004  0.00  0.00    +0.007 C 
ATOM     19  C   UNL     1      -7.302  -9.139  10.770  0.00  0.00    +0.007 C 
ENDBRANCH   9  13
BRANCH  10  16
ATOM     16  C   UNL     1      -4.861 -10.215   8.249  0.00  0.00    +0.112 C 
BRANCH  16   6
ATOM      2  O   UNL     1      -5.907 -10.850   5.628  0.00  0.00    -0.273 OA
ATOM      6  N   UNL     1      -5.727  -9.408   7.447  0.00  0.00    -0.313 N 
ATOM     22  C   UNL     1      -6.186  -9.792   6.188  0.00  0.00    +0.239 C 
ATOM     32  H   UNL     1      -6.067  -8.535   7.838  0.00  0.00    +0.149 HD
BRANCH  22  24
ATOM     24  C   UNL     1      -7.087  -8.748   5.563  0.00  0.00    +0.256 C 
BRANCH  24   3
ATOM      3  O   UNL     1      -8.175  -8.457   6.413  0.00  0.00    -0.359 OA
BRANCH   3  28
ATOM     28  C   UNL     1      -8.473  -7.063   6.437  0.00  0.00    +0.280 C 
BRANCH  28  31
ATOM      5  O   UNL     1      -9.137  -5.994   8.515  0.00  0.00    -0.248 OA
ATOM     31  C   UNL     1      -8.278  -6.525   7.827  0.00  0.00    +0.331 C 
BRANCH  31   4
ATOM      4  O   UNL     1      -6.995  -6.714   8.226  0.00  0.00    -0.479 OA
ATOM     34  H   UNL     1      -6.353  -6.357   7.575  0.00  0.00    +0.295 HD
ENDBRANCH  31   4
ENDBRANCH  28  31
ENDBRANCH   3  28
ENDBRANCH  24   3
ENDBRANCH  22  24
ENDBRANCH  16   6
ENDBRANCH  10  16
BRANCH  12  17
ATOM     17  C   UNL     1      -2.616 -11.611  12.296  0.00  0.00    +0.103 C 
BRANCH  17  21
ATOM      1  O   UNL     1      -2.060 -13.127  14.097  0.00  0.00    -0.276 OA
ATOM      7  N   UNL     1      -2.547 -10.907  14.579  0.00  0.00    -0.311 N 
ATOM     21  C   UNL     1      -2.372 -11.995  13.737  0.00  0.00    +0.214 C 
ATOM     33  H   UNL     1      -2.802 -10.006  14.186  0.00  0.00    +0.149 HD
BRANCH   7  23
ATOM     23  C   UNL     1      -2.380 -10.982  16.013  0.00  0.00    +0.141 C 
BRANCH  23  25
ATOM      8  N   UNL     1      -5.961 -10.030  16.768  0.00  0.00    -0.263 NA
ATOM     25  C   UNL     1      -3.689 -10.857  16.737  0.00  0.00    -0.012 A 
ATOM     26  C   UNL     1      -3.867 -11.414  17.999  0.00  0.00    +0.008 A 
ATOM     27  C   UNL     1      -4.757 -10.181  16.170  0.00  0.00    +0.115 A 
ATOM     29  C   UNL     1      -5.091 -11.281  18.645  0.00  0.00    +0.020 A 
ATOM     30  C   UNL     1      -6.097 -10.585  17.993  0.00  0.00    +0.111 A 
ENDBRANCH  23  25
ENDBRANCH   7  23
ENDBRANCH  17  21
ENDBRANCH  12  17
TORSDOF 12
ENDMDL
MODEL 2
REMARK VINA RESULT:      -6.3      4.151      8.355
REMARK  Name = 38028571
REMARK  15 active torsions:
REMARK  status: ('A' for Active; 'I' for Inactive)
REMARK    1  A    between atoms: O_3  and  C_24
REMARK    2  A    between atoms: O_3  and  C_28
REMARK    3  A    between atoms: O_4  and  C_31
REMARK    4  A    between atoms: N_6  and  C_16
REMARK    5  A    between atoms: N_7  and  C_23
REMARK    6  A    between atoms: C_9  and  C_13
REMARK    7  A    between atoms: C_10  and  C_16
REMARK    8  A    between atoms: C_12  and  C_17
REMARK    9  A    between atoms: C_13  and  C_18
REMARK   10  A    between atoms: C_13  and  C_19
REMARK   11  A    between atoms: C_14  and  C_20
REMARK   12  A    between atoms: C_17  and  C_21
REMARK   13  A    between atoms: C_22  and  C_24
REMARK   14  A    between atoms: C_23  and  C_25
REMARK   15  A    between atoms: C_28  and  C_31
REMARK                            x       y       z     vdW  Elec       q    Type
REMARK                         _______ _______ _______ _____ _____    ______ ____
ROOT
ATOM      9  C   UNL     1      -5.969 -10.511  15.390  0.00  0.00    +0.000 C 
ATOM     10  C   UNL     1      -6.747 -10.527  16.730  0.00  0.00    +0.032 C 
ATOM     11  C   UNL     1      -5.023 -11.718  15.306  0.00  0.00    +0.012 C 
ATOM     12  C   UNL     1      -4.005 -11.744  16.461  0.00  0.00    +0.023 C 
ATOM     14  C   UNL     1      -4.668 -11.498  17.801  0.00  0.00    -0.073 C 
ATOM     15  C   UNL     1      -5.900 -10.966  17.901  0.00  0.00    -0.022 C 
ATOM     20  C   UNL     1      -3.902 -11.920  19.024  0.00  0.00    +0.039 C 
ENDROOT
BRANCH   9  13
ATOM     13  C   UNL     1      -6.912 -10.505  14.184  0.00  0.00    -0.013 C 
ATOM     18  C   UNL     1      -6.153 -10.127  12.917  0.00  0.00    +0.007 C 
ATOM     19  C   UNL     1      -7.585 -11.864  14.027  0.00  0.00    +0.007 C 
ENDBRANCH   9  13
BRANCH  10  16
ATOM     16  C   UNL     1      -7.362  -9.156  17.030  0.00  0.00    +0.112 C 
BRANCH  16   6
ATOM      2  O   UNL     1      -9.814  -9.148  15.496  0.00  0.00    -0.273 OA
ATOM      6  N   UNL     1      -8.694  -9.295  17.530  0.00  0.00    -0.313 N 
ATOM     22  C   UNL     1      -9.826  -9.280  16.717  0.00  0.00    +0.239 C 
ATOM     32  H   UNL     1      -8.816  -9.468  18.524  0.00  0.00    +0.149 HD
BRANCH  22  24
ATOM     24  C   UNL     1     -11.104  -9.448  17.510  0.00  0.00    +0.256 C 
BRANCH  24   3
ATOM      3  O   UNL     1     -10.855  -9.309  18.892  0.00  0.00    -0.359 OA
BRANCH   3  28
ATOM     28  C   UNL     1     -11.364 -10.412  19.637  0.00  0.00    +0.280 C 
BRANCH  28  31
ATOM      5  O   UNL     1     -10.294 -12.443  20.434  0.00  0.00    -0.248 OA
ATOM     31  C   UNL     1     -10.226 -11.261  20.130  0.00  0.00    +0.331 C 
BRANCH  31   4
ATOM      4  O   UNL     1      -9.086 -10.527  20.192  0.00  0.00    -0.479 OA
ATOM     34  H   UNL     1      -8.704 -10.370  19.302  0.00  0.00    +0.295 HD
ENDBRANCH  31   4
ENDBRANCH  28  31
ENDBRANCH   3  28
ENDBRANCH  24   3
ENDBRANCH  22  24
ENDBRANCH  16   6
ENDBRANCH  10  16
BRANCH  12  17
ATOM     17  C   UNL     1      -2.869 -10.744  16.219  0.00  0.00    +0.103 C 
BRANCH  17  21
ATOM      1  O   UNL     1      -1.386 -12.074  14.848  0.00  0.00    -0.276 OA
ATOM      7  N   UNL     1      -2.254 -10.091  14.004  0.00  0.00    -0.311 N 
ATOM     21  C   UNL     1      -2.081 -11.070  14.971  0.00  0.00    +0.214 C 
ATOM     33  H   UNL     1      -2.854  -9.296  14.198  0.00  0.00    +0.149 HD
BRANCH   7  23
ATOM     23  C   UNL     1      -1.616 -10.140  12.708  0.00  0.00    +0.141 C 
BRANCH  23  25
ATOM      8  N   UNL     1      -3.860 -10.040   9.666  0.00  0.00    -0.263 NA
ATOM     25  C   UNL     1      -2.564 -10.587  11.633  0.00  0.00    -0.012 A 
ATOM     26  C   UNL     1      -3.029 -11.896  11.584  0.00  0.00    +0.008 A 
ATOM     27  C   UNL     1      -3.007  -9.705  10.659  0.00  0.00    +0.115 A 
ATOM     29  C   UNL     1      -3.907 -12.280  10.576  0.00  0.00    +0.020 A 
ATOM     30  C   UNL     1      -4.289 -11.322   9.650  0.00  0.00    +0.111 A 
ENDBRANCH  23  25
ENDBRANCH   7  23
ENDBRANCH  17  21
ENDBRANCH  12  17
TORSDOF 12
ENDMDL
MODEL 3
REMARK VINA RESULT:      -6.1      4.033      7.554
REMARK  Name = 38028571
REMARK  15 active torsions:
REMARK  status: ('A' for Active; 'I' for Inactive)
REMARK    1  A    between atoms: O_3  and  C_24
REMARK    2  A    between atoms: O_3  and  C_28
REMARK    3  A    between atoms: O_4  and  C_31
REMARK    4  A    between atoms: N_6  and  C_16
REMARK    5  A    between atoms: N_7  and  C_23
REMARK    6  A    between atoms: C_9  and  C_13
REMARK    7  A    between atoms: C_10  and  C_16
REMARK    8  A    between atoms: C_12  and  C_17
REMARK    9  A    between atoms: C_13  and  C_18
REMARK   10  A    between atoms: C_13  and  C_19
REMARK   11  A    between atoms: C_14  and  C_20
REMARK   12  A    between atoms: C_17  and  C_21
REMARK   13  A    between atoms: C_22  and  C_24
REMARK   14  A    between atoms: C_23  and  C_25
REMARK   15  A    between atoms: C_28  and  C_31
REMARK                            x       y       z     vdW  Elec       q    Type
REMARK                         _______ _______ _______ _____ _____    ______ ____
ROOT
ATOM      9  C   UNL     1      -6.005 -10.316  15.350  0.00  0.00    +0.000 C 
ATOM     10  C   UNL     1      -6.823 -10.468  16.657  0.00  0.00    +0.032 C 
ATOM     11  C   UNL     1      -5.011 -11.478  15.202  0.00  0.00    +0.012 C 
ATOM     12  C   UNL     1      -4.030 -11.560  16.385  0.00  0.00    +0.023 C 
ATOM     14  C   UNL     1      -4.743 -11.446  17.717  0.00  0.00    -0.073 C 
ATOM     15  C   UNL     1      -5.996 -10.969  17.818  0.00  0.00    -0.022 C 
ATOM     20  C   UNL     1      -4.000 -11.937  18.929  0.00  0.00    +0.039 C 
ENDROOT
BRANCH   9  13
ATOM     13  C   UNL     1      -6.911 -10.247  14.116  0.00  0.00    -0.013 C 
ATOM     18  C   UNL     1      -6.117  -9.782  12.900  0.00  0.00    +0.007 C 
ATOM     19  C   UNL     1      -7.558 -11.603  13.854  0.00  0.00    +0.007 C 
ENDBRANCH   9  13
BRANCH  10  16
ATOM     16  C   UNL     1      -7.500  -9.148  17.042  0.00  0.00    +0.112 C 
BRANCH  16   6
ATOM      2  O   UNL     1      -9.652 -10.092  18.729  0.00  0.00    -0.273 OA
ATOM      6  N   UNL     1      -8.894  -9.180  16.726  0.00  0.00    -0.313 N 
ATOM     22  C   UNL     1      -9.869  -9.655  17.602  0.00  0.00    +0.239 C 
ATOM     32  H   UNL     1      -9.193  -8.788  15.838  0.00  0.00    +0.149 HD
BRANCH  22  24
ATOM     24  C   UNL     1     -11.260  -9.573  17.010  0.00  0.00    +0.256 C 
BRANCH  24   3
ATOM      3  O   UNL     1     -11.688  -8.230  16.927  0.00  0.00    -0.359 OA
BRANCH   3  28
ATOM     28  C   UNL     1     -11.909  -7.825  15.579  0.00  0.00    +0.280 C 
BRANCH  28  31
ATOM      5  O   UNL     1     -11.733  -5.496  14.911  0.00  0.00    -0.248 OA
ATOM     31  C   UNL     1     -11.208  -6.521  15.318  0.00  0.00    +0.331 C 
BRANCH  31   4
ATOM      4  O   UNL     1      -9.886  -6.636  15.604  0.00  0.00    -0.479 OA
ATOM     34  H   UNL     1      -9.654  -6.192  16.448  0.00  0.00    +0.295 HD
ENDBRANCH  31   4
ENDBRANCH  28  31
ENDBRANCH   3  28
ENDBRANCH  24   3
ENDBRANCH  22  24
ENDBRANCH  16   6
ENDBRANCH  10  16
BRANCH  12  17
ATOM     17  C   UNL     1      -2.926 -10.504  16.262  0.00  0.00    +0.103 C 
BRANCH  17  21
ATOM      1  O   UNL     1      -0.982 -11.516  15.240  0.00  0.00    -0.276 OA
ATOM      7  N   UNL     1      -2.380 -10.174  13.959  0.00  0.00    -0.311 N 
ATOM     21  C   UNL     1      -1.976 -10.805  15.126  0.00  0.00    +0.214 C 
ATOM     33  H   UNL     1      -3.222  -9.606  13.962  0.00  0.00    +0.149 HD
BRANCH   7  23
ATOM     23  C   UNL     1      -1.658 -10.282  12.711  0.00  0.00    +0.141 C 
BRANCH  23  25
ATOM      8  N   UNL     1      -4.040 -11.863  10.236  0.00  0.00    -0.263 NA
ATOM     25  C   UNL     1      -2.583 -10.440  11.539  0.00  0.00    -0.012 A 
ATOM     26  C   UNL     1      -2.847  -9.375  10.686  0.00  0.00    +0.008 A 
ATOM     27  C   UNL     1      -3.199 -11.652  11.273  0.00  0.00    +0.115 A 
ATOM     29  C   UNL     1      -3.708  -9.552   9.608  0.00  0.00    +0.020 A 
ATOM     30  C   UNL     1      -4.273 -10.804   9.428  0.00  0.00    +0.111 A 
ENDBRANCH  23  25
ENDBRANCH   7  23
ENDBRANCH  17  21
ENDBRANCH  12  17
TORSDOF 12
ENDMDL
MODEL 4
REMARK VINA RESULT:      -6.1     27.100     29.745
REMARK  Name = 38028571
REMARK  15 active torsions:
REMARK  status: ('A' for Active; 'I' for Inactive)
REMARK    1  A    between atoms: O_3  and  C_24
REMARK    2  A    between atoms: O_3  and  C_28
REMARK    3  A    between atoms: O_4  and  C_31
REMARK    4  A    between atoms: N_6  and  C_16
REMARK    5  A    between atoms: N_7  and  C_23
REMARK    6  A    between atoms: C_9  and  C_13
REMARK    7  A    between atoms: C_10  and  C_16
REMARK    8  A    between atoms: C_12  and  C_17
REMARK    9  A    between atoms: C_13  and  C_18
REMARK   10  A    between atoms: C_13  and  C_19
REMARK   11  A    between atoms: C_14  and  C_20
REMARK   12  A    between atoms: C_17  and  C_21
REMARK   13  A    between atoms: C_22  and  C_24
REMARK   14  A    between atoms: C_23  and  C_25
REMARK   15  A    between atoms: C_28  and  C_31
REMARK                            x       y       z     vdW  Elec       q    Type
REMARK                         _______ _______ _______ _____ _____    ______ ____
ROOT
ATOM      9  C   UNL     1      12.046  11.927  23.317  0.00  0.00    +0.000 C 
ATOM     10  C   UNL     1      11.488  11.305  22.012  0.00  0.00    +0.032 C 
ATOM     11  C   UNL     1      13.125  12.971  22.994  0.00  0.00    +0.012 C 
ATOM     12  C   UNL     1      14.299  12.370  22.200  0.00  0.00    +0.023 C 
ATOM     14  C   UNL     1      13.818  11.516  21.044  0.00  0.00    -0.073 C 
ATOM     15  C   UNL     1      12.555  11.060  20.971  0.00  0.00    -0.022 C 
ATOM     20  C   UNL     1      14.811  11.234  19.950  0.00  0.00    +0.039 C 
ENDROOT
BRANCH   9  13
ATOM     13  C   UNL     1      10.939  12.568  24.160  0.00  0.00    -0.013 C 
ATOM     18  C   UNL     1      11.497  13.043  25.497  0.00  0.00    +0.007 C 
ATOM     19  C   UNL     1      10.294  13.723  23.402  0.00  0.00    +0.007 C 
ENDBRANCH   9  13
BRANCH  10  16
ATOM     16  C   UNL     1      10.742   9.997  22.298  0.00  0.00    +0.112 C 
BRANCH  16   6
ATOM      2  O   UNL     1       9.919   7.224  22.328  0.00  0.00    -0.273 OA
ATOM      6  N   UNL     1      11.451   8.880  21.754  0.00  0.00    -0.313 N 
ATOM     22  C   UNL     1      10.979   7.570  21.813  0.00  0.00    +0.239 C 
ATOM     32  H   UNL     1      12.315   9.060  21.252  0.00  0.00    +0.149 HD
BRANCH  22  24
ATOM     24  C   UNL     1      11.929   6.589  21.159  0.00  0.00    +0.256 C 
BRANCH  24   3
ATOM      3  O   UNL     1      13.083   7.251  20.688  0.00  0.00    -0.359 OA
BRANCH   3  28
ATOM     28  C   UNL     1      13.349   6.949  19.321  0.00  0.00    +0.280 C 
BRANCH  28  31
ATOM      5  O   UNL     1      12.096   8.898  18.589  0.00  0.00    -0.248 OA
ATOM     31  C   UNL     1      12.416   7.728  18.437  0.00  0.00    +0.331 C 
BRANCH  31   4
ATOM      4  O   UNL     1      11.968   6.945  17.423  0.00  0.00    -0.479 OA
ATOM     34  H   UNL     1      11.931   7.432  16.573  0.00  0.00    +0.295 HD
ENDBRANCH  31   4
ENDBRANCH  28  31
ENDBRANCH   3  28
ENDBRANCH  24   3
ENDBRANCH  22  24
ENDBRANCH  16   6
ENDBRANCH  10  16
BRANCH  12  17
ATOM     17  C   UNL     1      15.237  11.576  23.116  0.00  0.00    +0.103 C 
BRANCH  17  21
ATOM      1  O   UNL     1      17.319  12.503  22.306  0.00  0.00    -0.276 OA
ATOM      7  N   UNL     1      17.057  10.197  22.411  0.00  0.00    -0.311 N 
ATOM     21  C   UNL     1      16.645  11.512  22.569  0.00  0.00    +0.214 C 
ATOM     33  H   UNL     1      16.427   9.440  22.661  0.00  0.00    +0.149 HD
BRANCH   7  23
ATOM     23  C   UNL     1      18.361   9.833  21.904  0.00  0.00    +0.141 C 
BRANCH  23  25
ATOM      8  N   UNL     1      19.567   6.463  20.685  0.00  0.00    -0.263 NA
ATOM     25  C   UNL     1      18.356   8.473  21.268  0.00  0.00    -0.012 A 
ATOM     26  C   UNL     1      17.204   7.956  20.687  0.00  0.00    +0.008 A 
ATOM     27  C   UNL     1      19.502   7.693  21.241  0.00  0.00    +0.115 A 
ATOM     29  C   UNL     1      17.231   6.694  20.106  0.00  0.00    +0.020 A 
ATOM     30  C   UNL     1      18.427   5.994  20.130  0.00  0.00    +0.111 A 
ENDBRANCH  23  25
ENDBRANCH   7  23
ENDBRANCH  17  21
ENDBRANCH  12  17
TORSDOF 12
ENDMDL
MODEL 5
REMARK VINA RESULT:      -6.0     27.719     30.435
REMARK  Name = 38028571
REMARK  15 active torsions:
REMARK  status: ('A' for Active; 'I' for Inactive)
REMARK    1  A    between atoms: O_3  and  C_24
REMARK    2  A    between atoms: O_3  and  C_28
REMARK    3  A    between atoms: O_4  and  C_31
REMARK    4  A    between atoms: N_6  and  C_16
REMARK    5  A    between atoms: N_7  and  C_23
REMARK    6  A    between atoms: C_9  and  C_13
REMARK    7  A    between atoms: C_10  and  C_16
REMARK    8  A    between atoms: C_12  and  C_17
REMARK    9  A    between atoms: C_13  and  C_18
REMARK   10  A    between atoms: C_13  and  C_19
REMARK   11  A    between atoms: C_14  and  C_20
REMARK   12  A    between atoms: C_17  and  C_21
REMARK   13  A    between atoms: C_22  and  C_24
REMARK   14  A    between atoms: C_23  and  C_25
REMARK   15  A    between atoms: C_28  and  C_31
REMARK                            x       y       z     vdW  Elec       q    Type
REMARK                         _______ _______ _______ _____ _____    ______ ____
ROOT
ATOM      9  C   UNL     1      17.130   8.063  21.197  0.00  0.00    +0.000 C 
ATOM     10  C   UNL     1      16.707   7.060  20.095  0.00  0.00    +0.032 C 
ATOM     11  C   UNL     1      18.634   8.362  21.100  0.00  0.00    +0.012 C 
ATOM     12  C   UNL     1      19.492   7.091  21.240  0.00  0.00    +0.023 C 
ATOM     14  C   UNL     1      18.971   5.962  20.375  0.00  0.00    -0.073 C 
ATOM     15  C   UNL     1      17.728   5.971  19.861  0.00  0.00    -0.022 C 
ATOM     20  C   UNL     1      19.927   4.840  20.075  0.00  0.00    +0.039 C 
ENDROOT
BRANCH   9  13
ATOM     13  C   UNL     1      16.335   9.368  21.115  0.00  0.00    -0.013 C 
ATOM     18  C   UNL     1      15.341   9.459  22.268  0.00  0.00    +0.007 C 
ATOM     19  C   UNL     1      17.277  10.568  21.118  0.00  0.00    +0.007 C 
ENDBRANCH   9  13
BRANCH  10  16
ATOM     16  C   UNL     1      15.349   6.426  20.415  0.00  0.00    +0.112 C 
BRANCH  16   6
ATOM      2  O   UNL     1      12.942   8.013  20.172  0.00  0.00    -0.273 OA
ATOM      6  N   UNL     1      14.475   6.501  19.286  0.00  0.00    -0.313 N 
ATOM     22  C   UNL     1      13.329   7.296  19.254  0.00  0.00    +0.239 C 
ATOM     32  H   UNL     1      14.732   5.991  18.447  0.00  0.00    +0.149 HD
BRANCH  22  24
ATOM     24  C   UNL     1      12.592   7.184  17.936  0.00  0.00    +0.256 C 
BRANCH  24   3
ATOM      3  O   UNL     1      13.333   7.788  16.898  0.00  0.00    -0.359 OA
BRANCH   3  28
ATOM     28  C   UNL     1      13.006   9.167  16.744  0.00  0.00    +0.280 C 
BRANCH  28  31
ATOM      5  O   UNL     1      10.969   8.623  15.536  0.00  0.00    -0.248 OA
ATOM     31  C   UNL     1      11.959   9.326  15.677  0.00  0.00    +0.331 C 
BRANCH  31   4
ATOM      4  O   UNL     1      12.265  10.377  14.875  0.00  0.00    -0.479 OA
ATOM     34  H   UNL     1      13.230  10.553  14.855  0.00  0.00    +0.295 HD
ENDBRANCH  31   4
ENDBRANCH  28  31
ENDBRANCH   3  28
ENDBRANCH  24   3
ENDBRANCH  22  24
ENDBRANCH  16   6
ENDBRANCH  10  16
BRANCH  12  17
ATOM     17  C   UNL     1      19.599   6.656  22.705  0.00  0.00    +0.103 C 
BRANCH  17  21
ATOM      1  O   UNL     1      21.368   6.081  24.252  0.00  0.00    -0.276 OA
ATOM      7  N   UNL     1      21.909   6.940  22.162  0.00  0.00    -0.311 N 
ATOM     21  C   UNL     1      21.036   6.516  23.153  0.00  0.00    +0.214 C 
ATOM     33  H   UNL     1      21.539   7.282  21.281  0.00  0.00    +0.149 HD
BRANCH   7  23
ATOM     23  C   UNL     1      23.347   6.921  22.315  0.00  0.00    +0.141 C 
BRANCH  23  25
ATOM      8  N   UNL     1      25.455   3.783  22.369  0.00  0.00    -0.263 NA
ATOM     25  C   UNL     1      23.938   5.606  21.898  0.00  0.00    -0.012 A 
ATOM     26  C   UNL     1      23.559   4.993  20.710  0.00  0.00    +0.008 A 
ATOM     27  C   UNL     1      24.882   4.966  22.685  0.00  0.00    +0.115 A 
ATOM     29  C   UNL     1      24.125   3.775  20.350  0.00  0.00    +0.020 A 
ATOM     30  C   UNL     1      25.061   3.217  21.206  0.00  0.00    +0.111 A 
ENDBRANCH  23  25
ENDBRANCH   7  23
ENDBRANCH  17  21
ENDBRANCH  12  17
TORSDOF 12
ENDMDL
MODEL 6
REMARK VINA RESULT:      -5.9     27.007     29.867
REMARK  Name = 38028571
REMARK  15 active torsions:
REMARK  status: ('A' for Active; 'I' for Inactive)
REMARK    1  A    between atoms: O_3  and  C_24
REMARK    2  A    between atoms: O_3  and  C_28
REMARK    3  A    between atoms: O_4  and  C_31
REMARK    4  A    between atoms: N_6  and  C_16
REMARK    5  A    between atoms: N_7  and  C_23
REMARK    6  A    between atoms: C_9  and  C_13
REMARK    7  A    between atoms: C_10  and  C_16
REMARK    8  A    between atoms: C_12  and  C_17
REMARK    9  A    between atoms: C_13  and  C_18
REMARK   10  A    between atoms: C_13  and  C_19
REMARK   11  A    between atoms: C_14  and  C_20
REMARK   12  A    between atoms: C_17  and  C_21
REMARK   13  A    between atoms: C_22  and  C_24
REMARK   14  A    between atoms: C_23  and  C_25
REMARK   15  A    between atoms: C_28  and  C_31
REMARK                            x       y       z     vdW  Elec       q    Type
REMARK                         _______ _______ _______ _____ _____    ______ ____
ROOT
ATOM      9  C   UNL     1      13.318   8.861  19.530  0.00  0.00    +0.000 C 
ATOM     10  C   UNL     1      13.493   8.118  18.181  0.00  0.00    +0.032 C 
ATOM     11  C   UNL     1      12.877  10.312  19.287  0.00  0.00    +0.012 C 
ATOM     12  C   UNL     1      13.888  11.093  18.428  0.00  0.00    +0.023 C 
ATOM     14  C   UNL     1      14.317  10.304  17.207  0.00  0.00    -0.073 C 
ATOM     15  C   UNL     1      14.120   8.977  17.109  0.00  0.00    -0.022 C 
ATOM     20  C   UNL     1      14.936  11.083  16.080  0.00  0.00    +0.039 C 
ENDROOT
BRANCH   9  13
ATOM     13  C   UNL     1      12.307   8.156  20.440  0.00  0.00    -0.013 C 
ATOM     18  C   UNL     1      12.785   8.187  21.888  0.00  0.00    +0.007 C 
ATOM     19  C   UNL     1      10.933   8.803  20.311  0.00  0.00    +0.007 C 
ENDBRANCH   9  13
BRANCH  10  16
ATOM     16  C   UNL     1      14.319   6.838  18.358  0.00  0.00    +0.112 C 
BRANCH  16   6
ATOM      2  O   UNL     1      16.875   5.484  18.368  0.00  0.00    -0.273 OA
ATOM      6  N   UNL     1      15.409   7.058  19.257  0.00  0.00    -0.313 N 
ATOM     22  C   UNL     1      16.612   6.357  19.190  0.00  0.00    +0.239 C 
ATOM     32  H   UNL     1      15.321   7.801  19.944  0.00  0.00    +0.149 HD
BRANCH  22  24
ATOM     24  C   UNL     1      17.589   6.793  20.262  0.00  0.00    +0.256 C 
BRANCH  24   3
ATOM      3  O   UNL     1      18.645   5.864  20.381  0.00  0.00    -0.359 OA
BRANCH   3  28
ATOM     28  C   UNL     1      19.871   6.496  20.738  0.00  0.00    +0.280 C 
BRANCH  28  31
ATOM      5  O   UNL     1      21.522   5.230  21.992  0.00  0.00    -0.248 OA
ATOM     31  C   UNL     1      20.938   5.457  20.943  0.00  0.00    +0.331 C 
BRANCH  31   4
ATOM      4  O   UNL     1      21.171   4.790  19.784  0.00  0.00    -0.479 OA
ATOM     34  H   UNL     1      21.614   5.358  19.118  0.00  0.00    +0.295 HD
ENDBRANCH  31   4
ENDBRANCH  28  31
ENDBRANCH   3  28
ENDBRANCH  24   3
ENDBRANCH  22  24
ENDBRANCH  16   6
ENDBRANCH  10  16
BRANCH  12  17
ATOM     17  C   UNL     1      15.103  11.523  19.257  0.00  0.00    +0.103 C 
BRANCH  17  21
ATOM      1  O   UNL     1      14.369  13.663  20.112  0.00  0.00    -0.276 OA
ATOM      7  N   UNL     1      14.858  11.944  21.597  0.00  0.00    -0.311 N 
ATOM     21  C   UNL     1      14.732  12.512  20.338  0.00  0.00    +0.214 C 
ATOM     33  H   UNL     1      15.163  10.979  21.683  0.00  0.00    +0.149 HD
BRANCH   7  23
ATOM     23  C   UNL     1      14.571  12.660  22.819  0.00  0.00    +0.141 C 
BRANCH  23  25
ATOM      8  N   UNL     1      12.095  11.712  25.516  0.00  0.00    -0.263 NA
ATOM     25  C   UNL     1      13.316  12.165  23.479  0.00  0.00    -0.012 A 
ATOM     26  C   UNL     1      12.241  11.710  22.724  0.00  0.00    +0.008 A 
ATOM     27  C   UNL     1      13.194  12.146  24.859  0.00  0.00    +0.115 A 
ATOM     29  C   UNL     1      11.092  11.257  23.363  0.00  0.00    +0.020 A 
ATOM     30  C   UNL     1      11.070  11.278  24.749  0.00  0.00    +0.111 A 
ENDBRANCH  23  25
ENDBRANCH   7  23
ENDBRANCH  17  21
ENDBRANCH  12  17
TORSDOF 12
ENDMDL
MODEL 7
REMARK VINA RESULT:      -5.8     22.470     25.949
REMARK  Name = 38028571
REMARK  15 active torsions:
REMARK  status: ('A' for Active; 'I' for Inactive)
REMARK    1  A    between atoms: O_3  and  C_24
REMARK    2  A    between atoms: O_3  and  C_28
REMARK    3  A    between atoms: O_4  and  C_31
REMARK    4  A    between atoms: N_6  and  C_16
REMARK    5  A    between atoms: N_7  and  C_23
REMARK    6  A    between atoms: C_9  and  C_13
REMARK    7  A    between atoms: C_10  and  C_16
REMARK    8  A    between atoms: C_12  and  C_17
REMARK    9  A    between atoms: C_13  and  C_18
REMARK   10  A    between atoms: C_13  and  C_19
REMARK   11  A    between atoms: C_14  and  C_20
REMARK   12  A    between atoms: C_17  and  C_21
REMARK   13  A    between atoms: C_22  and  C_24
REMARK   14  A    between atoms: C_23  and  C_25
REMARK   15  A    between atoms: C_28  and  C_31
REMARK                            x       y       z     vdW  Elec       q    Type
REMARK                         _______ _______ _______ _____ _____    ______ ____
ROOT
ATOM      9  C   UNL     1      12.629   7.672   2.536  0.00  0.00    +0.000 C 
ATOM     10  C   UNL     1      12.127   9.028   3.092  0.00  0.00    +0.032 C 
ATOM     11  C   UNL     1      11.714   7.186   1.402  0.00  0.00    +0.012 C 
ATOM     12  C   UNL     1      10.255   7.015   1.863  0.00  0.00    +0.023 C 
ATOM     14  C   UNL     1       9.771   8.211   2.657  0.00  0.00    -0.073 C 
ATOM     15  C   UNL     1      10.621   9.108   3.187  0.00  0.00    -0.022 C 
ATOM     20  C   UNL     1       8.282   8.380   2.789  0.00  0.00    +0.039 C 
ENDROOT
BRANCH   9  13
ATOM     13  C   UNL     1      14.074   7.762   2.035  0.00  0.00    -0.013 C 
ATOM     18  C   UNL     1      14.983   6.866   2.869  0.00  0.00    +0.007 C 
ATOM     19  C   UNL     1      14.150   7.386   0.559  0.00  0.00    +0.007 C 
ENDBRANCH   9  13
BRANCH  10  16
ATOM     16  C   UNL     1      12.742   9.324   4.465  0.00  0.00    +0.112 C 
BRANCH  16   6
ATOM      2  O   UNL     1      12.588   7.068   6.267  0.00  0.00    -0.273 OA
ATOM      6  N   UNL     1      11.785   9.115   5.506  0.00  0.00    -0.313 N 
ATOM     22  C   UNL     1      11.783   7.993   6.333  0.00  0.00    +0.239 C 
ATOM     32  H   UNL     1      11.105   9.848   5.686  0.00  0.00    +0.149 HD
BRANCH  22  24
ATOM     24  C   UNL     1      10.660   8.030   7.347  0.00  0.00    +0.256 C 
BRANCH  24   3
ATOM      3  O   UNL     1      10.631   6.839   8.104  0.00  0.00    -0.359 OA
BRANCH   3  28
ATOM     28  C   UNL     1       9.484   6.048   7.808  0.00  0.00    +0.280 C 
BRANCH  28  31
ATOM      5  O   UNL     1       9.836   4.451   6.011  0.00  0.00    -0.248 OA
ATOM     31  C   UNL     1       9.910   4.743   7.195  0.00  0.00    +0.331 C 
BRANCH  31   4
ATOM      4  O   UNL     1      10.402   3.916   8.152  0.00  0.00    -0.479 OA
ATOM     34  H   UNL     1       9.731   3.710   8.837  0.00  0.00    +0.295 HD
ENDBRANCH  31   4
ENDBRANCH  28  31
ENDBRANCH   3  28
ENDBRANCH  24   3
ENDBRANCH  22  24
ENDBRANCH  16   6
ENDBRANCH  10  16
BRANCH  12  17
ATOM     17  C   UNL     1      10.076   5.718   2.661  0.00  0.00    +0.103 C 
BRANCH  17  21
ATOM      1  O   UNL     1      10.030   3.962   0.998  0.00  0.00    -0.276 OA
ATOM      7  N   UNL     1      11.855   4.139   2.426  0.00  0.00    -0.311 N 
ATOM     21  C   UNL     1      10.619   4.517   1.921  0.00  0.00    +0.214 C 
ATOM     33  H   UNL     1      12.265   4.664   3.192  0.00  0.00    +0.149 HD
BRANCH   7  23
ATOM     23  C   UNL     1      12.609   3.019   1.911  0.00  0.00    +0.141 C 
BRANCH  23  25
ATOM      8  N   UNL     1      15.929   3.995   0.386  0.00  0.00    -0.263 NA
ATOM     25  C   UNL     1      13.630   3.447   0.897  0.00  0.00    -0.012 A 
ATOM     26  C   UNL     1      13.270   3.695  -0.423  0.00  0.00    +0.008 A 
ATOM     27  C   UNL     1      14.960   3.611   1.248  0.00  0.00    +0.115 A 
ATOM     29  C   UNL     1      14.237   4.092  -1.339  0.00  0.00    +0.020 A 
ATOM     30  C   UNL     1      15.541   4.227  -0.888  0.00  0.00    +0.111 A 
ENDBRANCH  23  25
ENDBRANCH   7  23
ENDBRANCH  17  21
ENDBRANCH  12  17
TORSDOF 12
ENDMDL
MODEL 8
REMARK VINA RESULT:      -5.8     22.498     25.878
REMARK  Name = 38028571
REMARK  15 active torsions:
REMARK  status: ('A' for Active; 'I' for Inactive)
REMARK    1  A    between atoms: O_3  and  C_24
REMARK    2  A    between atoms: O_3  and  C_28
REMARK    3  A    between atoms: O_4  and  C_31
REMARK    4  A    between atoms: N_6  and  C_16
REMARK    5  A    between atoms: N_7  and  C_23
REMARK    6  A    between atoms: C_9  and  C_13
REMARK    7  A    between atoms: C_10  and  C_16
REMARK    8  A    between atoms: C_12  and  C_17
REMARK    9  A    between atoms: C_13  and  C_18
REMARK   10  A    between atoms: C_13  and  C_19
REMARK   11  A    between atoms: C_14  and  C_20
REMARK   12  A    between atoms: C_17  and  C_21
REMARK   13  A    between atoms: C_22  and  C_24
REMARK   14  A    between atoms: C_23  and  C_25
REMARK   15  A    between atoms: C_28  and  C_31
REMARK                            x       y       z     vdW  Elec       q    Type
REMARK                         _______ _______ _______ _____ _____    ______ ____
ROOT
ATOM      9  C   UNL     1       8.781   8.637   5.080  0.00  0.00    +0.000 C 
ATOM     10  C   UNL     1       8.708   8.183   6.559  0.00  0.00    +0.032 C 
ATOM     11  C   UNL     1       8.302   7.511   4.150  0.00  0.00    +0.012 C 
ATOM     12  C   UNL     1       9.138   6.229   4.309  0.00  0.00    +0.023 C 
ATOM     14  C   UNL     1       9.338   5.863   5.766  0.00  0.00    -0.073 C 
ATOM     15  C   UNL     1       9.128   6.746   6.759  0.00  0.00    -0.022 C 
ATOM     20  C   UNL     1       9.741   4.445   6.060  0.00  0.00    +0.039 C 
ENDROOT
BRANCH   9  13
ATOM     13  C   UNL     1       7.954   9.902   4.831  0.00  0.00    -0.013 C 
ATOM     18  C   UNL     1       8.842  11.021   4.298  0.00  0.00    +0.007 C 
ATOM     19  C   UNL     1       6.812   9.611   3.864  0.00  0.00    +0.007 C 
ENDBRANCH   9  13
BRANCH  10  16
ATOM     16  C   UNL     1       9.554   9.092   7.459  0.00  0.00    +0.112 C 
BRANCH  16   6
ATOM      2  O   UNL     1      11.720  10.568   6.237  0.00  0.00    -0.273 OA
ATOM      6  N   UNL     1      10.932   8.717   7.407  0.00  0.00    -0.313 N 
ATOM     22  C   UNL     1      11.916   9.491   6.794  0.00  0.00    +0.239 C 
ATOM     32  H   UNL     1      11.216   7.868   7.888  0.00  0.00    +0.149 HD
BRANCH  22  24
ATOM     24  C   UNL     1      13.287   8.855   6.888  0.00  0.00    +0.256 C 
BRANCH  24   3
ATOM      3  O   UNL     1      13.925   8.859   5.630  0.00  0.00    -0.359 OA
BRANCH   3  28
ATOM     28  C   UNL     1      14.060   7.543   5.098  0.00  0.00    +0.280 C 
BRANCH  28  31
ATOM      5  O   UNL     1      16.433   8.031   4.915  0.00  0.00    -0.248 OA
ATOM     31  C   UNL     1      15.476   7.319   4.648  0.00  0.00    +0.331 C 
BRANCH  31   4
ATOM      4  O   UNL     1      15.554   6.195   3.891  0.00  0.00    -0.479 OA
ATOM     34  H   UNL     1      15.716   6.402   2.945  0.00  0.00    +0.295 HD
ENDBRANCH  31   4
ENDBRANCH  28  31
ENDBRANCH   3  28
ENDBRANCH  24   3
ENDBRANCH  22  24
ENDBRANCH  16   6
ENDBRANCH  10  16
BRANCH  12  17
ATOM     17  C   UNL     1      10.484   6.353   3.586  0.00  0.00    +0.103 C 
BRANCH  17  21
ATOM      1  O   UNL     1      10.064   5.295   1.452  0.00  0.00    -0.276 OA
ATOM      7  N   UNL     1      11.572   4.329   2.932  0.00  0.00    -0.311 N 
ATOM     21  C   UNL     1      10.659   5.291   2.525  0.00  0.00    +0.214 C 
ATOM     33  H   UNL     1      12.018   4.413   3.840  0.00  0.00    +0.149 HD
BRANCH   7  23
ATOM     23  C   UNL     1      11.936   3.190   2.118  0.00  0.00    +0.141 C 
BRANCH  23  25
ATOM      8  N   UNL     1      13.903   3.954  -1.020  0.00  0.00    -0.263 NA
ATOM     25  C   UNL     1      13.093   3.495   1.212  0.00  0.00    -0.012 A 
ATOM     26  C   UNL     1      14.387   3.598   1.710  0.00  0.00    +0.008 A 
ATOM     27  C   UNL     1      12.906   3.679  -0.149  0.00  0.00    +0.115 A 
ATOM     29  C   UNL     1      15.439   3.880   0.846  0.00  0.00    +0.020 A 
ATOM     30  C   UNL     1      15.147   4.047  -0.499  0.00  0.00    +0.111 A 
ENDBRANCH  23  25
ENDBRANCH   7  23
ENDBRANCH  17  21
ENDBRANCH  12  17
TORSDOF 12
ENDMDL
MODEL 9
REMARK VINA RESULT:      -5.6      3.671      6.739
REMARK  Name = 38028571
REMARK  15 active torsions:
REMARK  status: ('A' for Active; 'I' for Inactive)
REMARK    1  A    between atoms: O_3  and  C_24
REMARK    2  A    between atoms: O_3  and  C_28
REMARK    3  A    between atoms: O_4  and  C_31
REMARK    4  A    between atoms: N_6  and  C_16
REMARK    5  A    between atoms: N_7  and  C_23
REMARK    6  A    between atoms: C_9  and  C_13
REMARK    7  A    between atoms: C_10  and  C_16
REMARK    8  A    between atoms: C_12  and  C_17
REMARK    9  A    between atoms: C_13  and  C_18
REMARK   10  A    between atoms: C_13  and  C_19
REMARK   11  A    between atoms: C_14  and  C_20
REMARK   12  A    between atoms: C_17  and  C_21
REMARK   13  A    between atoms: C_22  and  C_24
REMARK   14  A    between atoms: C_23  and  C_25
REMARK   15  A    between atoms: C_28  and  C_31
REMARK                            x       y       z     vdW  Elec       q    Type
REMARK                         _______ _______ _______ _____ _____    ______ ____
ROOT
ATOM      9  C   UNL     1      -7.405 -10.343  16.236  0.00  0.00    +0.000 C 
ATOM     10  C   UNL     1      -6.491 -10.038  15.023  0.00  0.00    +0.032 C 
ATOM     11  C   UNL     1      -6.736  -9.882  17.540  0.00  0.00    +0.012 C 
ATOM     12  C   UNL     1      -5.376 -10.565  17.771  0.00  0.00    +0.023 C 
ATOM     14  C   UNL     1      -4.515 -10.540  16.524  0.00  0.00    -0.073 C 
ATOM     15  C   UNL     1      -5.028 -10.289  15.307  0.00  0.00    -0.022 C 
ATOM     20  C   UNL     1      -3.040 -10.764  16.714  0.00  0.00    +0.039 C 
ENDROOT
BRANCH   9  13
ATOM     13  C   UNL     1      -8.779  -9.680  16.095  0.00  0.00    -0.013 C 
ATOM     18  C   UNL     1      -9.887 -10.718  16.234  0.00  0.00    +0.007 C 
ATOM     19  C   UNL     1      -8.943  -8.570  17.128  0.00  0.00    +0.007 C 
ENDBRANCH   9  13
BRANCH  10  16
ATOM     16  C   UNL     1      -6.919 -10.844  13.792  0.00  0.00    +0.112 C 
BRANCH  16   6
ATOM      2  O   UNL     1      -7.376 -10.754  10.937  0.00  0.00    -0.273 OA
ATOM      6  N   UNL     1      -5.931 -10.759  12.762  0.00  0.00    -0.313 N 
ATOM     22  C   UNL     1      -6.240 -10.721  11.403  0.00  0.00    +0.239 C 
ATOM     32  H   UNL     1      -4.957 -10.668  13.038  0.00  0.00    +0.149 HD
BRANCH  22  24
ATOM     24  C   UNL     1      -5.002 -10.630  10.536  0.00  0.00    +0.256 C 
BRANCH  24   3
ATOM      3  O   UNL     1      -3.926 -10.074  11.260  0.00  0.00    -0.359 OA
BRANCH   3  28
ATOM     28  C   UNL     1      -2.741 -10.857  11.138  0.00  0.00    +0.280 C 
BRANCH  28  31
ATOM      5  O   UNL     1      -2.045 -10.193  13.369  0.00  0.00    -0.248 OA
ATOM     31  C   UNL     1      -2.110 -11.039  12.490  0.00  0.00    +0.331 C 
BRANCH  31   4
ATOM      4  O   UNL     1      -1.612 -12.296  12.608  0.00  0.00    -0.479 OA
ATOM     34  H   UNL     1      -0.828 -12.435  12.034  0.00  0.00    +0.295 HD
ENDBRANCH  31   4
ENDBRANCH  28  31
ENDBRANCH   3  28
ENDBRANCH  24   3
ENDBRANCH  22  24
ENDBRANCH  16   6
ENDBRANCH  10  16
BRANCH  12  17
ATOM     17  C   UNL     1      -5.557 -11.998  18.284  0.00  0.00    +0.103 C 
BRANCH  17  21
ATOM      1  O   UNL     1      -6.333 -11.448  20.508  0.00  0.00    -0.276 OA
ATOM      7  N   UNL     1      -7.572 -12.908  19.191  0.00  0.00    -0.311 N 
ATOM     21  C   UNL     1      -6.504 -12.065  19.460  0.00  0.00    +0.214 C 
ATOM     33  H   UNL     1      -7.628 -13.374  18.291  0.00  0.00    +0.149 HD
BRANCH   7  23
ATOM     23  C   UNL     1      -8.633 -13.165  20.138  0.00  0.00    +0.141 C 
BRANCH  23  25
ATOM      8  N   UNL     1     -12.160 -12.206  19.169  0.00  0.00    -0.263 NA
ATOM     25  C   UNL     1      -9.847 -12.326  19.862  0.00  0.00    -0.012 A 
ATOM     26  C   UNL     1      -9.816 -10.945  20.023  0.00  0.00    +0.008 A 
ATOM     27  C   UNL     1     -11.033 -12.902  19.436  0.00  0.00    +0.115 A 
ATOM     29  C   UNL     1     -10.956 -10.194  19.759  0.00  0.00    +0.020 A 
ATOM     30  C   UNL     1     -12.093 -10.866  19.337  0.00  0.00    +0.111 A 
ENDBRANCH  23  25
ENDBRANCH   7  23
ENDBRANCH  17  21
ENDBRANCH  12  17
TORSDOF 12
ENDMDL
MODEL 10
REMARK VINA RESULT:      -5.6     27.927     30.762
REMARK  Name = 38028571
REMARK  15 active torsions:
REMARK  status: ('A' for Active; 'I' for Inactive)
REMARK    1  A    between atoms: O_3  and  C_24
REMARK    2  A    between atoms: O_3  and  C_28
REMARK    3  A    between atoms: O_4  and  C_31
REMARK    4  A    between atoms: N_6  and  C_16
REMARK    5  A    between atoms: N_7  and  C_23
REMARK    6  A    between atoms: C_9  and  C_13
REMARK    7  A    between atoms: C_10  and  C_16
REMARK    8  A    between atoms: C_12  and  C_17
REMARK    9  A    between atoms: C_13  and  C_18
REMARK   10  A    between atoms: C_13  and  C_19
REMARK   11  A    between atoms: C_14  and  C_20
REMARK   12  A    between atoms: C_17  and  C_21
REMARK   13  A    between atoms: C_22  and  C_24
REMARK   14  A    between atoms: C_23  and  C_25
REMARK   15  A    between atoms: C_28  and  C_31
REMARK                            x       y       z     vdW  Elec       q    Type
REMARK                         _______ _______ _______ _____ _____    ______ ____
ROOT
ATOM      9  C   UNL     1      17.197   8.791  21.654  0.00  0.00    +0.000 C 
ATOM     10  C   UNL     1      16.187   7.994  20.789  0.00  0.00    +0.032 C 
ATOM     11  C   UNL     1      18.595   8.748  21.019  0.00  0.00    +0.012 C 
ATOM     12  C   UNL     1      19.119   7.310  20.858  0.00  0.00    +0.023 C 
ATOM     14  C   UNL     1      18.074   6.394  20.252  0.00  0.00    -0.073 C 
ATOM     15  C   UNL     1      16.770   6.723  20.218  0.00  0.00    -0.022 C 
ATOM     20  C   UNL     1      18.568   5.111  19.644  0.00  0.00    +0.039 C 
ENDROOT
BRANCH   9  13
ATOM     13  C   UNL     1      16.758  10.245  21.846  0.00  0.00    -0.013 C 
ATOM     18  C   UNL     1      17.889  11.065  22.458  0.00  0.00    +0.007 C 
ATOM     19  C   UNL     1      16.311  10.847  20.519  0.00  0.00    +0.007 C 
ENDBRANCH   9  13
BRANCH  10  16
ATOM     16  C   UNL     1      14.919   7.663  21.584  0.00  0.00    +0.112 C 
BRANCH  16   6
ATOM      2  O   UNL     1      12.327   6.435  21.210  0.00  0.00    -0.273 OA
ATOM      6  N   UNL     1      13.768   8.247  20.970  0.00  0.00    -0.313 N 
ATOM     22  C   UNL     1      12.551   7.581  20.830  0.00  0.00    +0.239 C 
ATOM     32  H   UNL     1      13.825   9.216  20.671  0.00  0.00    +0.149 HD
BRANCH  22  24
ATOM     24  C   UNL     1      11.506   8.435  20.145  0.00  0.00    +0.256 C 
BRANCH  24   3
ATOM      3  O   UNL     1      11.293   9.632  20.862  0.00  0.00    -0.359 OA
BRANCH   3  28
ATOM     28  C   UNL     1      10.700   9.391  22.135  0.00  0.00    +0.280 C 
BRANCH  28  31
ATOM      5  O   UNL     1      10.674  11.087  23.875  0.00  0.00    -0.248 OA
ATOM     31  C   UNL     1      11.296  10.319  23.157  0.00  0.00    +0.331 C 
BRANCH  31   4
ATOM      4  O   UNL     1      12.646  10.186  23.178  0.00  0.00    -0.479 OA
ATOM     34  H   UNL     1      12.960   9.536  22.513  0.00  0.00    +0.295 HD
ENDBRANCH  31   4
ENDBRANCH  28  31
ENDBRANCH   3  28
ENDBRANCH  24   3
ENDBRANCH  22  24
ENDBRANCH  16   6
ENDBRANCH  10  16
BRANCH  12  17
ATOM     17  C   UNL     1      19.627   6.754  22.192  0.00  0.00    +0.103 C 
BRANCH  17  21
ATOM      1  O   UNL     1      21.758   7.232  23.233  0.00  0.00    -0.276 OA
ATOM      7  N   UNL     1      21.707   6.211  21.147  0.00  0.00    -0.311 N 
ATOM     21  C   UNL     1      21.136   6.774  22.278  0.00  0.00    +0.214 C 
ATOM     33  H   UNL     1      21.108   5.855  20.408  0.00  0.00    +0.149 HD
BRANCH   7  23
ATOM     23  C   UNL     1      23.135   6.099  20.954  0.00  0.00    +0.141 C 
BRANCH  23  25
ATOM      8  N   UNL     1      23.419   2.384  21.601  0.00  0.00    -0.263 NA
ATOM     25  C   UNL     1      23.573   4.669  20.825  0.00  0.00    -0.012 A 
ATOM     26  C   UNL     1      24.502   4.287  19.864  0.00  0.00    +0.008 A 
ATOM     27  C   UNL     1      23.066   3.688  21.663  0.00  0.00    +0.115 A 
ATOM     29  C   UNL     1      24.889   2.955  19.769  0.00  0.00    +0.020 A 
ATOM     30  C   UNL     1      24.324   2.051  20.654  0.00  0.00    +0.111 A 
ENDBRANCH  23  25
ENDBRANCH   7  23
ENDBRANCH  17  21
ENDBRANCH  12  17
TORSDOF 12
ENDMDL
