MODEL 1
REMARK VINA RESULT:      -6.7      0.000      0.000
REMARK  Name = 45783377
REMARK  8 active torsions:
REMARK  status: ('A' for Active; 'I' for Inactive)
REMARK    1  A    between atoms: O_4  and  C_29
REMARK    2  A    between atoms: O_4  and  C_30
REMARK    3  A    between atoms: N_5  and  C_14
REMARK    4  A    between atoms: N_8  and  C_26
REMARK    5  A    between atoms: C_10  and  C_15
REMARK    6  A    between atoms: C_14  and  C_16
REMARK    7  A    between atoms: C_17  and  C_20
REMARK    8  A    between atoms: C_26  and  C_29
REMARK                            x       y       z     vdW  Elec       q    Type
REMARK                         _______ _______ _______ _____ _____    ______ ____
ROOT
ATOM      3  O   UNL     1      13.991   6.552  19.924  0.00  0.00    -0.336 OA
ATOM      6  N   UNL     1      15.592   7.949  19.214  0.00  0.00    -0.190 NA
ATOM      7  N   UNL     1      15.016   6.485  20.877  0.00  0.00    -0.056 NA
ATOM     15  C   UNL     1      14.411   7.436  18.981  0.00  0.00    +0.245 A 
ATOM     17  C   UNL     1      15.923   7.337  20.388  0.00  0.00    +0.205 A 
ENDROOT
BRANCH  17  20
ATOM      8  N   UNL     1      16.619   9.927  21.324  0.00  0.00    -0.326 N 
ATOM      9  N   UNL     1      18.693   9.127  22.134  0.00  0.00    -0.240 NA
ATOM     20  C   UNL     1      17.171   7.596  21.048  0.00  0.00    +0.062 A 
ATOM     24  C   UNL     1      17.526   8.852  21.510  0.00  0.00    +0.130 A 
ATOM     25  C   UNL     1      18.072   6.553  21.238  0.00  0.00    +0.016 A 
ATOM     27  C   UNL     1      19.282   6.797  21.876  0.00  0.00    +0.020 A 
ATOM     28  C   UNL     1      19.544   8.089  22.302  0.00  0.00    +0.113 A 
ATOM     31  H   UNL     1      15.645   9.673  21.201  0.00  0.00    +0.148 HD
BRANCH   8  26
ATOM     26  C   UNL     1      16.897  11.254  21.767  0.00  0.00    +0.131 C 
BRANCH  26  29
ATOM     29  C   UNL     1      15.624  11.909  22.275  0.00  0.00    +0.178 C 
BRANCH  29   4
ATOM      4  O   UNL     1      15.698  12.057  23.687  0.00  0.00    -0.381 OA
ATOM     30  C   UNL     1      14.631  11.382  24.337  0.00  0.00    +0.194 C 
ENDBRANCH  29   4
ENDBRANCH  26  29
ENDBRANCH   8  26
ENDBRANCH  17  20
BRANCH  15  10
ATOM      5  N   UNL     1      12.516   8.785  18.097  0.00  0.00    -0.287 NA
ATOM     10  C   UNL     1      13.466   7.688  17.824  0.00  0.00    +0.146 C 
ATOM     11  C   UNL     1      14.200   8.116  16.540  0.00  0.00    +0.030 C 
ATOM     12  C   UNL     1      13.554   9.432  16.131  0.00  0.00    +0.017 C 
ATOM     13  C   UNL     1      12.195   9.385  16.802  0.00  0.00    +0.085 C 
BRANCH   5  14
ATOM     14  C   UNL     1      11.323   8.349  18.810  0.00  0.00    +0.120 C 
BRANCH  14  16
ATOM      1  F   UNL     1      12.260  11.871  22.055  0.00  0.00    -0.202 F 
ATOM      2  F   UNL     1      11.160  10.378  24.065  0.00  0.00    -0.202 F 
ATOM     16  C   UNL     1      11.280   8.891  20.214  0.00  0.00    -0.030 A 
ATOM     18  C   UNL     1      11.801  10.154  20.490  0.00  0.00    +0.046 A 
ATOM     19  C   UNL     1      10.718   8.128  21.239  0.00  0.00    +0.008 A 
ATOM     21  C   UNL     1      11.760  10.658  21.790  0.00  0.00    +0.159 A 
ATOM     22  C   UNL     1      10.678   8.632  22.540  0.00  0.00    +0.041 A 
ATOM     23  C   UNL     1      11.199   9.895  22.816  0.00  0.00    +0.158 A 
ENDBRANCH  14  16
ENDBRANCH   5  14
ENDBRANCH  15  10
TORSDOF 7
ENDMDL
MODEL 2
REMARK VINA RESULT:      -6.5      2.125      5.099
REMARK  Name = 45783377
REMARK  8 active torsions:
REMARK  status: ('A' for Active; 'I' for Inactive)
REMARK    1  A    between atoms: O_4  and  C_29
REMARK    2  A    between atoms: O_4  and  C_30
REMARK    3  A    between atoms: N_5  and  C_14
REMARK    4  A    between atoms: N_8  and  C_26
REMARK    5  A    between atoms: C_10  and  C_15
REMARK    6  A    between atoms: C_14  and  C_16
REMARK    7  A    between atoms: C_17  and  C_20
REMARK    8  A    between atoms: C_26  and  C_29
REMARK                            x       y       z     vdW  Elec       q    Type
REMARK                         _______ _______ _______ _____ _____    ______ ____
ROOT
ATOM      3  O   UNL     1      16.618  11.670  22.061  0.00  0.00    -0.336 OA
ATOM      6  N   UNL     1      15.493   9.735  21.981  0.00  0.00    -0.190 NA
ATOM      7  N   UNL     1      17.498  10.731  21.509  0.00  0.00    -0.056 NA
ATOM     15  C   UNL     1      15.461  11.002  22.310  0.00  0.00    +0.245 A 
ATOM     17  C   UNL     1      16.762   9.616  21.493  0.00  0.00    +0.205 A 
ENDROOT
BRANCH  17  20
ATOM      8  N   UNL     1      15.463   8.191  19.408  0.00  0.00    -0.326 N 
ATOM      9  N   UNL     1      17.094   6.479  19.499  0.00  0.00    -0.240 NA
ATOM     20  C   UNL     1      17.265   8.366  21.000  0.00  0.00    +0.062 A 
ATOM     24  C   UNL     1      16.645   7.658  19.984  0.00  0.00    +0.130 A 
ATOM     25  C   UNL     1      18.422   7.830  21.555  0.00  0.00    +0.016 A 
ATOM     27  C   UNL     1      18.916   6.619  21.082  0.00  0.00    +0.020 A 
ATOM     28  C   UNL     1      18.222   5.989  20.062  0.00  0.00    +0.113 A 
ATOM     31  H   UNL     1      15.333   9.192  19.499  0.00  0.00    +0.148 HD
BRANCH   8  26
ATOM     26  C   UNL     1      14.756   7.534  18.357  0.00  0.00    +0.131 C 
BRANCH  26  29
ATOM     29  C   UNL     1      13.649   8.435  17.834  0.00  0.00    +0.178 C 
BRANCH  29   4
ATOM      4  O   UNL     1      12.521   7.645  17.484  0.00  0.00    -0.381 OA
ATOM     30  C   UNL     1      11.391   8.453  17.185  0.00  0.00    +0.194 C 
ENDBRANCH  29   4
ENDBRANCH  26  29
ENDBRANCH   8  26
ENDBRANCH  17  20
BRANCH  15  10
ATOM      5  N   UNL     1      13.158  10.978  23.251  0.00  0.00    -0.287 NA
ATOM     10  C   UNL     1      14.333  11.808  22.917  0.00  0.00    +0.146 C 
ATOM     11  C   UNL     1      14.730  12.478  24.246  0.00  0.00    +0.030 C 
ATOM     12  C   UNL     1      13.686  12.014  25.253  0.00  0.00    +0.017 C 
ATOM     13  C   UNL     1      12.503  11.627  24.387  0.00  0.00    +0.085 C 
BRANCH   5  14
ATOM     14  C   UNL     1      12.249  10.791  22.128  0.00  0.00    +0.120 C 
BRANCH  14  16
ATOM      1  F   UNL     1      13.242   6.203  20.794  0.00  0.00    -0.202 F 
ATOM      2  F   UNL     1      10.737   5.395  21.533  0.00  0.00    -0.202 F 
ATOM     16  C   UNL     1      11.845   9.349  21.968  0.00  0.00    -0.030 A 
ATOM     18  C   UNL     1      12.748   8.426  21.444  0.00  0.00    +0.046 A 
ATOM     19  C   UNL     1      10.566   8.938  22.346  0.00  0.00    +0.008 A 
ATOM     21  C   UNL     1      12.375   7.090  21.297  0.00  0.00    +0.159 A 
ATOM     22  C   UNL     1      10.193   7.601  22.199  0.00  0.00    +0.041 A 
ATOM     23  C   UNL     1      11.096   6.678  21.675  0.00  0.00    +0.158 A 
ENDBRANCH  14  16
ENDBRANCH   5  14
ENDBRANCH  15  10
TORSDOF 7
ENDMDL
MODEL 3
REMARK VINA RESULT:      -6.4     26.327     29.218
REMARK  Name = 45783377
REMARK  8 active torsions:
REMARK  status: ('A' for Active; 'I' for Inactive)
REMARK    1  A    between atoms: O_4  and  C_29
REMARK    2  A    between atoms: O_4  and  C_30
REMARK    3  A    between atoms: N_5  and  C_14
REMARK    4  A    between atoms: N_8  and  C_26
REMARK    5  A    between atoms: C_10  and  C_15
REMARK    6  A    between atoms: C_14  and  C_16
REMARK    7  A    between atoms: C_17  and  C_20
REMARK    8  A    between atoms: C_26  and  C_29
REMARK                            x       y       z     vdW  Elec       q    Type
REMARK                         _______ _______ _______ _____ _____    ______ ____
ROOT
ATOM      3  O   UNL     1      -4.995  -9.759  16.446  0.00  0.00    -0.336 OA
ATOM      6  N   UNL     1      -5.321 -11.863  17.140  0.00  0.00    -0.190 NA
ATOM      7  N   UNL     1      -6.173  -9.740  17.204  0.00  0.00    -0.056 NA
ATOM     15  C   UNL     1      -4.558 -11.046  16.459  0.00  0.00    +0.245 A 
ATOM     17  C   UNL     1      -6.297 -11.017  17.579  0.00  0.00    +0.205 A 
ENDROOT
BRANCH  17  20
ATOM      8  N   UNL     1      -8.802  -9.679  17.633  0.00  0.00    -0.326 N 
ATOM      9  N   UNL     1      -9.659 -11.251  19.181  0.00  0.00    -0.240 NA
ATOM     20  C   UNL     1      -7.387 -11.480  18.389  0.00  0.00    +0.062 A 
ATOM     24  C   UNL     1      -8.615 -10.840  18.428  0.00  0.00    +0.130 A 
ATOM     25  C   UNL     1      -7.220 -12.615  19.175  0.00  0.00    +0.016 A 
ATOM     27  C   UNL     1      -8.272 -13.069  19.962  0.00  0.00    +0.020 A 
ATOM     28  C   UNL     1      -9.461 -12.358  19.931  0.00  0.00    +0.113 A 
ATOM     31  H   UNL     1      -8.190  -9.584  16.831  0.00  0.00    +0.148 HD
BRANCH   8  26
ATOM     26  C   UNL     1     -10.030  -8.955  17.608  0.00  0.00    +0.131 C 
BRANCH  26  29
ATOM     29  C   UNL     1      -9.851  -7.657  16.838  0.00  0.00    +0.178 C 
BRANCH  29   4
ATOM      4  O   UNL     1     -11.093  -6.968  16.773  0.00  0.00    -0.381 OA
ATOM     30  C   UNL     1     -11.109  -6.020  15.716  0.00  0.00    +0.194 C 
ENDBRANCH  29   4
ENDBRANCH  26  29
ENDBRANCH   8  26
ENDBRANCH  17  20
BRANCH  15  10
ATOM      5  N   UNL     1      -3.200 -10.591  14.424  0.00  0.00    -0.287 NA
ATOM     10  C   UNL     1      -3.281 -11.333  15.699  0.00  0.00    +0.146 C 
ATOM     11  C   UNL     1      -2.019 -10.914  16.476  0.00  0.00    +0.030 C 
ATOM     12  C   UNL     1      -1.263  -9.986  15.536  0.00  0.00    +0.017 C 
ATOM     13  C   UNL     1      -1.778 -10.371  14.164  0.00  0.00    +0.085 C 
BRANCH   5  14
ATOM     14  C   UNL     1      -3.862 -11.274  13.319  0.00  0.00    +0.120 C 
BRANCH  14  16
ATOM      1  F   UNL     1      -3.353  -8.784   9.153  0.00  0.00    -0.202 F 
ATOM      2  F   UNL     1      -5.816  -7.643   9.479  0.00  0.00    -0.202 F 
ATOM     16  C   UNL     1      -4.383 -10.303  12.293  0.00  0.00    -0.030 A 
ATOM     18  C   UNL     1      -3.611  -9.987  11.177  0.00  0.00    +0.046 A 
ATOM     19  C   UNL     1      -5.641  -9.721  12.460  0.00  0.00    +0.008 A 
ATOM     21  C   UNL     1      -4.094  -9.088  10.225  0.00  0.00    +0.159 A 
ATOM     22  C   UNL     1      -6.124  -8.822  11.508  0.00  0.00    +0.041 A 
ATOM     23  C   UNL     1      -5.351  -8.506  10.392  0.00  0.00    +0.158 A 
ENDBRANCH  14  16
ENDBRANCH   5  14
ENDBRANCH  15  10
TORSDOF 7
ENDMDL
MODEL 4
REMARK VINA RESULT:      -6.2     14.684     18.127
REMARK  Name = 45783377
REMARK  8 active torsions:
REMARK  status: ('A' for Active; 'I' for Inactive)
REMARK    1  A    between atoms: O_4  and  C_29
REMARK    2  A    between atoms: O_4  and  C_30
REMARK    3  A    between atoms: N_5  and  C_14
REMARK    4  A    between atoms: N_8  and  C_26
REMARK    5  A    between atoms: C_10  and  C_15
REMARK    6  A    between atoms: C_14  and  C_16
REMARK    7  A    between atoms: C_17  and  C_20
REMARK    8  A    between atoms: C_26  and  C_29
REMARK                            x       y       z     vdW  Elec       q    Type
REMARK                         _______ _______ _______ _____ _____    ______ ____
ROOT
ATOM      3  O   UNL     1      13.313   6.611   7.288  0.00  0.00    -0.336 OA
ATOM      6  N   UNL     1      12.963   7.398   5.220  0.00  0.00    -0.190 NA
ATOM      7  N   UNL     1      14.579   6.887   6.757  0.00  0.00    -0.056 NA
ATOM     15  C   UNL     1      12.418   6.940   6.319  0.00  0.00    +0.245 A 
ATOM     17  C   UNL     1      14.289   7.348   5.537  0.00  0.00    +0.205 A 
ENDROOT
BRANCH  17  20
ATOM      8  N   UNL     1      14.449   6.282   2.909  0.00  0.00    -0.326 N 
ATOM      9  N   UNL     1      16.336   7.626   2.429  0.00  0.00    -0.240 NA
ATOM     20  C   UNL     1      15.301   7.764   4.609  0.00  0.00    +0.062 A 
ATOM     24  C   UNL     1      15.394   7.255   3.324  0.00  0.00    +0.130 A 
ATOM     25  C   UNL     1      16.236   8.717   5.001  0.00  0.00    +0.016 A 
ATOM     27  C   UNL     1      17.220   9.125   4.107  0.00  0.00    +0.020 A 
ATOM     28  C   UNL     1      17.228   8.555   2.845  0.00  0.00    +0.113 A 
ATOM     31  H   UNL     1      13.569   6.272   3.411  0.00  0.00    +0.148 HD
BRANCH   8  26
ATOM     26  C   UNL     1      14.465   5.702   1.607  0.00  0.00    +0.131 C 
BRANCH  26  29
ATOM     29  C   UNL     1      14.903   4.249   1.691  0.00  0.00    +0.178 C 
BRANCH  29   4
ATOM      4  O   UNL     1      15.703   3.929   0.560  0.00  0.00    -0.381 OA
ATOM     30  C   UNL     1      14.996   4.139  -0.654  0.00  0.00    +0.194 C 
ENDBRANCH  29   4
ENDBRANCH  26  29
ENDBRANCH   8  26
ENDBRANCH  17  20
BRANCH  15  10
ATOM      5  N   UNL     1      10.289   5.803   5.715  0.00  0.00    -0.287 NA
ATOM     10  C   UNL     1      10.956   6.730   6.651  0.00  0.00    +0.146 C 
ATOM     11  C   UNL     1      10.746   6.102   8.041  0.00  0.00    +0.030 C 
ATOM     12  C   UNL     1       9.900   4.861   7.794  0.00  0.00    +0.017 C 
ATOM     13  C   UNL     1       9.219   5.152   6.471  0.00  0.00    +0.085 C 
BRANCH   5  14
ATOM     14  C   UNL     1       9.791   6.458   4.513  0.00  0.00    +0.120 C 
BRANCH  14  16
ATOM      1  F   UNL     1      12.001   2.719   2.288  0.00  0.00    -0.202 F 
ATOM      2  F   UNL     1      11.404   3.765  -0.167  0.00  0.00    -0.202 F 
ATOM     16  C   UNL     1      10.222   5.739   3.262  0.00  0.00    -0.030 A 
ATOM     18  C   UNL     1      10.926   4.539   3.357  0.00  0.00    +0.046 A 
ATOM     19  C   UNL     1       9.917   6.273   2.010  0.00  0.00    +0.008 A 
ATOM     21  C   UNL     1      11.325   3.871   2.199  0.00  0.00    +0.159 A 
ATOM     22  C   UNL     1      10.316   5.605   0.852  0.00  0.00    +0.041 A 
ATOM     23  C   UNL     1      11.020   4.405   0.946  0.00  0.00    +0.158 A 
ENDBRANCH  14  16
ENDBRANCH   5  14
ENDBRANCH  15  10
TORSDOF 7
ENDMDL
MODEL 5
REMARK VINA RESULT:      -6.1     26.391     29.250
REMARK  Name = 45783377
REMARK  8 active torsions:
REMARK  status: ('A' for Active; 'I' for Inactive)
REMARK    1  A    between atoms: O_4  and  C_29
REMARK    2  A    between atoms: O_4  and  C_30
REMARK    3  A    between atoms: N_5  and  C_14
REMARK    4  A    between atoms: N_8  and  C_26
REMARK    5  A    between atoms: C_10  and  C_15
REMARK    6  A    between atoms: C_14  and  C_16
REMARK    7  A    between atoms: C_17  and  C_20
REMARK    8  A    between atoms: C_26  and  C_29
REMARK                            x       y       z     vdW  Elec       q    Type
REMARK                         _______ _______ _______ _____ _____    ______ ____
ROOT
ATOM      3  O   UNL     1      -4.372 -13.128  14.956  0.00  0.00    -0.336 OA
ATOM      6  N   UNL     1      -4.415 -11.499  16.493  0.00  0.00    -0.190 NA
ATOM      7  N   UNL     1      -5.565 -13.298  15.669  0.00  0.00    -0.056 NA
ATOM     15  C   UNL     1      -3.755 -12.048  15.504  0.00  0.00    +0.245 A 
ATOM     17  C   UNL     1      -5.519 -12.299  16.556  0.00  0.00    +0.205 A 
ENDROOT
BRANCH  17  20
ATOM      8  N   UNL     1      -8.064 -11.279  15.815  0.00  0.00    -0.326 N 
ATOM      9  N   UNL     1      -8.800 -11.358  18.063  0.00  0.00    -0.240 NA
ATOM     20  C   UNL     1      -6.557 -12.076  17.521  0.00  0.00    +0.062 A 
ATOM     24  C   UNL     1      -7.803 -11.580  17.177  0.00  0.00    +0.130 A 
ATOM     25  C   UNL     1      -6.317 -12.365  18.860  0.00  0.00    +0.016 A 
ATOM     27  C   UNL     1      -7.319 -12.151  19.801  0.00  0.00    +0.020 A 
ATOM     28  C   UNL     1      -8.532 -11.651  19.356  0.00  0.00    +0.113 A 
ATOM     31  H   UNL     1      -7.489 -11.762  15.134  0.00  0.00    +0.148 HD
BRANCH   8  26
ATOM     26  C   UNL     1      -9.316 -10.765  15.367  0.00  0.00    +0.131 C 
BRANCH  26  29
ATOM     29  C   UNL     1      -9.244  -9.252  15.250  0.00  0.00    +0.178 C 
BRANCH  29   4
ATOM      4  O   UNL     1     -10.286  -8.667  16.020  0.00  0.00    -0.381 OA
ATOM     30  C   UNL     1      -9.773  -7.966  17.143  0.00  0.00    +0.194 C 
ENDBRANCH  29   4
ENDBRANCH  26  29
ENDBRANCH   8  26
ENDBRANCH  17  20
BRANCH  15  10
ATOM      5  N   UNL     1      -2.564 -10.630  13.842  0.00  0.00    -0.287 NA
ATOM     10  C   UNL     1      -2.425 -11.651  14.900  0.00  0.00    +0.146 C 
ATOM     11  C   UNL     1      -1.469 -11.020  15.930  0.00  0.00    +0.030 C 
ATOM     12  C   UNL     1      -1.077  -9.674  15.336  0.00  0.00    +0.017 C 
ATOM     13  C   UNL     1      -1.325  -9.854  13.851  0.00  0.00    +0.085 C 
BRANCH   5  14
ATOM     14  C   UNL     1      -2.847 -11.198  12.529  0.00  0.00    +0.120 C 
BRANCH  14  16
ATOM      1  F   UNL     1      -6.912  -8.645  11.649  0.00  0.00    -0.202 F 
ATOM      2  F   UNL     1      -5.853  -7.671   9.324  0.00  0.00    -0.202 F 
ATOM     16  C   UNL     1      -3.650 -10.256  11.673  0.00  0.00    -0.030 A 
ATOM     18  C   UNL     1      -4.934  -9.880  12.065  0.00  0.00    +0.046 A 
ATOM     19  C   UNL     1      -3.109  -9.758  10.487  0.00  0.00    +0.008 A 
ATOM     21  C   UNL     1      -5.679  -9.006  11.273  0.00  0.00    +0.159 A 
ATOM     22  C   UNL     1      -3.854  -8.884   9.694  0.00  0.00    +0.041 A 
ATOM     23  C   UNL     1      -5.138  -8.509  10.086  0.00  0.00    +0.158 A 
ENDBRANCH  14  16
ENDBRANCH   5  14
ENDBRANCH  15  10
TORSDOF 7
ENDMDL
MODEL 6
REMARK VINA RESULT:      -6.1      4.364      7.587
REMARK  Name = 45783377
REMARK  8 active torsions:
REMARK  status: ('A' for Active; 'I' for Inactive)
REMARK    1  A    between atoms: O_4  and  C_29
REMARK    2  A    between atoms: O_4  and  C_30
REMARK    3  A    between atoms: N_5  and  C_14
REMARK    4  A    between atoms: N_8  and  C_26
REMARK    5  A    between atoms: C_10  and  C_15
REMARK    6  A    between atoms: C_14  and  C_16
REMARK    7  A    between atoms: C_17  and  C_20
REMARK    8  A    between atoms: C_26  and  C_29
REMARK                            x       y       z     vdW  Elec       q    Type
REMARK                         _______ _______ _______ _____ _____    ______ ____
ROOT
ATOM      3  O   UNL     1      13.446   8.294  15.989  0.00  0.00    -0.336 OA
ATOM      6  N   UNL     1      13.537  10.143  17.250  0.00  0.00    -0.190 NA
ATOM      7  N   UNL     1      14.076   9.269  15.205  0.00  0.00    -0.056 NA
ATOM     15  C   UNL     1      13.162   8.891  17.176  0.00  0.00    +0.245 A 
ATOM     17  C   UNL     1      14.093  10.330  16.018  0.00  0.00    +0.205 A 
ENDROOT
BRANCH  17  20
ATOM      8  N   UNL     1      12.863  11.985  14.066  0.00  0.00    -0.326 N 
ATOM      9  N   UNL     1      14.576  13.602  14.291  0.00  0.00    -0.240 NA
ATOM     20  C   UNL     1      14.656  11.591  15.629  0.00  0.00    +0.062 A 
ATOM     24  C   UNL     1      14.069  12.410  14.679  0.00  0.00    +0.130 A 
ATOM     25  C   UNL     1      15.839  12.022  16.220  0.00  0.00    +0.016 A 
ATOM     27  C   UNL     1      16.390  13.243  15.847  0.00  0.00    +0.020 A 
ATOM     28  C   UNL     1      15.726  13.989  14.887  0.00  0.00    +0.113 A 
ATOM     31  H   UNL     1      12.311  11.312  14.585  0.00  0.00    +0.148 HD
BRANCH   8  26
ATOM     26  C   UNL     1      12.186  12.761  13.079  0.00  0.00    +0.131 C 
BRANCH  26  29
ATOM     29  C   UNL     1      12.550  12.265  11.689  0.00  0.00    +0.178 C 
BRANCH  29   4
ATOM      4  O   UNL     1      13.296  13.265  11.009  0.00  0.00    -0.381 OA
ATOM     30  C   UNL     1      13.365  13.005   9.614  0.00  0.00    +0.194 C 
ENDBRANCH  29   4
ENDBRANCH  26  29
ENDBRANCH   8  26
ENDBRANCH  17  20
BRANCH  15  10
ATOM      5  N   UNL     1      13.253   7.902  19.458  0.00  0.00    -0.287 NA
ATOM     10  C   UNL     1      12.469   8.033  18.213  0.00  0.00    +0.146 C 
ATOM     11  C   UNL     1      11.118   8.619  18.663  0.00  0.00    +0.030 C 
ATOM     12  C   UNL     1      11.214   8.725  20.178  0.00  0.00    +0.017 C 
ATOM     13  C   UNL     1      12.286   7.716  20.539  0.00  0.00    +0.085 C 
BRANCH   5  14
ATOM     14  C   UNL     1      14.234   6.825  19.408  0.00  0.00    +0.120 C 
BRANCH  14  16
ATOM      1  F   UNL     1      18.926   5.934  20.409  0.00  0.00    -0.202 F 
ATOM      2  F   UNL     1      19.232   8.447  21.443  0.00  0.00    -0.202 F 
ATOM     16  C   UNL     1      15.570   7.258  19.952  0.00  0.00    -0.030 A 
ATOM     18  C   UNL     1      16.650   6.378  19.929  0.00  0.00    +0.046 A 
ATOM     19  C   UNL     1      15.725   8.541  20.479  0.00  0.00    +0.008 A 
ATOM     21  C   UNL     1      17.888   6.779  20.432  0.00  0.00    +0.159 A 
ATOM     22  C   UNL     1      16.963   8.942  20.983  0.00  0.00    +0.041 A 
ATOM     23  C   UNL     1      18.044   8.061  20.959  0.00  0.00    +0.158 A 
ENDBRANCH  14  16
ENDBRANCH   5  14
ENDBRANCH  15  10
TORSDOF 7
ENDMDL
MODEL 7
REMARK VINA RESULT:      -6.0     13.692     17.574
REMARK  Name = 45783377
REMARK  8 active torsions:
REMARK  status: ('A' for Active; 'I' for Inactive)
REMARK    1  A    between atoms: O_4  and  C_29
REMARK    2  A    between atoms: O_4  and  C_30
REMARK    3  A    between atoms: N_5  and  C_14
REMARK    4  A    between atoms: N_8  and  C_26
REMARK    5  A    between atoms: C_10  and  C_15
REMARK    6  A    between atoms: C_14  and  C_16
REMARK    7  A    between atoms: C_17  and  C_20
REMARK    8  A    between atoms: C_26  and  C_29
REMARK                            x       y       z     vdW  Elec       q    Type
REMARK                         _______ _______ _______ _____ _____    ______ ____
ROOT
ATOM      3  O   UNL     1      11.589   4.082   2.827  0.00  0.00    -0.336 OA
ATOM      6  N   UNL     1      11.503   6.320   2.822  0.00  0.00    -0.190 NA
ATOM      7  N   UNL     1      10.603   4.435   3.757  0.00  0.00    -0.056 NA
ATOM     15  C   UNL     1      12.067   5.250   2.323  0.00  0.00    +0.245 A 
ATOM     17  C   UNL     1      10.611   5.770   3.697  0.00  0.00    +0.205 A 
ENDROOT
BRANCH  17  20
ATOM      8  N   UNL     1      10.732   5.751   6.534  0.00  0.00    -0.326 N 
ATOM      9  N   UNL     1       8.984   7.340   6.665  0.00  0.00    -0.240 NA
ATOM     20  C   UNL     1       9.743   6.583   4.499  0.00  0.00    +0.062 A 
ATOM     24  C   UNL     1       9.788   6.586   5.883  0.00  0.00    +0.130 A 
ATOM     25  C   UNL     1       8.812   7.408   3.876  0.00  0.00    +0.016 A 
ATOM     27  C   UNL     1       7.967   8.198   4.647  0.00  0.00    +0.020 A 
ATOM     28  C   UNL     1       8.091   8.129   6.025  0.00  0.00    +0.113 A 
ATOM     31  H   UNL     1      11.541   5.480   5.987  0.00  0.00    +0.148 HD
BRANCH   8  26
ATOM     26  C   UNL     1      10.852   5.687   7.954  0.00  0.00    +0.131 C 
BRANCH  26  29
ATOM     29  C   UNL     1       9.956   4.590   8.503  0.00  0.00    +0.178 C 
BRANCH  29   4
ATOM      4  O   UNL     1       9.985   4.620   9.923  0.00  0.00    -0.381 OA
ATOM     30  C   UNL     1       8.675   4.598  10.471  0.00  0.00    +0.194 C 
ENDBRANCH  29   4
ENDBRANCH  26  29
ENDBRANCH   8  26
ENDBRANCH  17  20
BRANCH  15  10
ATOM      5  N   UNL     1      14.445   5.699   1.742  0.00  0.00    -0.287 NA
ATOM     10  C   UNL     1      13.159   5.138   1.280  0.00  0.00    +0.146 C 
ATOM     11  C   UNL     1      13.480   3.678   0.909  0.00  0.00    +0.030 C 
ATOM     12  C   UNL     1      14.978   3.529   1.137  0.00  0.00    +0.017 C 
ATOM     13  C   UNL     1      15.494   4.952   1.050  0.00  0.00    +0.085 C 
BRANCH   5  14
ATOM     14  C   UNL     1      14.557   7.135   1.522  0.00  0.00    +0.120 C 
BRANCH  14  16
ATOM      1  F   UNL     1      15.467   7.307   6.313  0.00  0.00    -0.202 F 
ATOM      2  F   UNL     1      14.899   9.981   6.373  0.00  0.00    -0.202 F 
ATOM     16  C   UNL     1      14.648   7.895   2.818  0.00  0.00    -0.030 A 
ATOM     18  C   UNL     1      15.022   7.236   3.988  0.00  0.00    +0.046 A 
ATOM     19  C   UNL     1      14.359   9.260   2.847  0.00  0.00    +0.008 A 
ATOM     21  C   UNL     1      15.107   7.940   5.189  0.00  0.00    +0.159 A 
ATOM     22  C   UNL     1      14.444   9.964   4.049  0.00  0.00    +0.041 A 
ATOM     23  C   UNL     1      14.818   9.305   5.219  0.00  0.00    +0.158 A 
ENDBRANCH  14  16
ENDBRANCH   5  14
ENDBRANCH  15  10
TORSDOF 7
ENDMDL
MODEL 8
REMARK VINA RESULT:      -6.0     27.631     29.084
REMARK  Name = 45783377
REMARK  8 active torsions:
REMARK  status: ('A' for Active; 'I' for Inactive)
REMARK    1  A    between atoms: O_4  and  C_29
REMARK    2  A    between atoms: O_4  and  C_30
REMARK    3  A    between atoms: N_5  and  C_14
REMARK    4  A    between atoms: N_8  and  C_26
REMARK    5  A    between atoms: C_10  and  C_15
REMARK    6  A    between atoms: C_14  and  C_16
REMARK    7  A    between atoms: C_17  and  C_20
REMARK    8  A    between atoms: C_26  and  C_29
REMARK                            x       y       z     vdW  Elec       q    Type
REMARK                         _______ _______ _______ _____ _____    ______ ____
ROOT
ATOM      3  O   UNL     1      -6.910 -10.428  12.294  0.00  0.00    -0.336 OA
ATOM      6  N   UNL     1      -5.311  -9.542  13.590  0.00  0.00    -0.190 NA
ATOM      7  N   UNL     1      -7.220 -10.804  13.608  0.00  0.00    -0.056 NA
ATOM     15  C   UNL     1      -5.773  -9.688  12.373  0.00  0.00    +0.245 A 
ATOM     17  C   UNL     1      -6.232 -10.243  14.312  0.00  0.00    +0.205 A 
ENDROOT
BRANCH  17  20
ATOM      8  N   UNL     1      -8.129  -9.045  16.055  0.00  0.00    -0.326 N 
ATOM      9  N   UNL     1      -6.988  -9.888  17.949  0.00  0.00    -0.240 NA
ATOM     20  C   UNL     1      -6.136 -10.366  15.738  0.00  0.00    +0.062 A 
ATOM     24  C   UNL     1      -7.052  -9.789  16.603  0.00  0.00    +0.130 A 
ATOM     25  C   UNL     1      -5.086 -11.092  16.291  0.00  0.00    +0.016 A 
ATOM     27  C   UNL     1      -4.987 -11.216  17.673  0.00  0.00    +0.020 A 
ATOM     28  C   UNL     1      -5.954 -10.601  18.451  0.00  0.00    +0.113 A 
ATOM     31  H   UNL     1      -8.382  -9.265  15.098  0.00  0.00    +0.148 HD
BRANCH   8  26
ATOM     26  C   UNL     1      -9.120  -8.416  16.865  0.00  0.00    +0.131 C 
BRANCH  26  29
ATOM     29  C   UNL     1     -10.285  -7.963  16.002  0.00  0.00    +0.178 C 
BRANCH  29   4
ATOM      4  O   UNL     1     -10.174  -6.569  15.748  0.00  0.00    -0.381 OA
ATOM     30  C   UNL     1     -11.430  -5.917  15.861  0.00  0.00    +0.194 C 
ENDBRANCH  29   4
ENDBRANCH  26  29
ENDBRANCH   8  26
ENDBRANCH  17  20
BRANCH  15  10
ATOM      5  N   UNL     1      -4.383 -10.142  10.359  0.00  0.00    -0.287 NA
ATOM     10  C   UNL     1      -5.223  -9.154  11.068  0.00  0.00    +0.146 C 
ATOM     11  C   UNL     1      -6.330  -8.789  10.061  0.00  0.00    +0.030 C 
ATOM     12  C   UNL     1      -5.995  -9.571   8.799  0.00  0.00    +0.017 C 
ATOM     13  C   UNL     1      -4.510  -9.845   8.933  0.00  0.00    +0.085 C 
BRANCH   5  14
ATOM     14  C   UNL     1      -2.994 -10.136  10.800  0.00  0.00    +0.120 C 
BRANCH  14  16
ATOM      1  F   UNL     1      -1.147 -11.773  15.010  0.00  0.00    -0.202 F 
ATOM      2  F   UNL     1      -1.925 -14.326  14.414  0.00  0.00    -0.202 F 
ATOM     16  C   UNL     1      -2.708 -11.256  11.766  0.00  0.00    -0.030 A 
ATOM     18  C   UNL     1      -2.046 -10.990  12.964  0.00  0.00    +0.046 A 
ATOM     19  C   UNL     1      -3.106 -12.558  11.461  0.00  0.00    +0.008 A 
ATOM     21  C   UNL     1      -1.782 -12.027  13.859  0.00  0.00    +0.159 A 
ATOM     22  C   UNL     1      -2.841 -13.595  12.356  0.00  0.00    +0.041 A 
ATOM     23  C   UNL     1      -2.179 -13.330  13.555  0.00  0.00    +0.158 A 
ENDBRANCH  14  16
ENDBRANCH   5  14
ENDBRANCH  15  10
TORSDOF 7
ENDMDL
MODEL 9
REMARK VINA RESULT:      -6.0      3.386      6.057
REMARK  Name = 45783377
REMARK  8 active torsions:
REMARK  status: ('A' for Active; 'I' for Inactive)
REMARK    1  A    between atoms: O_4  and  C_29
REMARK    2  A    between atoms: O_4  and  C_30
REMARK    3  A    between atoms: N_5  and  C_14
REMARK    4  A    between atoms: N_8  and  C_26
REMARK    5  A    between atoms: C_10  and  C_15
REMARK    6  A    between atoms: C_14  and  C_16
REMARK    7  A    between atoms: C_17  and  C_20
REMARK    8  A    between atoms: C_26  and  C_29
REMARK                            x       y       z     vdW  Elec       q    Type
REMARK                         _______ _______ _______ _____ _____    ______ ____
ROOT
ATOM      3  O   UNL     1      13.523   7.997  16.317  0.00  0.00    -0.336 OA
ATOM      6  N   UNL     1      13.267   9.965  17.355  0.00  0.00    -0.190 NA
ATOM      7  N   UNL     1      14.145   8.950  15.501  0.00  0.00    -0.056 NA
ATOM     15  C   UNL     1      13.033   8.678  17.386  0.00  0.00    +0.245 A 
ATOM     17  C   UNL     1      13.953  10.085  16.181  0.00  0.00    +0.205 A 
ENDROOT
BRANCH  17  20
ATOM      8  N   UNL     1      15.382  11.867  17.869  0.00  0.00    -0.326 N 
ATOM      9  N   UNL     1      15.590  13.438  16.111  0.00  0.00    -0.240 NA
ATOM     20  C   UNL     1      14.430  11.354  15.714  0.00  0.00    +0.062 A 
ATOM     24  C   UNL     1      15.129  12.236  16.522  0.00  0.00    +0.130 A 
ATOM     25  C   UNL     1      14.190  11.731  14.396  0.00  0.00    +0.016 A 
ATOM     27  C   UNL     1      14.650  12.960  13.936  0.00  0.00    +0.020 A 
ATOM     28  C   UNL     1      15.338  13.770  14.824  0.00  0.00    +0.113 A 
ATOM     31  H   UNL     1      15.369  10.874  18.070  0.00  0.00    +0.148 HD
BRANCH   8  26
ATOM     26  C   UNL     1      16.093  12.708  18.775  0.00  0.00    +0.131 C 
BRANCH  26  29
ATOM     29  C   UNL     1      15.403  12.712  20.130  0.00  0.00    +0.178 C 
BRANCH  29   4
ATOM      4  O   UNL     1      14.889  11.415  20.403  0.00  0.00    -0.381 OA
ATOM     30  C   UNL     1      13.944  11.443  21.464  0.00  0.00    +0.194 C 
ENDBRANCH  29   4
ENDBRANCH  26  29
ENDBRANCH   8  26
ENDBRANCH  17  20
BRANCH  15  10
ATOM      5  N   UNL     1      13.086   7.699  19.674  0.00  0.00    -0.287 NA
ATOM     10  C   UNL     1      12.304   7.860  18.431  0.00  0.00    +0.146 C 
ATOM     11  C   UNL     1      10.983   8.511  18.882  0.00  0.00    +0.030 C 
ATOM     12  C   UNL     1      11.090   8.621  20.396  0.00  0.00    +0.017 C 
ATOM     13  C   UNL     1      12.115   7.565  20.759  0.00  0.00    +0.085 C 
BRANCH   5  14
ATOM     14  C   UNL     1      14.016   6.578  19.627  0.00  0.00    +0.120 C 
BRANCH  14  16
ATOM      1  F   UNL     1      18.838   5.836  19.724  0.00  0.00    -0.202 F 
ATOM      2  F   UNL     1      19.201   8.084  21.238  0.00  0.00    -0.202 F 
ATOM     16  C   UNL     1      15.401   6.980  20.058  0.00  0.00    -0.030 A 
ATOM     18  C   UNL     1      16.499   6.206  19.685  0.00  0.00    +0.046 A 
ATOM     19  C   UNL     1      15.586   8.127  20.830  0.00  0.00    +0.008 A 
ATOM     21  C   UNL     1      17.783   6.578  20.083  0.00  0.00    +0.159 A 
ATOM     22  C   UNL     1      16.870   8.500  21.228  0.00  0.00    +0.041 A 
ATOM     23  C   UNL     1      17.968   7.726  20.855  0.00  0.00    +0.158 A 
ENDBRANCH  14  16
ENDBRANCH   5  14
ENDBRANCH  15  10
TORSDOF 7
ENDMDL
MODEL 10
REMARK VINA RESULT:      -5.9      2.951      5.109
REMARK  Name = 45783377
REMARK  8 active torsions:
REMARK  status: ('A' for Active; 'I' for Inactive)
REMARK    1  A    between atoms: O_4  and  C_29
REMARK    2  A    between atoms: O_4  and  C_30
REMARK    3  A    between atoms: N_5  and  C_14
REMARK    4  A    between atoms: N_8  and  C_26
REMARK    5  A    between atoms: C_10  and  C_15
REMARK    6  A    between atoms: C_14  and  C_16
REMARK    7  A    between atoms: C_17  and  C_20
REMARK    8  A    between atoms: C_26  and  C_29
REMARK                            x       y       z     vdW  Elec       q    Type
REMARK                         _______ _______ _______ _____ _____    ______ ____
ROOT
ATOM      3  O   UNL     1      16.422  11.724  22.055  0.00  0.00    -0.336 OA
ATOM      6  N   UNL     1      15.375   9.744  22.015  0.00  0.00    -0.190 NA
ATOM      7  N   UNL     1      17.358  10.799  21.574  0.00  0.00    -0.056 NA
ATOM     15  C   UNL     1      15.283  11.021  22.289  0.00  0.00    +0.245 A 
ATOM     17  C   UNL     1      16.665   9.656  21.578  0.00  0.00    +0.205 A 
ENDROOT
BRANCH  17  20
ATOM      8  N   UNL     1      19.042   8.620  22.737  0.00  0.00    -0.326 N 
ATOM      9  N   UNL     1      18.952   6.718  21.332  0.00  0.00    -0.240 NA
ATOM     20  C   UNL     1      17.234   8.409  21.156  0.00  0.00    +0.062 A 
ATOM     24  C   UNL     1      18.392   7.889  21.710  0.00  0.00    +0.130 A 
ATOM     25  C   UNL     1      16.609   7.680  20.150  0.00  0.00    +0.016 A 
ATOM     27  C   UNL     1      17.155   6.470  19.735  0.00  0.00    +0.020 A 
ATOM     28  C   UNL     1      18.317   6.036  20.352  0.00  0.00    +0.113 A 
ATOM     31  H   UNL     1      18.465   9.273  23.254  0.00  0.00    +0.148 HD
BRANCH   8  26
ATOM     26  C   UNL     1      20.238   8.165  23.366  0.00  0.00    +0.131 C 
BRANCH  26  29
ATOM     29  C   UNL     1      21.433   8.940  22.834  0.00  0.00    +0.178 C 
BRANCH  29   4
ATOM      4  O   UNL     1      22.266   8.068  22.081  0.00  0.00    -0.381 OA
ATOM     30  C   UNL     1      23.265   8.786  21.372  0.00  0.00    +0.194 C 
ENDBRANCH  29   4
ENDBRANCH  26  29
ENDBRANCH   8  26
ENDBRANCH  17  20
BRANCH  15  10
ATOM      5  N   UNL     1      12.928  10.952  23.090  0.00  0.00    -0.287 NA
ATOM     10  C   UNL     1      14.103  11.805  22.822  0.00  0.00    +0.146 C 
ATOM     11  C   UNL     1      14.403  12.490  24.169  0.00  0.00    +0.030 C 
ATOM     12  C   UNL     1      13.311  12.009  25.113  0.00  0.00    +0.017 C 
ATOM     13  C   UNL     1      12.191  11.592  24.179  0.00  0.00    +0.085 C 
BRANCH   5  14
ATOM     14  C   UNL     1      12.093  10.739  21.914  0.00  0.00    +0.120 C 
BRANCH  14  16
ATOM      1  F   UNL     1      13.070   6.444  19.814  0.00  0.00    -0.202 F 
ATOM      2  F   UNL     1      10.962   5.278  21.109  0.00  0.00    -0.202 F 
ATOM     16  C   UNL     1      11.791   9.280  21.698  0.00  0.00    -0.030 A 
ATOM     18  C   UNL     1      12.586   8.523  20.839  0.00  0.00    +0.046 A 
ATOM     19  C   UNL     1      10.715   8.685  22.360  0.00  0.00    +0.008 A 
ATOM     21  C   UNL     1      12.307   7.171  20.639  0.00  0.00    +0.159 A 
ATOM     22  C   UNL     1      10.436   7.333  22.160  0.00  0.00    +0.041 A 
ATOM     23  C   UNL     1      11.231   6.576  21.300  0.00  0.00    +0.158 A 
ENDBRANCH  14  16
ENDBRANCH   5  14
ENDBRANCH  15  10
TORSDOF 7
ENDMDL
