MODEL 1
REMARK VINA RESULT:      -6.8      0.000      0.000
REMARK  Name = 25389016
REMARK  8 active torsions:
REMARK  status: ('A' for Active; 'I' for Inactive)
REMARK    1  A    between atoms: O_3  and  C_22
REMARK    2  A    between atoms: O_3  and  C_28
REMARK    3  A    between atoms: N_5  and  C_19
REMARK    4  A    between atoms: N_6  and  C_16
REMARK    5  A    between atoms: C_9  and  C_15
REMARK    6  A    between atoms: C_10  and  C_16
REMARK    7  A    between atoms: C_18  and  C_21
REMARK    8  A    between atoms: C_20  and  C_22
REMARK                            x       y       z     vdW  Elec       q    Type
REMARK                         _______ _______ _______ _____ _____    ______ ____
ROOT
ATOM      4  N   UNL     1      -6.250 -10.300  17.702  0.00  0.00    -0.297 NA
ATOM      8  C   UNL     1      -4.548 -12.102  16.906  0.00  0.00    +0.002 C 
ATOM      9  C   UNL     1      -4.184 -10.712  16.315  0.00  0.00    +0.055 C 
ATOM     10  C   UNL     1      -6.975 -11.480  17.163  0.00  0.00    +0.074 C 
ATOM     11  C   UNL     1      -5.991 -12.467  16.498  0.00  0.00    +0.024 C 
ATOM     12  C   UNL     1      -4.534 -11.952  18.442  0.00  0.00    +0.019 C 
ATOM     13  C   UNL     1      -5.347  -9.740  16.666  0.00  0.00    +0.094 C 
ATOM     14  C   UNL     1      -5.420 -10.759  18.842  0.00  0.00    +0.085 C 
ENDROOT
BRANCH   9  15
ATOM      5  N   UNL     1      -2.494 -10.603  14.426  0.00  0.00    -0.270 N 
ATOM      7  N   UNL     1      -2.358 -10.533  13.091  0.00  0.00    -0.171 NA
ATOM     15  C   UNL     1      -3.790 -10.634  14.847  0.00  0.00    +0.044 A 
ATOM     17  C   UNL     1      -4.556 -10.580  13.708  0.00  0.00    +0.053 A 
ATOM     18  C   UNL     1      -3.621 -10.520  12.658  0.00  0.00    +0.093 A 
ATOM     19  C   UNL     1      -1.310 -10.635  15.255  0.00  0.00    +0.172 C 
BRANCH  18  21
ATOM      1  F   UNL     1      -4.745 -10.242   7.211  0.00  0.00    -0.205 F 
ATOM     21  C   UNL     1      -3.912 -10.448  11.250  0.00  0.00    +0.002 A 
ATOM     23  C   UNL     1      -3.992  -9.208  10.616  0.00  0.00    +0.013 A 
ATOM     24  C   UNL     1      -4.114 -11.619  10.518  0.00  0.00    +0.013 A 
ATOM     25  C   UNL     1      -4.273  -9.138   9.252  0.00  0.00    +0.039 A 
ATOM     26  C   UNL     1      -4.395 -11.549   9.154  0.00  0.00    +0.039 A 
ATOM     27  C   UNL     1      -4.474 -10.309   8.521  0.00  0.00    +0.123 A 
ENDBRANCH  18  21
ENDBRANCH   9  15
BRANCH  10  16
ATOM     16  C   UNL     1      -8.112 -11.085  16.218  0.00  0.00    +0.123 C 
BRANCH  16   6
ATOM      2  O   UNL     1      -9.255  -8.984  14.592  0.00  0.00    -0.273 OA
ATOM      6  N   UNL     1      -8.770  -9.901  16.675  0.00  0.00    -0.312 N 
ATOM     20  C   UNL     1      -9.294  -8.935  15.819  0.00  0.00    +0.239 C 
ATOM     29  H   UNL     1      -8.852  -9.761  17.679  0.00  0.00    +0.149 HD
BRANCH  20  22
ATOM     22  C   UNL     1      -9.934  -7.788  16.572  0.00  0.00    +0.255 C 
BRANCH  22   3
ATOM      3  O   UNL     1     -10.059  -6.654  15.742  0.00  0.00    -0.374 OA
ATOM     28  C   UNL     1     -11.297  -5.979  15.947  0.00  0.00    +0.194 C 
ENDBRANCH  22   3
ENDBRANCH  20  22
ENDBRANCH  16   6
ENDBRANCH  10  16
TORSDOF 6
ENDMDL
MODEL 2
REMARK VINA RESULT:      -6.4      4.017      7.789
REMARK  Name = 25389016
REMARK  8 active torsions:
REMARK  status: ('A' for Active; 'I' for Inactive)
REMARK    1  A    between atoms: O_3  and  C_22
REMARK    2  A    between atoms: O_3  and  C_28
REMARK    3  A    between atoms: N_5  and  C_19
REMARK    4  A    between atoms: N_6  and  C_16
REMARK    5  A    between atoms: C_9  and  C_15
REMARK    6  A    between atoms: C_10  and  C_16
REMARK    7  A    between atoms: C_18  and  C_21
REMARK    8  A    between atoms: C_20  and  C_22
REMARK                            x       y       z     vdW  Elec       q    Type
REMARK                         _______ _______ _______ _____ _____    ______ ____
ROOT
ATOM      4  N   UNL     1      -5.596 -12.481  17.085  0.00  0.00    -0.297 NA
ATOM      8  C   UNL     1      -6.095 -10.684  18.902  0.00  0.00    +0.002 C 
ATOM      9  C   UNL     1      -7.405 -11.402  18.474  0.00  0.00    +0.055 C 
ATOM     10  C   UNL     1      -4.970 -11.187  16.706  0.00  0.00    +0.074 C 
ATOM     11  C   UNL     1      -5.425 -10.061  17.659  0.00  0.00    +0.024 C 
ATOM     12  C   UNL     1      -5.142 -11.775  19.434  0.00  0.00    +0.019 C 
ATOM     13  C   UNL     1      -7.060 -12.306  17.256  0.00  0.00    +0.094 C 
ATOM     14  C   UNL     1      -5.023 -12.897  18.388  0.00  0.00    +0.085 C 
ENDROOT
BRANCH   9  15
ATOM      5  N   UNL     1      -9.767 -10.640  18.997  0.00  0.00    -0.270 N 
ATOM      7  N   UNL     1     -10.750  -9.806  18.616  0.00  0.00    -0.171 NA
ATOM     15  C   UNL     1      -8.644 -10.553  18.230  0.00  0.00    +0.044 A 
ATOM     17  C   UNL     1      -8.911  -9.597  17.280  0.00  0.00    +0.053 A 
ATOM     18  C   UNL     1     -10.221  -9.171  17.568  0.00  0.00    +0.093 A 
ATOM     19  C   UNL     1      -9.981 -11.512  20.129  0.00  0.00    +0.172 C 
BRANCH  18  21
ATOM      1  F   UNL     1     -13.144  -5.306  14.824  0.00  0.00    -0.205 F 
ATOM     21  C   UNL     1     -10.977  -8.172  16.858  0.00  0.00    +0.002 A 
ATOM     23  C   UNL     1     -10.340  -7.029  16.374  0.00  0.00    +0.013 A 
ATOM     24  C   UNL     1     -12.345  -8.346  16.654  0.00  0.00    +0.013 A 
ATOM     25  C   UNL     1     -11.072  -6.061  15.687  0.00  0.00    +0.039 A 
ATOM     26  C   UNL     1     -13.077  -7.379  15.967  0.00  0.00    +0.039 A 
ATOM     27  C   UNL     1     -12.441  -6.236  15.483  0.00  0.00    +0.123 A 
ENDBRANCH  18  21
ENDBRANCH   9  15
BRANCH  10  16
ATOM     16  C   UNL     1      -5.217 -10.827  15.239  0.00  0.00    +0.123 C 
BRANCH  16   6
ATOM      2  O   UNL     1      -3.100 -12.476  14.159  0.00  0.00    -0.273 OA
ATOM      6  N   UNL     1      -4.012 -10.382  14.611  0.00  0.00    -0.312 N 
ATOM     20  C   UNL     1      -3.039 -11.249  14.116  0.00  0.00    +0.239 C 
ATOM     29  H   UNL     1      -3.861  -9.381  14.528  0.00  0.00    +0.149 HD
BRANCH  20  22
ATOM     22  C   UNL     1      -1.870 -10.509  13.504  0.00  0.00    +0.255 C 
BRANCH  22   3
ATOM      3  O   UNL     1      -1.286  -9.634  14.445  0.00  0.00    -0.374 OA
ATOM     28  C   UNL     1      -0.893 -10.316  15.632  0.00  0.00    +0.194 C 
ENDBRANCH  22   3
ENDBRANCH  20  22
ENDBRANCH  16   6
ENDBRANCH  10  16
TORSDOF 6
ENDMDL
MODEL 3
REMARK VINA RESULT:      -6.4      1.247      2.114
REMARK  Name = 25389016
REMARK  8 active torsions:
REMARK  status: ('A' for Active; 'I' for Inactive)
REMARK    1  A    between atoms: O_3  and  C_22
REMARK    2  A    between atoms: O_3  and  C_28
REMARK    3  A    between atoms: N_5  and  C_19
REMARK    4  A    between atoms: N_6  and  C_16
REMARK    5  A    between atoms: C_9  and  C_15
REMARK    6  A    between atoms: C_10  and  C_16
REMARK    7  A    between atoms: C_18  and  C_21
REMARK    8  A    between atoms: C_20  and  C_22
REMARK                            x       y       z     vdW  Elec       q    Type
REMARK                         _______ _______ _______ _____ _____    ______ ____
ROOT
ATOM      4  N   UNL     1      -5.503 -10.433  18.098  0.00  0.00    -0.297 NA
ATOM      8  C   UNL     1      -4.958 -12.485  16.591  0.00  0.00    +0.002 C 
ATOM      9  C   UNL     1      -3.963 -11.325  16.310  0.00  0.00    +0.055 C 
ATOM     10  C   UNL     1      -6.737 -10.905  17.418  0.00  0.00    +0.074 C 
ATOM     11  C   UNL     1      -6.401 -11.984  16.366  0.00  0.00    +0.024 C 
ATOM     12  C   UNL     1      -4.826 -12.833  18.088  0.00  0.00    +0.019 C 
ATOM     13  C   UNL     1      -4.471 -10.079  17.091  0.00  0.00    +0.094 C 
ATOM     14  C   UNL     1      -4.982 -11.550  18.923  0.00  0.00    +0.085 C 
ENDROOT
BRANCH   9  15
ATOM      5  N   UNL     1      -2.372 -10.661  14.449  0.00  0.00    -0.270 N 
ATOM      7  N   UNL     1      -2.284 -10.411  13.131  0.00  0.00    -0.171 NA
ATOM     15  C   UNL     1      -3.626 -11.001  14.862  0.00  0.00    +0.044 A 
ATOM     17  C   UNL     1      -4.413 -10.970  13.737  0.00  0.00    +0.053 A 
ATOM     18  C   UNL     1      -3.534 -10.602  12.702  0.00  0.00    +0.093 A 
ATOM     19  C   UNL     1      -1.188 -10.549  15.269  0.00  0.00    +0.172 C 
BRANCH  18  21
ATOM      1  F   UNL     1      -4.816  -9.928   7.324  0.00  0.00    -0.205 F 
ATOM     21  C   UNL     1      -3.865 -10.428  11.311  0.00  0.00    +0.002 A 
ATOM     23  C   UNL     1      -4.150 -11.539  10.517  0.00  0.00    +0.013 A 
ATOM     24  C   UNL     1      -3.902  -9.148  10.758  0.00  0.00    +0.013 A 
ATOM     25  C   UNL     1      -4.471 -11.370   9.171  0.00  0.00    +0.039 A 
ATOM     26  C   UNL     1      -4.223  -8.980   9.411  0.00  0.00    +0.039 A 
ATOM     27  C   UNL     1      -4.508 -10.091   8.618  0.00  0.00    +0.123 A 
ENDBRANCH  18  21
ENDBRANCH   9  15
BRANCH  10  16
ATOM     16  C   UNL     1      -7.549  -9.756  16.817  0.00  0.00    +0.123 C 
BRANCH  16   6
ATOM      2  O   UNL     1      -9.700  -8.654  15.229  0.00  0.00    -0.273 OA
ATOM      6  N   UNL     1      -7.796  -9.977  15.426  0.00  0.00    -0.312 N 
ATOM     20  C   UNL     1      -8.862  -9.404  14.735  0.00  0.00    +0.239 C 
ATOM     29  H   UNL     1      -7.159 -10.588  14.922  0.00  0.00    +0.149 HD
BRANCH  20  22
ATOM     22  C   UNL     1      -8.883  -9.808  13.276  0.00  0.00    +0.255 C 
BRANCH  22   3
ATOM      3  O   UNL     1      -7.572  -9.867  12.756  0.00  0.00    -0.374 OA
ATOM     28  C   UNL     1      -7.523  -9.464  11.391  0.00  0.00    +0.194 C 
ENDBRANCH  22   3
ENDBRANCH  20  22
ENDBRANCH  16   6
ENDBRANCH  10  16
TORSDOF 6
ENDMDL
MODEL 4
REMARK VINA RESULT:      -6.0      2.665      4.780
REMARK  Name = 25389016
REMARK  8 active torsions:
REMARK  status: ('A' for Active; 'I' for Inactive)
REMARK    1  A    between atoms: O_3  and  C_22
REMARK    2  A    between atoms: O_3  and  C_28
REMARK    3  A    between atoms: N_5  and  C_19
REMARK    4  A    between atoms: N_6  and  C_16
REMARK    5  A    between atoms: C_9  and  C_15
REMARK    6  A    between atoms: C_10  and  C_16
REMARK    7  A    between atoms: C_18  and  C_21
REMARK    8  A    between atoms: C_20  and  C_22
REMARK                            x       y       z     vdW  Elec       q    Type
REMARK                         _______ _______ _______ _____ _____    ______ ____
ROOT
ATOM      4  N   UNL     1     -10.632  -8.600  17.258  0.00  0.00    -0.297 NA
ATOM      8  C   UNL     1      -9.725 -11.037  17.395  0.00  0.00    +0.002 C 
ATOM      9  C   UNL     1      -8.637 -10.026  17.852  0.00  0.00    +0.055 C 
ATOM     10  C   UNL     1     -10.892  -9.311  15.980  0.00  0.00    +0.074 C 
ATOM     11  C   UNL     1     -10.183 -10.682  15.964  0.00  0.00    +0.024 C 
ATOM     12  C   UNL     1     -10.941 -10.834  18.324  0.00  0.00    +0.019 C 
ATOM     13  C   UNL     1      -9.177  -8.598  17.552  0.00  0.00    +0.094 C 
ATOM     14  C   UNL     1     -11.323  -9.343  18.340  0.00  0.00    +0.085 C 
ENDROOT
BRANCH   9  15
ATOM      5  N   UNL     1      -6.163 -10.482  18.174  0.00  0.00    -0.270 N 
ATOM      7  N   UNL     1      -4.990 -10.622  17.533  0.00  0.00    -0.171 NA
ATOM     15  C   UNL     1      -7.215 -10.223  17.348  0.00  0.00    +0.044 A 
ATOM     17  C   UNL     1      -6.695 -10.190  16.076  0.00  0.00    +0.053 A 
ATOM     18  C   UNL     1      -5.322 -10.443  16.252  0.00  0.00    +0.093 A 
ATOM     19  C   UNL     1      -6.199 -10.610  19.613  0.00  0.00    +0.172 C 
BRANCH  18  21
ATOM      1  F   UNL     1      -1.451 -10.721  12.257  0.00  0.00    -0.205 F 
ATOM     21  C   UNL     1      -4.321 -10.515  15.219  0.00  0.00    +0.002 A 
ATOM     23  C   UNL     1      -4.701 -10.500  13.876  0.00  0.00    +0.013 A 
ATOM     24  C   UNL     1      -2.971 -10.600  15.560  0.00  0.00    +0.013 A 
ATOM     25  C   UNL     1      -3.732 -10.569  12.877  0.00  0.00    +0.039 A 
ATOM     26  C   UNL     1      -2.002 -10.669  14.559  0.00  0.00    +0.039 A 
ATOM     27  C   UNL     1      -2.383 -10.653  13.218  0.00  0.00    +0.123 A 
ENDBRANCH  18  21
ENDBRANCH   9  15
BRANCH  10  16
ATOM     16  C   UNL     1     -10.526  -8.466  14.757  0.00  0.00    +0.123 C 
BRANCH  16   6
ATOM      2  O   UNL     1     -11.090  -5.722  15.474  0.00  0.00    -0.273 OA
ATOM      6  N   UNL     1     -11.638  -7.674  14.332  0.00  0.00    -0.312 N 
ATOM     20  C   UNL     1     -11.834  -6.352  14.727  0.00  0.00    +0.239 C 
ATOM     29  H   UNL     1     -12.318  -8.104  13.711  0.00  0.00    +0.149 HD
BRANCH  20  22
ATOM     22  C   UNL     1     -13.090  -5.755  14.128  0.00  0.00    +0.255 C 
BRANCH  22   3
ATOM      3  O   UNL     1     -12.847  -4.444  13.666  0.00  0.00    -0.374 OA
ATOM     28  C   UNL     1     -12.292  -4.438  12.354  0.00  0.00    +0.194 C 
ENDBRANCH  22   3
ENDBRANCH  20  22
ENDBRANCH  16   6
ENDBRANCH  10  16
TORSDOF 6
ENDMDL
MODEL 5
REMARK VINA RESULT:      -6.0     23.661     27.326
REMARK  Name = 25389016
REMARK  8 active torsions:
REMARK  status: ('A' for Active; 'I' for Inactive)
REMARK    1  A    between atoms: O_3  and  C_22
REMARK    2  A    between atoms: O_3  and  C_28
REMARK    3  A    between atoms: N_5  and  C_19
REMARK    4  A    between atoms: N_6  and  C_16
REMARK    5  A    between atoms: C_9  and  C_15
REMARK    6  A    between atoms: C_10  and  C_16
REMARK    7  A    between atoms: C_18  and  C_21
REMARK    8  A    between atoms: C_20  and  C_22
REMARK                            x       y       z     vdW  Elec       q    Type
REMARK                         _______ _______ _______ _____ _____    ______ ____
ROOT
ATOM      4  N   UNL     1      12.144   6.514  -0.209  0.00  0.00    -0.297 NA
ATOM      8  C   UNL     1       9.560   6.424   0.097  0.00  0.00    +0.002 C 
ATOM      9  C   UNL     1      10.207   7.313   1.196  0.00  0.00    +0.055 C 
ATOM     10  C   UNL     1      11.678   5.103  -0.237  0.00  0.00    +0.074 C 
ATOM     11  C   UNL     1      10.185   5.015   0.149  0.00  0.00    +0.024 C 
ATOM     12  C   UNL     1       9.947   7.044  -1.262  0.00  0.00    +0.019 C 
ATOM     13  C   UNL     1      11.749   7.155   1.071  0.00  0.00    +0.094 C 
ATOM     14  C   UNL     1      11.473   7.236  -1.315  0.00  0.00    +0.085 C 
ENDROOT
BRANCH   9  15
ATOM      5  N   UNL     1       8.659   7.833   3.138  0.00  0.00    -0.270 N 
ATOM      7  N   UNL     1       8.395   7.548   4.425  0.00  0.00    -0.171 NA
ATOM     15  C   UNL     1       9.724   7.150   2.630  0.00  0.00    +0.044 A 
ATOM     17  C   UNL     1      10.190   6.364   3.656  0.00  0.00    +0.053 A 
ATOM     18  C   UNL     1       9.334   6.650   4.735  0.00  0.00    +0.093 A 
ATOM     19  C   UNL     1       7.832   8.793   2.444  0.00  0.00    +0.172 C 
BRANCH  18  21
ATOM      1  F   UNL     1       9.575   4.457   9.848  0.00  0.00    -0.205 F 
ATOM     21  C   UNL     1       9.396   6.083   6.057  0.00  0.00    +0.002 A 
ATOM     23  C   UNL     1       9.824   4.766   6.233  0.00  0.00    +0.013 A 
ATOM     24  C   UNL     1       9.029   6.849   7.163  0.00  0.00    +0.013 A 
ATOM     25  C   UNL     1       9.884   4.218   7.513  0.00  0.00    +0.039 A 
ATOM     26  C   UNL     1       9.090   6.300   8.444  0.00  0.00    +0.039 A 
ATOM     27  C   UNL     1       9.517   4.984   8.618  0.00  0.00    +0.123 A 
ENDBRANCH  18  21
ENDBRANCH   9  15
BRANCH  10  16
ATOM     16  C   UNL     1      12.545   4.184   0.628  0.00  0.00    +0.123 C 
BRANCH  16   6
ATOM      2  O   UNL     1      14.901   3.260   2.027  0.00  0.00    -0.273 OA
ATOM      6  N   UNL     1      13.878   4.110   0.117  0.00  0.00    -0.312 N 
ATOM     20  C   UNL     1      14.961   3.650   0.864  0.00  0.00    +0.239 C 
ATOM     29  H   UNL     1      14.038   4.414  -0.839  0.00  0.00    +0.149 HD
BRANCH  20  22
ATOM     22  C   UNL     1      16.254   3.680   0.076  0.00  0.00    +0.255 C 
BRANCH  22   3
ATOM      3  O   UNL     1      16.460   4.953  -0.497  0.00  0.00    -0.374 OA
ATOM     28  C   UNL     1      16.778   4.866  -1.882  0.00  0.00    +0.194 C 
ENDBRANCH  22   3
ENDBRANCH  20  22
ENDBRANCH  16   6
ENDBRANCH  10  16
TORSDOF 6
ENDMDL
MODEL 6
REMARK VINA RESULT:      -5.9      4.067      6.944
REMARK  Name = 25389016
REMARK  8 active torsions:
REMARK  status: ('A' for Active; 'I' for Inactive)
REMARK    1  A    between atoms: O_3  and  C_22
REMARK    2  A    between atoms: O_3  and  C_28
REMARK    3  A    between atoms: N_5  and  C_19
REMARK    4  A    between atoms: N_6  and  C_16
REMARK    5  A    between atoms: C_9  and  C_15
REMARK    6  A    between atoms: C_10  and  C_16
REMARK    7  A    between atoms: C_18  and  C_21
REMARK    8  A    between atoms: C_20  and  C_22
REMARK                            x       y       z     vdW  Elec       q    Type
REMARK                         _______ _______ _______ _____ _____    ______ ____
ROOT
ATOM      4  N   UNL     1      -5.566 -12.847  17.318  0.00  0.00    -0.297 NA
ATOM      8  C   UNL     1      -5.794 -10.564  18.549  0.00  0.00    +0.002 C 
ATOM      9  C   UNL     1      -7.138 -11.343  18.596  0.00  0.00    +0.055 C 
ATOM     10  C   UNL     1      -5.051 -11.751  16.456  0.00  0.00    +0.074 C 
ATOM     11  C   UNL     1      -5.366 -10.374  17.079  0.00  0.00    +0.024 C 
ATOM     12  C   UNL     1      -4.734 -11.463  19.219  0.00  0.00    +0.019 C 
ATOM     13  C   UNL     1      -6.983 -12.588  17.676  0.00  0.00    +0.094 C 
ATOM     14  C   UNL     1      -4.766 -12.857  18.566  0.00  0.00    +0.085 C 
ENDROOT
BRANCH   9  15
ATOM      5  N   UNL     1      -9.588 -10.815  18.986  0.00  0.00    -0.270 N 
ATOM      7  N   UNL     1     -10.608 -10.033  18.593  0.00  0.00    -0.171 NA
ATOM     15  C   UNL     1      -8.423 -10.578  18.319  0.00  0.00    +0.044 A 
ATOM     17  C   UNL     1      -8.701  -9.571  17.426  0.00  0.00    +0.053 A 
ATOM     18  C   UNL     1     -10.060  -9.275  17.641  0.00  0.00    +0.093 A 
ATOM     19  C   UNL     1      -9.809 -11.791  20.029  0.00  0.00    +0.172 C 
BRANCH  18  21
ATOM      1  F   UNL     1     -13.095  -5.441  14.975  0.00  0.00    -0.205 F 
ATOM     21  C   UNL     1     -10.845  -8.284  16.951  0.00  0.00    +0.002 A 
ATOM     23  C   UNL     1     -12.219  -8.468  16.793  0.00  0.00    +0.013 A 
ATOM     24  C   UNL     1     -10.232  -7.139  16.442  0.00  0.00    +0.013 A 
ATOM     25  C   UNL     1     -12.978  -7.508  16.126  0.00  0.00    +0.039 A 
ATOM     26  C   UNL     1     -10.992  -6.179  15.775  0.00  0.00    +0.039 A 
ATOM     27  C   UNL     1     -12.365  -6.364  15.617  0.00  0.00    +0.123 A 
ENDBRANCH  18  21
ENDBRANCH   9  15
BRANCH  10  16
ATOM     16  C   UNL     1      -5.557 -11.854  15.015  0.00  0.00    +0.123 C 
BRANCH  16   6
ATOM      2  O   UNL     1      -8.223 -12.027  13.908  0.00  0.00    -0.273 OA
ATOM      6  N   UNL     1      -6.434 -10.769  14.702  0.00  0.00    -0.312 N 
ATOM     20  C   UNL     1      -7.709 -10.942  14.168  0.00  0.00    +0.239 C 
ATOM     29  H   UNL     1      -6.102  -9.824  14.878  0.00  0.00    +0.149 HD
BRANCH  20  22
ATOM     22  C   UNL     1      -8.417  -9.625  13.936  0.00  0.00    +0.255 C 
BRANCH  22   3
ATOM      3  O   UNL     1      -9.382  -9.751  12.914  0.00  0.00    -0.374 OA
ATOM     28  C   UNL     1     -10.685  -9.397  13.368  0.00  0.00    +0.194 C 
ENDBRANCH  22   3
ENDBRANCH  20  22
ENDBRANCH  16   6
ENDBRANCH  10  16
TORSDOF 6
ENDMDL
MODEL 7
REMARK VINA RESULT:      -5.9     20.046     21.947
REMARK  Name = 25389016
REMARK  8 active torsions:
REMARK  status: ('A' for Active; 'I' for Inactive)
REMARK    1  A    between atoms: O_3  and  C_22
REMARK    2  A    between atoms: O_3  and  C_28
REMARK    3  A    between atoms: N_5  and  C_19
REMARK    4  A    between atoms: N_6  and  C_16
REMARK    5  A    between atoms: C_9  and  C_15
REMARK    6  A    between atoms: C_10  and  C_16
REMARK    7  A    between atoms: C_18  and  C_21
REMARK    8  A    between atoms: C_20  and  C_22
REMARK                            x       y       z     vdW  Elec       q    Type
REMARK                         _______ _______ _______ _____ _____    ______ ____
ROOT
ATOM      4  N   UNL     1     -18.524   4.482  23.620  0.00  0.00    -0.297 NA
ATOM      8  C   UNL     1     -17.770   1.992  23.704  0.00  0.00    +0.002 C 
ATOM      9  C   UNL     1     -18.455   2.398  25.039  0.00  0.00    +0.055 C 
ATOM     10  C   UNL     1     -17.105   4.367  23.195  0.00  0.00    +0.074 C 
ATOM     11  C   UNL     1     -16.579   2.935  23.435  0.00  0.00    +0.024 C 
ATOM     12  C   UNL     1     -18.803   2.232  22.582  0.00  0.00    +0.019 C 
ATOM     13  C   UNL     1     -18.691   3.934  24.989  0.00  0.00    +0.094 C 
ATOM     14  C   UNL     1     -19.344   3.668  22.691  0.00  0.00    +0.085 C 
ENDROOT
BRANCH   9  15
ATOM      5  N   UNL     1     -18.172   0.821  27.006  0.00  0.00    -0.270 N 
ATOM      7  N   UNL     1     -17.481   0.608  28.139  0.00  0.00    -0.171 NA
ATOM     15  C   UNL     1     -17.808   1.955  26.343  0.00  0.00    +0.044 A 
ATOM     17  C   UNL     1     -16.809   2.524  27.095  0.00  0.00    +0.053 A 
ATOM     18  C   UNL     1     -16.650   1.652  28.187  0.00  0.00    +0.093 A 
ATOM     19  C   UNL     1     -19.192  -0.125  26.614  0.00  0.00    +0.172 C 
BRANCH  18  21
ATOM      1  F   UNL     1     -13.054   2.216  32.402  0.00  0.00    -0.205 F 
ATOM     21  C   UNL     1     -15.720   1.797  29.277  0.00  0.00    +0.002 A 
ATOM     23  C   UNL     1     -14.984   2.975  29.414  0.00  0.00    +0.013 A 
ATOM     24  C   UNL     1     -15.555   0.762  30.196  0.00  0.00    +0.013 A 
ATOM     25  C   UNL     1     -14.085   3.116  30.469  0.00  0.00    +0.039 A 
ATOM     26  C   UNL     1     -14.654   0.903  31.252  0.00  0.00    +0.039 A 
ATOM     27  C   UNL     1     -13.919   2.080  31.388  0.00  0.00    +0.123 A 
ENDBRANCH  18  21
ENDBRANCH   9  15
BRANCH  10  16
ATOM     16  C   UNL     1     -16.211   5.420  23.853  0.00  0.00    +0.123 C 
BRANCH  16   6
ATOM      2  O   UNL     1     -13.488   4.883  23.037  0.00  0.00    -0.273 OA
ATOM      6  N   UNL     1     -15.448   6.128  22.873  0.00  0.00    -0.312 N 
ATOM     20  C   UNL     1     -14.135   5.802  22.539  0.00  0.00    +0.239 C 
ATOM     29  H   UNL     1     -15.891   6.912  22.401  0.00  0.00    +0.149 HD
BRANCH  20  22
ATOM     22  C   UNL     1     -13.571   6.715  21.472  0.00  0.00    +0.255 C 
BRANCH  22   3
ATOM      3  O   UNL     1     -12.271   6.307  21.102  0.00  0.00    -0.374 OA
ATOM     28  C   UNL     1     -11.511   7.382  20.561  0.00  0.00    +0.194 C 
ENDBRANCH  22   3
ENDBRANCH  20  22
ENDBRANCH  16   6
ENDBRANCH  10  16
TORSDOF 6
ENDMDL
MODEL 8
REMARK VINA RESULT:      -5.8      3.428      7.260
REMARK  Name = 25389016
REMARK  8 active torsions:
REMARK  status: ('A' for Active; 'I' for Inactive)
REMARK    1  A    between atoms: O_3  and  C_22
REMARK    2  A    between atoms: O_3  and  C_28
REMARK    3  A    between atoms: N_5  and  C_19
REMARK    4  A    between atoms: N_6  and  C_16
REMARK    5  A    between atoms: C_9  and  C_15
REMARK    6  A    between atoms: C_10  and  C_16
REMARK    7  A    between atoms: C_18  and  C_21
REMARK    8  A    between atoms: C_20  and  C_22
REMARK                            x       y       z     vdW  Elec       q    Type
REMARK                         _______ _______ _______ _____ _____    ______ ____
ROOT
ATOM      4  N   UNL     1      -3.253 -12.764  13.685  0.00  0.00    -0.297 NA
ATOM      8  C   UNL     1      -2.773 -10.859  15.393  0.00  0.00    +0.002 C 
ATOM      9  C   UNL     1      -3.685 -11.944  16.031  0.00  0.00    +0.055 C 
ATOM     10  C   UNL     1      -3.521 -11.443  13.060  0.00  0.00    +0.074 C 
ATOM     11  C   UNL     1      -3.443 -10.317  14.114  0.00  0.00    +0.024 C 
ATOM     12  C   UNL     1      -1.473 -11.570  14.959  0.00  0.00    +0.019 C 
ATOM     13  C   UNL     1      -4.089 -12.932  14.900  0.00  0.00    +0.094 C 
ATOM     14  C   UNL     1      -1.829 -12.792  14.095  0.00  0.00    +0.085 C 
ENDROOT
BRANCH   9  15
ATOM      5  N   UNL     1      -4.903 -11.511  18.214  0.00  0.00    -0.270 N 
ATOM      7  N   UNL     1      -6.052 -11.065  18.748  0.00  0.00    -0.171 NA
ATOM     15  C   UNL     1      -4.882 -11.485  16.851  0.00  0.00    +0.044 A 
ATOM     17  C   UNL     1      -6.104 -10.988  16.467  0.00  0.00    +0.053 A 
ATOM     18  C   UNL     1      -6.782 -10.747  17.676  0.00  0.00    +0.093 A 
ATOM     19  C   UNL     1      -3.845 -11.959  19.090  0.00  0.00    +0.172 C 
BRANCH  18  21
ATOM      1  F   UNL     1     -11.932  -8.710  18.257  0.00  0.00    -0.205 F 
ATOM     21  C   UNL     1      -8.114 -10.220  17.826  0.00  0.00    +0.002 A 
ATOM     23  C   UNL     1      -9.043 -10.890  18.623  0.00  0.00    +0.013 A 
ATOM     24  C   UNL     1      -8.475  -9.041  17.175  0.00  0.00    +0.013 A 
ATOM     25  C   UNL     1     -10.332 -10.379  18.769  0.00  0.00    +0.039 A 
ATOM     26  C   UNL     1      -9.765  -8.531  17.321  0.00  0.00    +0.039 A 
ATOM     27  C   UNL     1     -10.693  -9.200  18.118  0.00  0.00    +0.123 A 
ENDBRANCH  18  21
ENDBRANCH   9  15
BRANCH  10  16
ATOM     16  C   UNL     1      -4.847 -11.417  12.295  0.00  0.00    +0.123 C 
BRANCH  16   6
ATOM      2  O   UNL     1      -5.966  -8.771  11.965  0.00  0.00    -0.273 OA
ATOM      6  N   UNL     1      -4.754 -10.579  11.141  0.00  0.00    -0.312 N 
ATOM     20  C   UNL     1      -5.327  -9.310  11.065  0.00  0.00    +0.239 C 
ATOM     29  H   UNL     1      -4.247 -10.934  10.335  0.00  0.00    +0.149 HD
BRANCH  20  22
ATOM     22  C   UNL     1      -5.074  -8.646   9.728  0.00  0.00    +0.255 C 
BRANCH  22   3
ATOM      3  O   UNL     1      -4.419  -9.533   8.847  0.00  0.00    -0.374 OA
ATOM     28  C   UNL     1      -5.209  -9.818   7.697  0.00  0.00    +0.194 C 
ENDBRANCH  22   3
ENDBRANCH  20  22
ENDBRANCH  16   6
ENDBRANCH  10  16
TORSDOF 6
ENDMDL
MODEL 9
REMARK VINA RESULT:      -5.7     23.318     26.627
REMARK  Name = 25389016
REMARK  8 active torsions:
REMARK  status: ('A' for Active; 'I' for Inactive)
REMARK    1  A    between atoms: O_3  and  C_22
REMARK    2  A    between atoms: O_3  and  C_28
REMARK    3  A    between atoms: N_5  and  C_19
REMARK    4  A    between atoms: N_6  and  C_16
REMARK    5  A    between atoms: C_9  and  C_15
REMARK    6  A    between atoms: C_10  and  C_16
REMARK    7  A    between atoms: C_18  and  C_21
REMARK    8  A    between atoms: C_20  and  C_22
REMARK                            x       y       z     vdW  Elec       q    Type
REMARK                         _______ _______ _______ _____ _____    ______ ____
ROOT
ATOM      4  N   UNL     1      13.432   5.759   1.727  0.00  0.00    -0.297 NA
ATOM      8  C   UNL     1      12.740   3.437   0.774  0.00  0.00    +0.002 C 
ATOM      9  C   UNL     1      12.694   4.518  -0.342  0.00  0.00    +0.055 C 
ATOM     10  C   UNL     1      12.394   5.143   2.594  0.00  0.00    +0.074 C 
ATOM     11  C   UNL     1      11.823   3.867   1.938  0.00  0.00    +0.024 C 
ATOM     12  C   UNL     1      14.185   3.417   1.316  0.00  0.00    +0.019 C 
ATOM     13  C   UNL     1      12.920   5.897   0.340  0.00  0.00    +0.094 C 
ATOM     14  C   UNL     1      14.601   4.848   1.700  0.00  0.00    +0.085 C 
ENDROOT
BRANCH   9  15
ATOM      5  N   UNL     1      11.192   3.484  -2.105  0.00  0.00    -0.270 N 
ATOM      7  N   UNL     1      10.100   3.692  -2.861  0.00  0.00    -0.171 NA
ATOM     15  C   UNL     1      11.500   4.529  -1.285  0.00  0.00    +0.044 A 
ATOM     17  C   UNL     1      10.544   5.486  -1.521  0.00  0.00    +0.053 A 
ATOM     18  C   UNL     1       9.708   4.916  -2.499  0.00  0.00    +0.093 A 
ATOM     19  C   UNL     1      11.907   2.235  -2.228  0.00  0.00    +0.172 C 
BRANCH  18  21
ATOM      1  F   UNL     1       5.208   7.249  -4.805  0.00  0.00    -0.205 F 
ATOM     21  C   UNL     1       8.545   5.520  -3.095  0.00  0.00    +0.002 A 
ATOM     23  C   UNL     1       8.024   5.006  -4.283  0.00  0.00    +0.013 A 
ATOM     24  C   UNL     1       7.938   6.617  -2.485  0.00  0.00    +0.013 A 
ATOM     25  C   UNL     1       6.897   5.590  -4.860  0.00  0.00    +0.039 A 
ATOM     26  C   UNL     1       6.811   7.201  -3.063  0.00  0.00    +0.039 A 
ATOM     27  C   UNL     1       6.290   6.687  -4.250  0.00  0.00    +0.123 A 
ENDBRANCH  18  21
ENDBRANCH   9  15
BRANCH  10  16
ATOM     16  C   UNL     1      11.290   6.131   2.975  0.00  0.00    +0.123 C 
BRANCH  16   6
ATOM      2  O   UNL     1       9.654   4.603   4.806  0.00  0.00    -0.273 OA
ATOM      6  N   UNL     1      11.208   6.286   4.394  0.00  0.00    -0.312 N 
ATOM     20  C   UNL     1      10.389   5.503   5.205  0.00  0.00    +0.239 C 
ATOM     29  H   UNL     1      11.778   7.008   4.827  0.00  0.00    +0.149 HD
BRANCH  20  22
ATOM     22  C   UNL     1      10.500   5.881   6.667  0.00  0.00    +0.255 C 
BRANCH  22   3
ATOM      3  O   UNL     1       9.388   5.401   7.392  0.00  0.00    -0.374 OA
ATOM     28  C   UNL     1       9.779   4.524   8.444  0.00  0.00    +0.194 C 
ENDBRANCH  22   3
ENDBRANCH  20  22
ENDBRANCH  16   6
ENDBRANCH  10  16
TORSDOF 6
ENDMDL
MODEL 10
REMARK VINA RESULT:      -5.7     20.660     25.154
REMARK  Name = 25389016
REMARK  8 active torsions:
REMARK  status: ('A' for Active; 'I' for Inactive)
REMARK    1  A    between atoms: O_3  and  C_22
REMARK    2  A    between atoms: O_3  and  C_28
REMARK    3  A    between atoms: N_5  and  C_19
REMARK    4  A    between atoms: N_6  and  C_16
REMARK    5  A    between atoms: C_9  and  C_15
REMARK    6  A    between atoms: C_10  and  C_16
REMARK    7  A    between atoms: C_18  and  C_21
REMARK    8  A    between atoms: C_20  and  C_22
REMARK                            x       y       z     vdW  Elec       q    Type
REMARK                         _______ _______ _______ _____ _____    ______ ____
ROOT
ATOM      4  N   UNL     1     -15.832   2.227  30.980  0.00  0.00    -0.297 NA
ATOM      8  C   UNL     1     -13.389   2.661  31.769  0.00  0.00    +0.002 C 
ATOM      9  C   UNL     1     -14.396   3.415  32.681  0.00  0.00    +0.055 C 
ATOM     10  C   UNL     1     -14.993   2.642  29.827  0.00  0.00    +0.074 C 
ATOM     11  C   UNL     1     -13.599   3.103  30.305  0.00  0.00    +0.024 C 
ATOM     12  C   UNL     1     -13.750   1.163  31.848  0.00  0.00    +0.019 C 
ATOM     13  C   UNL     1     -15.803   3.274  32.033  0.00  0.00    +0.094 C 
ATOM     14  C   UNL     1     -15.248   0.986  31.544  0.00  0.00    +0.085 C 
ENDROOT
BRANCH   9  15
ATOM      5  N   UNL     1     -14.075   5.290  34.359  0.00  0.00    -0.270 N 
ATOM      7  N   UNL     1     -13.773   6.593  34.489  0.00  0.00    -0.171 NA
ATOM     15  C   UNL     1     -14.081   4.852  33.068  0.00  0.00    +0.044 A 
ATOM     17  C   UNL     1     -13.761   5.945  32.300  0.00  0.00    +0.053 A 
ATOM     18  C   UNL     1     -13.582   6.987  33.228  0.00  0.00    +0.093 A 
ATOM     19  C   UNL     1     -14.356   4.510  35.542  0.00  0.00    +0.172 C 
BRANCH  18  21
ATOM      1  F   UNL     1     -12.234  12.268  32.083  0.00  0.00    -0.205 F 
ATOM     21  C   UNL     1     -13.233   8.353  32.932  0.00  0.00    +0.002 A 
ATOM     23  C   UNL     1     -12.127   8.633  32.129  0.00  0.00    +0.013 A 
ATOM     24  C   UNL     1     -14.001   9.397  33.448  0.00  0.00    +0.013 A 
ATOM     25  C   UNL     1     -11.790   9.954  31.842  0.00  0.00    +0.039 A 
ATOM     26  C   UNL     1     -13.664  10.719  33.161  0.00  0.00    +0.039 A 
ATOM     27  C   UNL     1     -12.558  10.998  32.358  0.00  0.00    +0.123 A 
ENDBRANCH  18  21
ENDBRANCH   9  15
BRANCH  10  16
ATOM     16  C   UNL     1     -15.676   3.701  28.958  0.00  0.00    +0.123 C 
BRANCH  16   6
ATOM      2  O   UNL     1     -17.543   3.828  26.753  0.00  0.00    -0.273 OA
ATOM      6  N   UNL     1     -15.391   3.489  27.573  0.00  0.00    -0.312 N 
ATOM     20  C   UNL     1     -16.356   3.569  26.571  0.00  0.00    +0.239 C 
ATOM     29  H   UNL     1     -14.435   3.264  27.314  0.00  0.00    +0.149 HD
BRANCH  20  22
ATOM     22  C   UNL     1     -15.779   3.299  25.197  0.00  0.00    +0.255 C 
BRANCH  22   3
ATOM      3  O   UNL     1     -16.346   2.134  24.638  0.00  0.00    -0.374 OA
ATOM     28  C   UNL     1     -17.174   2.432  23.518  0.00  0.00    +0.194 C 
ENDBRANCH  22   3
ENDBRANCH  20  22
ENDBRANCH  16   6
ENDBRANCH  10  16
TORSDOF 6
ENDMDL
