MODEL 1
REMARK VINA RESULT:      -6.3      0.000      0.000
REMARK  Name = 45783412
REMARK  9 active torsions:
REMARK  status: ('A' for Active; 'I' for Inactive)
REMARK    1  A    between atoms: O_3  and  C_23
REMARK    2  A    between atoms: O_3  and  C_27
REMARK    3  A    between atoms: O_4  and  C_28
REMARK    4  A    between atoms: O_4  and  C_29
REMARK    5  A    between atoms: N_5  and  C_13
REMARK    6  A    between atoms: C_9  and  C_14
REMARK    7  A    between atoms: C_13  and  C_15
REMARK    8  A    between atoms: C_18  and  C_21
REMARK    9  A    between atoms: C_27  and  C_28
REMARK                            x       y       z     vdW  Elec       q    Type
REMARK                         _______ _______ _______ _____ _____    ______ ____
ROOT
ATOM      2  O   UNL     1      15.530  11.663  20.750  0.00  0.00    -0.336 OA
ATOM      6  N   UNL     1      15.293   9.748  21.888  0.00  0.00    -0.190 NA
ATOM      7  N   UNL     1      16.090  10.661  19.948  0.00  0.00    -0.056 NA
ATOM     14  C   UNL     1      15.086  11.042  21.873  0.00  0.00    +0.245 A 
ATOM     18  C   UNL     1      15.912   9.562  20.687  0.00  0.00    +0.207 A 
ENDROOT
BRANCH  18  21
ATOM      8  N   UNL     1      15.985   6.289  18.905  0.00  0.00    -0.221 NA
ATOM     21  C   UNL     1      16.341   8.263  20.255  0.00  0.00    +0.084 A 
ATOM     23  C   UNL     1      15.618   7.516  19.339  0.00  0.00    +0.226 A 
ATOM     24  C   UNL     1      17.516   7.716  20.758  0.00  0.00    +0.018 A 
ATOM     25  C   UNL     1      17.926   6.456  20.335  0.00  0.00    +0.021 A 
ATOM     26  C   UNL     1      17.133   5.790  19.415  0.00  0.00    +0.114 A 
BRANCH  23   3
ATOM      3  O   UNL     1      14.452   8.013  18.815  0.00  0.00    -0.474 OA
BRANCH   3  27
ATOM     27  C   UNL     1      14.170   7.686  17.460  0.00  0.00    +0.258 C 
BRANCH  27  28
ATOM     28  C   UNL     1      13.080   8.605  16.945  0.00  0.00    +0.200 C 
BRANCH  28   4
ATOM      4  O   UNL     1      13.287   8.839  15.556  0.00  0.00    -0.380 OA
ATOM     29  C   UNL     1      14.424   9.660  15.331  0.00  0.00    +0.194 C 
ENDBRANCH  28   4
ENDBRANCH  27  28
ENDBRANCH   3  27
ENDBRANCH  23   3
ENDBRANCH  18  21
BRANCH  14   9
ATOM      5  N   UNL     1      13.259  11.277  23.547  0.00  0.00    -0.287 NA
ATOM      9  C   UNL     1      14.429  11.921  22.916  0.00  0.00    +0.146 C 
ATOM     10  C   UNL     1      15.369  12.258  24.088  0.00  0.00    +0.030 C 
ATOM     11  C   UNL     1      14.619  11.823  25.339  0.00  0.00    +0.017 C 
ATOM     12  C   UNL     1      13.168  11.822  24.902  0.00  0.00    +0.085 C 
BRANCH   5  13
ATOM     13  C   UNL     1      12.025  11.463  22.797  0.00  0.00    +0.123 C 
BRANCH  13  15
ATOM      1  F   UNL     1      12.369  10.931  20.034  0.00  0.00    -0.205 F 
ATOM     15  C   UNL     1      11.569  10.186  22.143  0.00  0.00    +0.002 A 
ATOM     16  C   UNL     1      11.769   9.989  20.776  0.00  0.00    +0.128 A 
ATOM     17  C   UNL     1      10.943   9.200  22.905  0.00  0.00    +0.008 A 
ATOM     19  C   UNL     1      11.344   8.805  20.172  0.00  0.00    +0.038 A 
ATOM     20  C   UNL     1      10.519   8.016  22.302  0.00  0.00    +0.000 A 
ATOM     22  C   UNL     1      10.720   7.818  20.935  0.00  0.00    +0.003 A 
ENDBRANCH  13  15
ENDBRANCH   5  13
ENDBRANCH  14   9
TORSDOF 8
ENDMDL
MODEL 2
REMARK VINA RESULT:      -6.1      3.468      6.631
REMARK  Name = 45783412
REMARK  9 active torsions:
REMARK  status: ('A' for Active; 'I' for Inactive)
REMARK    1  A    between atoms: O_3  and  C_23
REMARK    2  A    between atoms: O_3  and  C_27
REMARK    3  A    between atoms: O_4  and  C_28
REMARK    4  A    between atoms: O_4  and  C_29
REMARK    5  A    between atoms: N_5  and  C_13
REMARK    6  A    between atoms: C_9  and  C_14
REMARK    7  A    between atoms: C_13  and  C_15
REMARK    8  A    between atoms: C_18  and  C_21
REMARK    9  A    between atoms: C_27  and  C_28
REMARK                            x       y       z     vdW  Elec       q    Type
REMARK                         _______ _______ _______ _____ _____    ______ ____
ROOT
ATOM      2  O   UNL     1      13.750   8.075  16.045  0.00  0.00    -0.336 OA
ATOM      6  N   UNL     1      13.406  10.072  17.000  0.00  0.00    -0.190 NA
ATOM      7  N   UNL     1      14.331   9.020  15.191  0.00  0.00    -0.056 NA
ATOM     14  C   UNL     1      13.228   8.777  17.084  0.00  0.00    +0.245 A 
ATOM     18  C   UNL     1      14.087  10.173  15.821  0.00  0.00    +0.207 A 
ENDROOT
BRANCH  18  21
ATOM      8  N   UNL     1      14.185  13.281  13.769  0.00  0.00    -0.221 NA
ATOM     21  C   UNL     1      14.509  11.442  15.303  0.00  0.00    +0.084 A 
ATOM     23  C   UNL     1      13.822  12.087  14.287  0.00  0.00    +0.226 A 
ATOM     24  C   UNL     1      15.640  12.063  15.820  0.00  0.00    +0.018 A 
ATOM     25  C   UNL     1      16.044  13.293  15.313  0.00  0.00    +0.021 A 
ATOM     26  C   UNL     1      15.288  13.856  14.297  0.00  0.00    +0.114 A 
BRANCH  23   3
ATOM      3  O   UNL     1      12.701  11.513  13.743  0.00  0.00    -0.474 OA
BRANCH   3  27
ATOM     27  C   UNL     1      12.002  12.276  12.768  0.00  0.00    +0.258 C 
BRANCH  27  28
ATOM     28  C   UNL     1      10.525  11.945  12.845  0.00  0.00    +0.200 C 
BRANCH  28   4
ATOM      4  O   UNL     1      10.031  11.715  11.530  0.00  0.00    -0.380 OA
ATOM     29  C   UNL     1      11.058  11.847  10.558  0.00  0.00    +0.194 C 
ENDBRANCH  28   4
ENDBRANCH  27  28
ENDBRANCH   3  27
ENDBRANCH  23   3
ENDBRANCH  18  21
BRANCH  14   9
ATOM      5  N   UNL     1      13.323   7.892  19.408  0.00  0.00    -0.287 NA
ATOM      9  C   UNL     1      12.534   7.972  18.162  0.00  0.00    +0.146 C 
ATOM     10  C   UNL     1      11.188   8.587  18.591  0.00  0.00    +0.030 C 
ATOM     11  C   UNL     1      11.292   8.760  20.100  0.00  0.00    +0.017 C 
ATOM     12  C   UNL     1      12.359   7.761  20.501  0.00  0.00    +0.085 C 
BRANCH   5  13
ATOM     13  C   UNL     1      14.296   6.808  19.403  0.00  0.00    +0.123 C 
BRANCH  13  15
ATOM      1  F   UNL     1      16.739   5.454  18.923  0.00  0.00    -0.205 F 
ATOM     15  C   UNL     1      15.603   7.225  20.024  0.00  0.00    +0.002 A 
ATOM     16  C   UNL     1      16.769   6.513  19.745  0.00  0.00    +0.128 A 
ATOM     17  C   UNL     1      15.645   8.325  20.881  0.00  0.00    +0.008 A 
ATOM     19  C   UNL     1      17.979   6.901  20.322  0.00  0.00    +0.038 A 
ATOM     20  C   UNL     1      16.854   8.714  21.458  0.00  0.00    +0.000 A 
ATOM     22  C   UNL     1      18.022   8.002  21.177  0.00  0.00    +0.003 A 
ENDBRANCH  13  15
ENDBRANCH   5  13
ENDBRANCH  14   9
TORSDOF 8
ENDMDL
MODEL 3
REMARK VINA RESULT:      -6.1     26.324     29.207
REMARK  Name = 45783412
REMARK  9 active torsions:
REMARK  status: ('A' for Active; 'I' for Inactive)
REMARK    1  A    between atoms: O_3  and  C_23
REMARK    2  A    between atoms: O_3  and  C_27
REMARK    3  A    between atoms: O_4  and  C_28
REMARK    4  A    between atoms: O_4  and  C_29
REMARK    5  A    between atoms: N_5  and  C_13
REMARK    6  A    between atoms: C_9  and  C_14
REMARK    7  A    between atoms: C_13  and  C_15
REMARK    8  A    between atoms: C_18  and  C_21
REMARK    9  A    between atoms: C_27  and  C_28
REMARK                            x       y       z     vdW  Elec       q    Type
REMARK                         _______ _______ _______ _____ _____    ______ ____
ROOT
ATOM      2  O   UNL     1      -5.351 -12.390  15.419  0.00  0.00    -0.336 OA
ATOM      6  N   UNL     1      -5.385 -10.150  15.420  0.00  0.00    -0.190 NA
ATOM      7  N   UNL     1      -6.671 -12.020  15.708  0.00  0.00    -0.056 NA
ATOM     14  C   UNL     1      -4.660 -11.230  15.264  0.00  0.00    +0.245 A 
ATOM     18  C   UNL     1      -6.610 -10.685  15.691  0.00  0.00    +0.207 A 
ENDROOT
BRANCH  18  21
ATOM      8  N   UNL     1      -9.121  -8.594  17.484  0.00  0.00    -0.221 NA
ATOM     21  C   UNL     1      -7.754  -9.857  15.940  0.00  0.00    +0.084 A 
ATOM     23  C   UNL     1      -8.054  -9.376  17.205  0.00  0.00    +0.226 A 
ATOM     24  C   UNL     1      -8.604  -9.512  14.895  0.00  0.00    +0.018 A 
ATOM     25  C   UNL     1      -9.712  -8.708  15.143  0.00  0.00    +0.021 A 
ATOM     26  C   UNL     1      -9.924  -8.279  16.443  0.00  0.00    +0.114 A 
BRANCH  23   3
ATOM      3  O   UNL     1      -7.246  -9.689  18.268  0.00  0.00    -0.474 OA
BRANCH   3  27
ATOM     27  C   UNL     1      -7.689 -10.740  19.118  0.00  0.00    +0.258 C 
BRANCH  27  28
ATOM     28  C   UNL     1      -6.551 -11.720  19.328  0.00  0.00    +0.200 C 
BRANCH  28   4
ATOM      4  O   UNL     1      -5.333 -11.113  18.911  0.00  0.00    -0.380 OA
ATOM     29  C   UNL     1      -4.238 -12.010  19.031  0.00  0.00    +0.194 C 
ENDBRANCH  28   4
ENDBRANCH  27  28
ENDBRANCH   3  27
ENDBRANCH  23   3
ENDBRANCH  18  21
BRANCH  14   9
ATOM      5  N   UNL     1      -2.795 -10.573  13.754  0.00  0.00    -0.287 NA
ATOM      9  C   UNL     1      -3.188 -11.360  14.941  0.00  0.00    +0.146 C 
ATOM     10  C   UNL     1      -2.281 -10.839  16.072  0.00  0.00    +0.030 C 
ATOM     11  C   UNL     1      -1.375  -9.808  15.414  0.00  0.00    +0.017 C 
ATOM     12  C   UNL     1      -1.394 -10.200  13.950  0.00  0.00    +0.085 C 
BRANCH   5  13
ATOM     13  C   UNL     1      -3.003 -11.282  12.499  0.00  0.00    +0.123 C 
BRANCH  13  15
ATOM      1  F   UNL     1      -5.827 -11.085  12.360  0.00  0.00    -0.205 F 
ATOM     15  C   UNL     1      -3.718 -10.430  11.485  0.00  0.00    +0.002 A 
ATOM     16  C   UNL     1      -5.112 -10.378  11.472  0.00  0.00    +0.128 A 
ATOM     17  C   UNL     1      -2.984  -9.692  10.557  0.00  0.00    +0.008 A 
ATOM     19  C   UNL     1      -5.773  -9.588  10.531  0.00  0.00    +0.038 A 
ATOM     20  C   UNL     1      -3.644  -8.901   9.616  0.00  0.00    +0.000 A 
ATOM     22  C   UNL     1      -5.039  -8.849   9.604  0.00  0.00    +0.003 A 
ENDBRANCH  13  15
ENDBRANCH   5  13
ENDBRANCH  14   9
TORSDOF 8
ENDMDL
MODEL 4
REMARK VINA RESULT:      -6.0     15.527     20.487
REMARK  Name = 45783412
REMARK  9 active torsions:
REMARK  status: ('A' for Active; 'I' for Inactive)
REMARK    1  A    between atoms: O_3  and  C_23
REMARK    2  A    between atoms: O_3  and  C_27
REMARK    3  A    between atoms: O_4  and  C_28
REMARK    4  A    between atoms: O_4  and  C_29
REMARK    5  A    between atoms: N_5  and  C_13
REMARK    6  A    between atoms: C_9  and  C_14
REMARK    7  A    between atoms: C_13  and  C_15
REMARK    8  A    between atoms: C_18  and  C_21
REMARK    9  A    between atoms: C_27  and  C_28
REMARK                            x       y       z     vdW  Elec       q    Type
REMARK                         _______ _______ _______ _____ _____    ______ ____
ROOT
ATOM      2  O   UNL     1      11.515   3.835   2.640  0.00  0.00    -0.336 OA
ATOM      6  N   UNL     1      11.840   6.051   2.596  0.00  0.00    -0.190 NA
ATOM      7  N   UNL     1      10.408   4.405   3.282  0.00  0.00    -0.056 NA
ATOM     14  C   UNL     1      12.309   4.873   2.268  0.00  0.00    +0.245 A 
ATOM     18  C   UNL     1      10.673   5.713   3.216  0.00  0.00    +0.207 A 
ENDROOT
BRANCH  18  21
ATOM      8  N   UNL     1       8.895   7.878   5.674  0.00  0.00    -0.221 NA
ATOM     21  C   UNL     1       9.794   6.708   3.759  0.00  0.00    +0.084 A 
ATOM     23  C   UNL     1       9.709   6.952   5.120  0.00  0.00    +0.226 A 
ATOM     24  C   UNL     1       8.992   7.464   2.911  0.00  0.00    +0.018 A 
ATOM     25  C   UNL     1       8.142   8.427   3.444  0.00  0.00    +0.021 A 
ATOM     26  C   UNL     1       8.131   8.594   4.819  0.00  0.00    +0.114 A 
BRANCH  23   3
ATOM      3  O   UNL     1      10.479   6.231   5.996  0.00  0.00    -0.474 OA
BRANCH   3  27
ATOM     27  C   UNL     1       9.802   5.281   6.811  0.00  0.00    +0.258 C 
BRANCH  27  28
ATOM     28  C   UNL     1       9.959   5.676   8.266  0.00  0.00    +0.200 C 
BRANCH  28   4
ATOM      4  O   UNL     1      10.068   4.498   9.058  0.00  0.00    -0.380 OA
ATOM     29  C   UNL     1       9.126   4.496  10.120  0.00  0.00    +0.194 C 
ENDBRANCH  28   4
ENDBRANCH  27  28
ENDBRANCH   3  27
ENDBRANCH  23   3
ENDBRANCH  18  21
BRANCH  14   9
ATOM      5  N   UNL     1      13.430   4.515   0.075  0.00  0.00    -0.287 NA
ATOM      9  C   UNL     1      13.589   4.517   1.543  0.00  0.00    +0.146 C 
ATOM     10  C   UNL     1      14.725   5.522   1.812  0.00  0.00    +0.030 C 
ATOM     11  C   UNL     1      15.180   5.987   0.435  0.00  0.00    +0.017 C 
ATOM     12  C   UNL     1      14.736   4.866  -0.483  0.00  0.00    +0.085 C 
BRANCH   5  13
ATOM     13  C   UNL     1      12.932   3.250  -0.447  0.00  0.00    +0.123 C 
BRANCH  13  15
ATOM      1  F   UNL     1      12.149   1.285  -2.333  0.00  0.00    -0.205 F 
ATOM     15  C   UNL     1      11.805   3.452  -1.425  0.00  0.00    +0.002 A 
ATOM     16  C   UNL     1      11.472   2.442  -2.327  0.00  0.00    +0.128 A 
ATOM     17  C   UNL     1      11.094   4.652  -1.427  0.00  0.00    +0.008 A 
ATOM     19  C   UNL     1      10.426   2.632  -3.232  0.00  0.00    +0.038 A 
ATOM     20  C   UNL     1      10.049   4.842  -2.331  0.00  0.00    +0.000 A 
ATOM     22  C   UNL     1       9.714   3.831  -3.233  0.00  0.00    +0.003 A 
ENDBRANCH  13  15
ENDBRANCH   5  13
ENDBRANCH  14   9
TORSDOF 8
ENDMDL
MODEL 5
REMARK VINA RESULT:      -5.9     26.368     29.382
REMARK  Name = 45783412
REMARK  9 active torsions:
REMARK  status: ('A' for Active; 'I' for Inactive)
REMARK    1  A    between atoms: O_3  and  C_23
REMARK    2  A    between atoms: O_3  and  C_27
REMARK    3  A    between atoms: O_4  and  C_28
REMARK    4  A    between atoms: O_4  and  C_29
REMARK    5  A    between atoms: N_5  and  C_13
REMARK    6  A    between atoms: C_9  and  C_14
REMARK    7  A    between atoms: C_13  and  C_15
REMARK    8  A    between atoms: C_18  and  C_21
REMARK    9  A    between atoms: C_27  and  C_28
REMARK                            x       y       z     vdW  Elec       q    Type
REMARK                         _______ _______ _______ _____ _____    ______ ____
ROOT
ATOM      2  O   UNL     1      -4.609  -9.891  16.754  0.00  0.00    -0.336 OA
ATOM      6  N   UNL     1      -5.206 -12.050  16.736  0.00  0.00    -0.190 NA
ATOM      7  N   UNL     1      -5.802  -9.971  17.482  0.00  0.00    -0.056 NA
ATOM     14  C   UNL     1      -4.328 -11.158  16.350  0.00  0.00    +0.245 A 
ATOM     18  C   UNL     1      -6.091 -11.275  17.427  0.00  0.00    +0.207 A 
ENDROOT
BRANCH  18  21
ATOM      8  N   UNL     1      -9.629 -12.290  18.012  0.00  0.00    -0.221 NA
ATOM     21  C   UNL     1      -7.255 -11.836  18.050  0.00  0.00    +0.084 A 
ATOM     23  C   UNL     1      -8.507 -11.776  17.460  0.00  0.00    +0.226 A 
ATOM     24  C   UNL     1      -7.147 -12.464  19.286  0.00  0.00    +0.018 A 
ATOM     25  C   UNL     1      -8.279 -13.006  19.885  0.00  0.00    +0.021 A 
ATOM     26  C   UNL     1      -9.485 -12.894  19.213  0.00  0.00    +0.114 A 
BRANCH  23   3
ATOM      3  O   UNL     1      -8.664 -11.166  16.242  0.00  0.00    -0.474 OA
BRANCH   3  27
ATOM     27  C   UNL     1      -9.656 -10.150  16.160  0.00  0.00    +0.258 C 
BRANCH  27  28
ATOM     28  C   UNL     1      -8.983  -8.793  16.232  0.00  0.00    +0.200 C 
BRANCH  28   4
ATOM      4  O   UNL     1      -9.837  -7.887  16.922  0.00  0.00    -0.380 OA
ATOM     29  C   UNL     1     -10.410  -6.936  16.037  0.00  0.00    +0.194 C 
ENDBRANCH  28   4
ENDBRANCH  27  28
ENDBRANCH   3  27
ENDBRANCH  23   3
ENDBRANCH  18  21
BRANCH  14   9
ATOM      5  N   UNL     1      -3.088 -10.567  14.275  0.00  0.00    -0.287 NA
ATOM      9  C   UNL     1      -3.068 -11.341  15.532  0.00  0.00    +0.146 C 
ATOM     10  C   UNL     1      -1.805 -10.858  16.268  0.00  0.00    +0.030 C 
ATOM     11  C   UNL     1      -1.150  -9.860  15.324  0.00  0.00    +0.017 C 
ATOM     12  C   UNL     1      -1.695 -10.247  13.963  0.00  0.00    +0.085 C 
BRANCH   5  13
ATOM     13  C   UNL     1      -3.748 -11.265  13.180  0.00  0.00    +0.123 C 
BRANCH  13  15
ATOM      1  F   UNL     1      -5.989  -9.530  13.216  0.00  0.00    -0.205 F 
ATOM     15  C   UNL     1      -4.086 -10.335  12.045  0.00  0.00    +0.002 A 
ATOM     16  C   UNL     1      -5.205  -9.507  12.128  0.00  0.00    +0.128 A 
ATOM     17  C   UNL     1      -3.278 -10.304  10.909  0.00  0.00    +0.008 A 
ATOM     19  C   UNL     1      -5.517  -8.647  11.074  0.00  0.00    +0.038 A 
ATOM     20  C   UNL     1      -3.589  -9.444   9.855  0.00  0.00    +0.000 A 
ATOM     22  C   UNL     1      -4.708  -8.614   9.939  0.00  0.00    +0.003 A 
ENDBRANCH  13  15
ENDBRANCH   5  13
ENDBRANCH  14   9
TORSDOF 8
ENDMDL
MODEL 6
REMARK VINA RESULT:      -5.9      2.737      4.482
REMARK  Name = 45783412
REMARK  9 active torsions:
REMARK  status: ('A' for Active; 'I' for Inactive)
REMARK    1  A    between atoms: O_3  and  C_23
REMARK    2  A    between atoms: O_3  and  C_27
REMARK    3  A    between atoms: O_4  and  C_28
REMARK    4  A    between atoms: O_4  and  C_29
REMARK    5  A    between atoms: N_5  and  C_13
REMARK    6  A    between atoms: C_9  and  C_14
REMARK    7  A    between atoms: C_13  and  C_15
REMARK    8  A    between atoms: C_18  and  C_21
REMARK    9  A    between atoms: C_27  and  C_28
REMARK                            x       y       z     vdW  Elec       q    Type
REMARK                         _______ _______ _______ _____ _____    ______ ____
ROOT
ATOM      2  O   UNL     1      14.821   8.137  20.689  0.00  0.00    -0.336 OA
ATOM      6  N   UNL     1      13.651   9.959  20.112  0.00  0.00    -0.190 NA
ATOM      7  N   UNL     1      15.551   8.764  19.670  0.00  0.00    -0.056 NA
ATOM     14  C   UNL     1      13.717   8.904  20.887  0.00  0.00    +0.245 A 
ATOM     18  C   UNL     1      14.797   9.829  19.383  0.00  0.00    +0.207 A 
ENDROOT
BRANCH  18  21
ATOM      8  N   UNL     1      15.199  11.452  16.053  0.00  0.00    -0.221 NA
ATOM     21  C   UNL     1      15.160  10.783  18.375  0.00  0.00    +0.084 A 
ATOM     23  C   UNL     1      14.876  10.581  17.034  0.00  0.00    +0.226 A 
ATOM     24  C   UNL     1      15.819  11.954  18.732  0.00  0.00    +0.018 A 
ATOM     25  C   UNL     1      16.167  12.875  17.750  0.00  0.00    +0.021 A 
ATOM     26  C   UNL     1      15.837  12.580  16.437  0.00  0.00    +0.114 A 
BRANCH  23   3
ATOM      3  O   UNL     1      14.228   9.440  16.633  0.00  0.00    -0.474 OA
BRANCH   3  27
ATOM     27  C   UNL     1      12.807   9.473  16.650  0.00  0.00    +0.258 C 
BRANCH  27  28
ATOM     28  C   UNL     1      12.291   8.240  17.365  0.00  0.00    +0.200 C 
BRANCH  28   4
ATOM      4  O   UNL     1      10.977   7.949  16.900  0.00  0.00    -0.380 OA
ATOM     29  C   UNL     1      10.545   8.898  15.936  0.00  0.00    +0.194 C 
ENDBRANCH  28   4
ENDBRANCH  27  28
ENDBRANCH   3  27
ENDBRANCH  23   3
ENDBRANCH  18  21
BRANCH  14   9
ATOM      5  N   UNL     1      11.714   9.439  22.263  0.00  0.00    -0.287 NA
ATOM      9  C   UNL     1      12.752   8.435  21.953  0.00  0.00    +0.146 C 
ATOM     10  C   UNL     1      11.966   7.178  21.533  0.00  0.00    +0.030 C 
ATOM     11  C   UNL     1      10.499   7.553  21.696  0.00  0.00    +0.017 C 
ATOM     12  C   UNL     1      10.531   8.693  22.693  0.00  0.00    +0.085 C 
BRANCH   5  13
ATOM     13  C   UNL     1      12.138  10.415  23.257  0.00  0.00    +0.123 C 
BRANCH  13  15
ATOM      1  F   UNL     1      10.835  11.676  25.435  0.00  0.00    -0.205 F 
ATOM     15  C   UNL     1      11.386  11.713  23.125  0.00  0.00    +0.002 A 
ATOM     16  C   UNL     1      10.766  12.279  24.240  0.00  0.00    +0.128 A 
ATOM     17  C   UNL     1      11.308  12.348  21.886  0.00  0.00    +0.008 A 
ATOM     19  C   UNL     1      10.069  13.481  24.115  0.00  0.00    +0.038 A 
ATOM     20  C   UNL     1      10.611  13.550  21.761  0.00  0.00    +0.000 A 
ATOM     22  C   UNL     1       9.992  14.117  22.876  0.00  0.00    +0.003 A 
ENDBRANCH  13  15
ENDBRANCH   5  13
ENDBRANCH  14   9
TORSDOF 8
ENDMDL
MODEL 7
REMARK VINA RESULT:      -5.8      3.447      6.716
REMARK  Name = 45783412
REMARK  9 active torsions:
REMARK  status: ('A' for Active; 'I' for Inactive)
REMARK    1  A    between atoms: O_3  and  C_23
REMARK    2  A    between atoms: O_3  and  C_27
REMARK    3  A    between atoms: O_4  and  C_28
REMARK    4  A    between atoms: O_4  and  C_29
REMARK    5  A    between atoms: N_5  and  C_13
REMARK    6  A    between atoms: C_9  and  C_14
REMARK    7  A    between atoms: C_13  and  C_15
REMARK    8  A    between atoms: C_18  and  C_21
REMARK    9  A    between atoms: C_27  and  C_28
REMARK                            x       y       z     vdW  Elec       q    Type
REMARK                         _______ _______ _______ _____ _____    ______ ____
ROOT
ATOM      2  O   UNL     1      17.217   7.845  20.381  0.00  0.00    -0.336 OA
ATOM      6  N   UNL     1      15.810   9.212  21.464  0.00  0.00    -0.190 NA
ATOM      7  N   UNL     1      15.926   7.467  19.989  0.00  0.00    -0.056 NA
ATOM     14  C   UNL     1      17.058   8.878  21.251  0.00  0.00    +0.245 A 
ATOM     18  C   UNL     1      15.153   8.318  20.669  0.00  0.00    +0.207 A 
ENDROOT
BRANCH  18  21
ATOM      8  N   UNL     1      11.701   8.855  19.371  0.00  0.00    -0.221 NA
ATOM     21  C   UNL     1      13.721   8.303  20.578  0.00  0.00    +0.084 A 
ATOM     23  C   UNL     1      13.047   8.848  19.497  0.00  0.00    +0.226 A 
ATOM     24  C   UNL     1      12.966   7.729  21.594  0.00  0.00    +0.018 A 
ATOM     25  C   UNL     1      11.579   7.717  21.499  0.00  0.00    +0.021 A 
ATOM     26  C   UNL     1      11.000   8.288  20.377  0.00  0.00    +0.114 A 
BRANCH  23   3
ATOM      3  O   UNL     1      13.748   9.426  18.470  0.00  0.00    -0.474 OA
BRANCH   3  27
ATOM     27  C   UNL     1      13.812   8.698  17.250  0.00  0.00    +0.258 C 
BRANCH  27  28
ATOM     28  C   UNL     1      13.287   9.569  16.126  0.00  0.00    +0.200 C 
BRANCH  28   4
ATOM      4  O   UNL     1      12.361   8.816  15.350  0.00  0.00    -0.380 OA
ATOM     29  C   UNL     1      11.019   9.103  15.719  0.00  0.00    +0.194 C 
ENDBRANCH  28   4
ENDBRANCH  27  28
ENDBRANCH   3  27
ENDBRANCH  23   3
ENDBRANCH  18  21
BRANCH  14   9
ATOM      5  N   UNL     1      19.507   8.618  21.610  0.00  0.00    -0.287 NA
ATOM      9  C   UNL     1      18.324   9.475  21.827  0.00  0.00    +0.146 C 
ATOM     10  C   UNL     1      18.694  10.823  21.180  0.00  0.00    +0.030 C 
ATOM     11  C   UNL     1      20.122  10.647  20.682  0.00  0.00    +0.017 C 
ATOM     12  C   UNL     1      20.660   9.515  21.534  0.00  0.00    +0.085 C 
BRANCH   5  13
ATOM     13  C   UNL     1      19.672   7.597  22.635  0.00  0.00    +0.123 C 
BRANCH  13  15
ATOM      1  F   UNL     1      21.663   6.147  24.037  0.00  0.00    -0.205 F 
ATOM     15  C   UNL     1      20.321   6.353  22.089  0.00  0.00    +0.002 A 
ATOM     16  C   UNL     1      21.296   5.688  22.832  0.00  0.00    +0.128 A 
ATOM     17  C   UNL     1      19.946   5.867  20.837  0.00  0.00    +0.008 A 
ATOM     19  C   UNL     1      21.896   4.535  22.323  0.00  0.00    +0.038 A 
ATOM     20  C   UNL     1      20.546   4.715  20.327  0.00  0.00    +0.000 A 
ATOM     22  C   UNL     1      21.520   4.048  21.072  0.00  0.00    +0.003 A 
ENDBRANCH  13  15
ENDBRANCH   5  13
ENDBRANCH  14   9
TORSDOF 8
ENDMDL
MODEL 8
REMARK VINA RESULT:      -5.8     26.338     29.362
REMARK  Name = 45783412
REMARK  9 active torsions:
REMARK  status: ('A' for Active; 'I' for Inactive)
REMARK    1  A    between atoms: O_3  and  C_23
REMARK    2  A    between atoms: O_3  and  C_27
REMARK    3  A    between atoms: O_4  and  C_28
REMARK    4  A    between atoms: O_4  and  C_29
REMARK    5  A    between atoms: N_5  and  C_13
REMARK    6  A    between atoms: C_9  and  C_14
REMARK    7  A    between atoms: C_13  and  C_15
REMARK    8  A    between atoms: C_18  and  C_21
REMARK    9  A    between atoms: C_27  and  C_28
REMARK                            x       y       z     vdW  Elec       q    Type
REMARK                         _______ _______ _______ _____ _____    ______ ____
ROOT
ATOM      2  O   UNL     1      -4.099 -11.067  17.930  0.00  0.00    -0.336 OA
ATOM      6  N   UNL     1      -5.504 -10.590  16.251  0.00  0.00    -0.190 NA
ATOM      7  N   UNL     1      -5.327 -10.754  18.526  0.00  0.00    -0.056 NA
ATOM     14  C   UNL     1      -4.289 -10.945  16.590  0.00  0.00    +0.245 A 
ATOM     18  C   UNL     1      -6.103 -10.484  17.472  0.00  0.00    +0.207 A 
ENDROOT
BRANCH  18  21
ATOM      8  N   UNL     1      -9.697 -10.558  18.456  0.00  0.00    -0.221 NA
ATOM     21  C   UNL     1      -7.480 -10.106  17.604  0.00  0.00    +0.084 A 
ATOM     23  C   UNL     1      -8.392 -10.876  18.307  0.00  0.00    +0.226 A 
ATOM     24  C   UNL     1      -7.938  -8.932  17.015  0.00  0.00    +0.018 A 
ATOM     25  C   UNL     1      -9.275  -8.571  17.146  0.00  0.00    +0.021 A 
ATOM     26  C   UNL     1     -10.106  -9.410  17.871  0.00  0.00    +0.114 A 
BRANCH  23   3
ATOM      3  O   UNL     1      -7.988 -12.043  18.905  0.00  0.00    -0.474 OA
BRANCH   3  27
ATOM     27  C   UNL     1      -8.626 -13.237  18.471  0.00  0.00    +0.258 C 
BRANCH  27  28
ATOM     28  C   UNL     1      -7.979 -13.705  17.183  0.00  0.00    +0.200 C 
BRANCH  28   4
ATOM      4  O   UNL     1      -6.594 -13.940  17.417  0.00  0.00    -0.380 OA
ATOM     29  C   UNL     1      -5.904 -14.229  16.210  0.00  0.00    +0.194 C 
ENDBRANCH  28   4
ENDBRANCH  27  28
ENDBRANCH   3  27
ENDBRANCH  23   3
ENDBRANCH  18  21
BRANCH  14   9
ATOM      5  N   UNL     1      -3.156 -10.530  14.414  0.00  0.00    -0.287 NA
ATOM      9  C   UNL     1      -3.093 -11.236  15.709  0.00  0.00    +0.146 C 
ATOM     10  C   UNL     1      -1.765 -10.776  16.339  0.00  0.00    +0.030 C 
ATOM     11  C   UNL     1      -1.125  -9.865  15.302  0.00  0.00    +0.017 C 
ATOM     12  C   UNL     1      -1.772 -10.297  14.001  0.00  0.00    +0.085 C 
BRANCH   5  13
ATOM     13  C   UNL     1      -3.916 -11.252  13.402  0.00  0.00    +0.123 C 
BRANCH  13  15
ATOM      1  F   UNL     1      -2.655 -10.765  10.911  0.00  0.00    -0.205 F 
ATOM     15  C   UNL     1      -4.485 -10.326  12.360  0.00  0.00    +0.002 A 
ATOM     16  C   UNL     1      -3.811 -10.131  11.155  0.00  0.00    +0.128 A 
ATOM     17  C   UNL     1      -5.686  -9.661  12.604  0.00  0.00    +0.008 A 
ATOM     19  C   UNL     1      -4.341  -9.272  10.191  0.00  0.00    +0.038 A 
ATOM     20  C   UNL     1      -6.216  -8.802  11.641  0.00  0.00    +0.000 A 
ATOM     22  C   UNL     1      -5.543  -8.608  10.433  0.00  0.00    +0.003 A 
ENDBRANCH  13  15
ENDBRANCH   5  13
ENDBRANCH  14   9
TORSDOF 8
ENDMDL
MODEL 9
REMARK VINA RESULT:      -5.7      3.202      6.444
REMARK  Name = 45783412
REMARK  9 active torsions:
REMARK  status: ('A' for Active; 'I' for Inactive)
REMARK    1  A    between atoms: O_3  and  C_23
REMARK    2  A    between atoms: O_3  and  C_27
REMARK    3  A    between atoms: O_4  and  C_28
REMARK    4  A    between atoms: O_4  and  C_29
REMARK    5  A    between atoms: N_5  and  C_13
REMARK    6  A    between atoms: C_9  and  C_14
REMARK    7  A    between atoms: C_13  and  C_15
REMARK    8  A    between atoms: C_18  and  C_21
REMARK    9  A    between atoms: C_27  and  C_28
REMARK                            x       y       z     vdW  Elec       q    Type
REMARK                         _______ _______ _______ _____ _____    ______ ____
ROOT
ATOM      2  O   UNL     1      12.805   9.351  16.187  0.00  0.00    -0.336 OA
ATOM      6  N   UNL     1      13.235   9.983  18.293  0.00  0.00    -0.190 NA
ATOM      7  N   UNL     1      12.191   8.401  17.012  0.00  0.00    -0.056 NA
ATOM     14  C   UNL     1      13.398  10.246  17.020  0.00  0.00    +0.245 A 
ATOM     18  C   UNL     1      12.489   8.842  18.238  0.00  0.00    +0.207 A 
ENDROOT
BRANCH  18  21
ATOM      8  N   UNL     1      12.374   6.418  21.066  0.00  0.00    -0.221 NA
ATOM     21  C   UNL     1      12.058   8.167  19.428  0.00  0.00    +0.084 A 
ATOM     23  C   UNL     1      12.744   7.082  19.949  0.00  0.00    +0.226 A 
ATOM     24  C   UNL     1      10.918   8.598  20.097  0.00  0.00    +0.018 A 
ATOM     25  C   UNL     1      10.505   7.939  21.250  0.00  0.00    +0.021 A 
ATOM     26  C   UNL     1      11.261   6.865  21.690  0.00  0.00    +0.114 A 
BRANCH  23   3
ATOM      3  O   UNL     1      13.875   6.620  19.324  0.00  0.00    -0.474 OA
BRANCH   3  27
ATOM     27  C   UNL     1      15.109   6.832  19.997  0.00  0.00    +0.258 C 
BRANCH  27  28
ATOM     28  C   UNL     1      16.245   6.363  19.110  0.00  0.00    +0.200 C 
BRANCH  28   4
ATOM      4  O   UNL     1      17.407   6.167  19.908  0.00  0.00    -0.380 OA
ATOM     29  C   UNL     1      17.200   6.603  21.243  0.00  0.00    +0.194 C 
ENDBRANCH  28   4
ENDBRANCH  27  28
ENDBRANCH   3  27
ENDBRANCH  23   3
ENDBRANCH  18  21
BRANCH  14   9
ATOM      5  N   UNL     1      15.505  11.565  16.900  0.00  0.00    -0.287 NA
ATOM      9  C   UNL     1      14.140  11.391  16.363  0.00  0.00    +0.146 C 
ATOM     10  C   UNL     1      14.340  11.180  14.851  0.00  0.00    +0.030 C 
ATOM     11  C   UNL     1      15.839  11.314  14.624  0.00  0.00    +0.017 C 
ATOM     12  C   UNL     1      16.308  12.127  15.814  0.00  0.00    +0.085 C 
BRANCH   5  13
ATOM     13  C   UNL     1      15.549  12.392  18.099  0.00  0.00    +0.123 C 
BRANCH  13  15
ATOM      1  F   UNL     1      18.208  13.332  18.378  0.00  0.00    -0.205 F 
ATOM     15  C   UNL     1      16.510  11.846  19.121  0.00  0.00    +0.002 A 
ATOM     16  C   UNL     1      17.806  12.355  19.204  0.00  0.00    +0.128 A 
ATOM     17  C   UNL     1      16.103  10.830  19.985  0.00  0.00    +0.008 A 
ATOM     19  C   UNL     1      18.696  11.847  20.152  0.00  0.00    +0.038 A 
ATOM     20  C   UNL     1      16.991  10.322  20.933  0.00  0.00    +0.000 A 
ATOM     22  C   UNL     1      18.288  10.832  21.017  0.00  0.00    +0.003 A 
ENDBRANCH  13  15
ENDBRANCH   5  13
ENDBRANCH  14   9
TORSDOF 8
ENDMDL
MODEL 10
REMARK VINA RESULT:      -5.6      3.134      6.499
REMARK  Name = 45783412
REMARK  9 active torsions:
REMARK  status: ('A' for Active; 'I' for Inactive)
REMARK    1  A    between atoms: O_3  and  C_23
REMARK    2  A    between atoms: O_3  and  C_27
REMARK    3  A    between atoms: O_4  and  C_28
REMARK    4  A    between atoms: O_4  and  C_29
REMARK    5  A    between atoms: N_5  and  C_13
REMARK    6  A    between atoms: C_9  and  C_14
REMARK    7  A    between atoms: C_13  and  C_15
REMARK    8  A    between atoms: C_18  and  C_21
REMARK    9  A    between atoms: C_27  and  C_28
REMARK                            x       y       z     vdW  Elec       q    Type
REMARK                         _______ _______ _______ _____ _____    ______ ____
ROOT
ATOM      2  O   UNL     1      13.378   8.864  15.484  0.00  0.00    -0.336 OA
ATOM      6  N   UNL     1      14.319  10.061  17.127  0.00  0.00    -0.190 NA
ATOM      7  N   UNL     1      14.117   9.875  14.856  0.00  0.00    -0.056 NA
ATOM     14  C   UNL     1      13.550   9.047  16.819  0.00  0.00    +0.245 A 
ATOM     18  C   UNL     1      14.642  10.538  15.890  0.00  0.00    +0.207 A 
ENDROOT
BRANCH  18  21
ATOM      8  N   UNL     1      15.924  14.032  16.079  0.00  0.00    -0.221 NA
ATOM     21  C   UNL     1      15.493  11.681  15.723  0.00  0.00    +0.084 A 
ATOM     23  C   UNL     1      15.153  12.931  16.214  0.00  0.00    +0.226 A 
ATOM     24  C   UNL     1      16.704  11.553  15.051  0.00  0.00    +0.018 A 
ATOM     25  C   UNL     1      17.525  12.664  14.892  0.00  0.00    +0.021 A 
ATOM     26  C   UNL     1      17.093  13.871  15.421  0.00  0.00    +0.114 A 
BRANCH  23   3
ATOM      3  O   UNL     1      13.969  13.106  16.883  0.00  0.00    -0.474 OA
BRANCH   3  27
ATOM     27  C   UNL     1      13.984  14.009  17.982  0.00  0.00    +0.258 C 
BRANCH  27  28
ATOM     28  C   UNL     1      14.144  13.221  19.268  0.00  0.00    +0.200 C 
BRANCH  28   4
ATOM      4  O   UNL     1      13.079  12.282  19.373  0.00  0.00    -0.380 OA
ATOM     29  C   UNL     1      13.166  11.530  20.575  0.00  0.00    +0.194 C 
ENDBRANCH  28   4
ENDBRANCH  27  28
ENDBRANCH   3  27
ENDBRANCH  23   3
ENDBRANCH  18  21
BRANCH  14   9
ATOM      5  N   UNL     1      13.527   7.902  19.029  0.00  0.00    -0.287 NA
ATOM      9  C   UNL     1      12.842   8.068  17.731  0.00  0.00    +0.146 C 
ATOM     10  C   UNL     1      11.416   8.520  18.097  0.00  0.00    +0.030 C 
ATOM     11  C   UNL     1      11.376   8.521  19.618  0.00  0.00    +0.017 C 
ATOM     12  C   UNL     1      12.489   7.568  20.005  0.00  0.00    +0.085 C 
BRANCH   5  13
ATOM     13  C   UNL     1      14.589   6.907  18.995  0.00  0.00    +0.123 C 
BRANCH  13  15
ATOM      1  F   UNL     1      17.016   5.445  19.049  0.00  0.00    -0.205 F 
ATOM     15  C   UNL     1      15.799   7.351  19.773  0.00  0.00    +0.002 A 
ATOM     16  C   UNL     1      16.963   6.583  19.756  0.00  0.00    +0.128 A 
ATOM     17  C   UNL     1      15.754   8.533  20.512  0.00  0.00    +0.008 A 
ATOM     19  C   UNL     1      18.083   6.996  20.479  0.00  0.00    +0.038 A 
ATOM     20  C   UNL     1      16.873   8.947  21.234  0.00  0.00    +0.000 A 
ATOM     22  C   UNL     1      18.039   8.179  21.216  0.00  0.00    +0.003 A 
ENDBRANCH  13  15
ENDBRANCH   5  13
ENDBRANCH  14   9
TORSDOF 8
ENDMDL
