MODEL 1
REMARK VINA RESULT:      -6.6      0.000      0.000
REMARK  Name = 45361509
REMARK  14 active torsions:
REMARK  status: ('A' for Active; 'I' for Inactive)
REMARK    1  A    between atoms: O_1  and  C_11
REMARK    2  A    between atoms: O_4  and  C_24
REMARK    3  A    between atoms: O_4  and  C_27
REMARK    4  A    between atoms: O_5  and  C_28
REMARK    5  A    between atoms: O_5  and  C_33
REMARK    6  A    between atoms: N_6  and  C_15
REMARK    7  A    between atoms: N_7  and  C_25
REMARK    8  A    between atoms: C_8  and  C_18
REMARK    9  A    between atoms: C_10  and  C_20
REMARK   10  A    between atoms: C_14  and  C_19
REMARK   11  A    between atoms: C_19  and  C_21
REMARK   12  A    between atoms: C_19  and  C_22
REMARK   13  A    between atoms: C_23  and  C_24
REMARK   14  A    between atoms: C_25  and  C_26
REMARK                            x       y       z     vdW  Elec       q    Type
REMARK                         _______ _______ _______ _____ _____    ______ ____
ROOT
ATOM      8  C   UNL     1      -3.412 -10.889  11.003  0.00  0.00    -0.027 C 
ATOM      9  C   UNL     1      -4.722 -10.430  11.725  0.00  0.00    +0.028 C 
ATOM     10  C   UNL     1      -5.474  -9.339  10.880  0.00  0.00    +0.012 C 
ATOM     11  C   UNL     1      -4.444 -10.050  13.208  0.00  0.00    +0.122 C 
ATOM     12  C   UNL     1      -2.758 -12.040  11.803  0.00  0.00    +0.007 C 
ATOM     13  C   UNL     1      -3.774 -11.437   9.602  0.00  0.00    +0.009 C 
ATOM     14  C   UNL     1      -3.696 -11.165  13.976  0.00  0.00    +0.029 C 
ATOM     15  C   UNL     1      -5.767  -9.874   9.450  0.00  0.00    +0.076 C 
ATOM     16  C   UNL     1      -2.448 -11.659  13.245  0.00  0.00    +0.007 C 
ATOM     17  C   UNL     1      -4.529 -10.431   8.745  0.00  0.00    +0.023 C 
ATOM     18  C   UNL     1      -2.383  -9.740  10.850  0.00  0.00    +0.011 C 
ATOM     20  C   UNL     1      -6.788  -8.862  11.521  0.00  0.00    +0.010 C 
ENDROOT
BRANCH  15   6
ATOM      3  O   UNL     1      -8.206 -10.077   7.909  0.00  0.00    -0.273 OA
ATOM      6  N   UNL     1      -6.355  -8.854   8.606  0.00  0.00    -0.310 N 
ATOM     23  C   UNL     1      -7.532  -9.050   7.905  0.00  0.00    +0.239 C 
ATOM     34  H   UNL     1      -5.843  -7.986   8.480  0.00  0.00    +0.149 HD
BRANCH  23  24
ATOM     24  C   UNL     1      -7.916  -7.821   7.108  0.00  0.00    +0.255 C 
BRANCH  24   4
ATOM      4  O   UNL     1      -7.892  -6.670   7.923  0.00  0.00    -0.374 OA
ATOM     27  C   UNL     1      -9.164  -6.406   8.509  0.00  0.00    +0.194 C 
ENDBRANCH  24   4
ENDBRANCH  23  24
ENDBRANCH  15   6
BRANCH  11   1
ATOM      1  O   UNL     1      -5.683  -9.846  13.888  0.00  0.00    -0.391 OA
ATOM     35  H   UNL     1      -5.516  -9.277  14.658  0.00  0.00    +0.210 HD
ENDBRANCH  11   1
BRANCH  14  19
ATOM     19  C   UNL     1      -3.316 -10.722  15.395  0.00  0.00    +0.077 C 
ATOM     21  C   UNL     1      -1.847 -11.029  15.665  0.00  0.00    +0.017 C 
BRANCH  19  22
ATOM      2  O   UNL     1      -4.472 -12.608  16.382  0.00  0.00    -0.276 OA
ATOM      7  N   UNL     1      -4.725 -10.519  17.356  0.00  0.00    -0.311 N 
ATOM     22  C   UNL     1      -4.223 -11.405  16.414  0.00  0.00    +0.216 C 
ATOM     36  H   UNL     1      -4.431  -9.547  17.345  0.00  0.00    +0.149 HD
BRANCH   7  25
ATOM     25  C   UNL     1      -5.610 -10.930  18.422  0.00  0.00    +0.143 C 
BRANCH  25  26
ATOM     26  C   UNL     1      -7.014 -10.441  18.206  0.00  0.00    +0.011 A 
ATOM     28  C   UNL     1      -8.059 -10.895  19.009  0.00  0.00    +0.125 A 
ATOM     29  C   UNL     1      -7.266  -9.522  17.187  0.00  0.00    +0.009 A 
ATOM     30  C   UNL     1      -9.357 -10.432  18.794  0.00  0.00    +0.046 A 
ATOM     31  C   UNL     1      -8.564  -9.059  16.971  0.00  0.00    +0.001 A 
ATOM     32  C   UNL     1      -9.610  -9.514  17.775  0.00  0.00    +0.004 A 
BRANCH  28   5
ATOM      5  O   UNL     1      -7.830 -11.793  20.009  0.00  0.00    -0.495 OA
ATOM     33  C   UNL     1      -8.392 -13.095  19.851  0.00  0.00    +0.277 C 
ENDBRANCH  28   5
ENDBRANCH  25  26
ENDBRANCH   7  25
ENDBRANCH  19  22
ENDBRANCH  14  19
TORSDOF 9
ENDMDL
MODEL 2
REMARK VINA RESULT:      -6.6     24.293     27.587
REMARK  Name = 45361509
REMARK  14 active torsions:
REMARK  status: ('A' for Active; 'I' for Inactive)
REMARK    1  A    between atoms: O_1  and  C_11
REMARK    2  A    between atoms: O_4  and  C_24
REMARK    3  A    between atoms: O_4  and  C_27
REMARK    4  A    between atoms: O_5  and  C_28
REMARK    5  A    between atoms: O_5  and  C_33
REMARK    6  A    between atoms: N_6  and  C_15
REMARK    7  A    between atoms: N_7  and  C_25
REMARK    8  A    between atoms: C_8  and  C_18
REMARK    9  A    between atoms: C_10  and  C_20
REMARK   10  A    between atoms: C_14  and  C_19
REMARK   11  A    between atoms: C_19  and  C_21
REMARK   12  A    between atoms: C_19  and  C_22
REMARK   13  A    between atoms: C_23  and  C_24
REMARK   14  A    between atoms: C_25  and  C_26
REMARK                            x       y       z     vdW  Elec       q    Type
REMARK                         _______ _______ _______ _____ _____    ______ ____
ROOT
ATOM      8  C   UNL     1       9.403   6.569   6.347  0.00  0.00    -0.027 C 
ATOM      9  C   UNL     1      10.530   7.524   5.829  0.00  0.00    +0.028 C 
ATOM     10  C   UNL     1      10.208   9.018   6.193  0.00  0.00    +0.012 C 
ATOM     11  C   UNL     1      10.851   7.257   4.331  0.00  0.00    +0.122 C 
ATOM     12  C   UNL     1       9.806   5.101   6.074  0.00  0.00    +0.007 C 
ATOM     13  C   UNL     1       9.262   6.741   7.878  0.00  0.00    +0.009 C 
ATOM     14  C   UNL     1      11.150   5.766   4.044  0.00  0.00    +0.029 C 
ATOM     15  C   UNL     1       9.993   9.165   7.726  0.00  0.00    +0.076 C 
ATOM     16  C   UNL     1      10.083   4.825   4.602  0.00  0.00    +0.007 C 
ATOM     17  C   UNL     1       8.975   8.176   8.294  0.00  0.00    +0.023 C 
ATOM     18  C   UNL     1       8.035   6.845   5.675  0.00  0.00    +0.011 C 
ATOM     20  C   UNL     1      11.291  10.011   5.737  0.00  0.00    +0.010 C 
ENDROOT
BRANCH  15   6
ATOM      3  O   UNL     1      11.384  11.018   9.458  0.00  0.00    -0.273 OA
ATOM      6  N   UNL     1       9.580  10.506   8.084  0.00  0.00    -0.310 N 
ATOM     23  C   UNL     1      10.319  11.319   8.925  0.00  0.00    +0.239 C 
ATOM     34  H   UNL     1       8.678  10.833   7.749  0.00  0.00    +0.149 HD
BRANCH  23  24
ATOM     24  C   UNL     1       9.656  12.665   9.125  0.00  0.00    +0.255 C 
BRANCH  24   4
ATOM      4  O   UNL     1       8.253  12.551   9.013  0.00  0.00    -0.374 OA
ATOM     27  C   UNL     1       7.589  12.977  10.199  0.00  0.00    +0.194 C 
ENDBRANCH  24   4
ENDBRANCH  23  24
ENDBRANCH  15   6
BRANCH  11   1
ATOM      1  O   UNL     1      12.019   7.987   3.955  0.00  0.00    -0.391 OA
ATOM     35  H   UNL     1      12.431   8.336   4.764  0.00  0.00    +0.210 HD
ENDBRANCH  11   1
BRANCH  14  19
ATOM     19  C   UNL     1      11.335   5.501   2.545  0.00  0.00    +0.077 C 
ATOM     21  C   UNL     1      10.462   4.330   2.108  0.00  0.00    +0.017 C 
BRANCH  19  22
ATOM      2  O   UNL     1      13.669   6.113   2.331  0.00  0.00    -0.276 OA
ATOM      7  N   UNL     1      13.047   3.931   1.851  0.00  0.00    -0.311 N 
ATOM     22  C   UNL     1      12.807   5.241   2.240  0.00  0.00    +0.216 C 
ATOM     36  H   UNL     1      12.288   3.256   1.851  0.00  0.00    +0.149 HD
BRANCH   7  25
ATOM     25  C   UNL     1      14.363   3.446   1.507  0.00  0.00    +0.143 C 
BRANCH  25  26
ATOM     26  C   UNL     1      14.799   3.919   0.150  0.00  0.00    +0.011 A 
ATOM     28  C   UNL     1      13.941   3.830  -0.945  0.00  0.00    +0.125 A 
ATOM     29  C   UNL     1      16.079   4.451  -0.008  0.00  0.00    +0.009 A 
ATOM     30  C   UNL     1      14.362   4.272  -2.200  0.00  0.00    +0.046 A 
ATOM     31  C   UNL     1      16.500   4.894  -1.261  0.00  0.00    +0.001 A 
ATOM     32  C   UNL     1      15.642   4.805  -2.358  0.00  0.00    +0.004 A 
BRANCH  28   5
ATOM      5  O   UNL     1      12.688   3.312  -0.809  0.00  0.00    -0.495 OA
ATOM     33  C   UNL     1      12.211   2.483  -1.868  0.00  0.00    +0.277 C 
ENDBRANCH  28   5
ENDBRANCH  25  26
ENDBRANCH   7  25
ENDBRANCH  19  22
ENDBRANCH  14  19
TORSDOF 9
ENDMDL
MODEL 3
REMARK VINA RESULT:      -6.6      2.784      8.798
REMARK  Name = 45361509
REMARK  14 active torsions:
REMARK  status: ('A' for Active; 'I' for Inactive)
REMARK    1  A    between atoms: O_1  and  C_11
REMARK    2  A    between atoms: O_4  and  C_24
REMARK    3  A    between atoms: O_4  and  C_27
REMARK    4  A    between atoms: O_5  and  C_28
REMARK    5  A    between atoms: O_5  and  C_33
REMARK    6  A    between atoms: N_6  and  C_15
REMARK    7  A    between atoms: N_7  and  C_25
REMARK    8  A    between atoms: C_8  and  C_18
REMARK    9  A    between atoms: C_10  and  C_20
REMARK   10  A    between atoms: C_14  and  C_19
REMARK   11  A    between atoms: C_19  and  C_21
REMARK   12  A    between atoms: C_19  and  C_22
REMARK   13  A    between atoms: C_23  and  C_24
REMARK   14  A    between atoms: C_25  and  C_26
REMARK                            x       y       z     vdW  Elec       q    Type
REMARK                         _______ _______ _______ _____ _____    ______ ____
ROOT
ATOM      8  C   UNL     1      -4.962 -11.211  17.856  0.00  0.00    -0.027 C 
ATOM      9  C   UNL     1      -5.532 -12.320  16.910  0.00  0.00    +0.028 C 
ATOM     10  C   UNL     1      -6.337 -13.392  17.727  0.00  0.00    +0.012 C 
ATOM     11  C   UNL     1      -4.425 -12.887  15.975  0.00  0.00    +0.122 C 
ATOM     12  C   UNL     1      -4.274 -10.115  17.009  0.00  0.00    +0.007 C 
ATOM     13  C   UNL     1      -6.133 -10.549  18.619  0.00  0.00    +0.009 C 
ATOM     14  C   UNL     1      -3.669 -11.776  15.208  0.00  0.00    +0.029 C 
ATOM     15  C   UNL     1      -7.465 -12.707  18.550  0.00  0.00    +0.076 C 
ATOM     16  C   UNL     1      -3.163 -10.659  16.121  0.00  0.00    +0.007 C 
ATOM     17  C   UNL     1      -6.968 -11.546  19.411  0.00  0.00    +0.023 C 
ATOM     18  C   UNL     1      -3.938 -11.769  18.876  0.00  0.00    +0.011 C 
ATOM     20  C   UNL     1      -6.951 -14.500  16.854  0.00  0.00    +0.010 C 
ENDROOT
BRANCH  15   6
ATOM      3  O   UNL     1     -10.143 -12.465  19.616  0.00  0.00    -0.273 OA
ATOM      6  N   UNL     1      -8.154 -13.651  19.406  0.00  0.00    -0.310 N 
ATOM     23  C   UNL     1      -9.442 -13.442  19.866  0.00  0.00    +0.239 C 
ATOM     34  H   UNL     1      -7.641 -14.466  19.727  0.00  0.00    +0.149 HD
BRANCH  23  24
ATOM     24  C   UNL     1      -9.915 -14.586  20.738  0.00  0.00    +0.255 C 
BRANCH  24   4
ATOM      4  O   UNL     1     -10.638 -14.101  21.848  0.00  0.00    -0.374 OA
ATOM     27  C   UNL     1     -10.412 -14.886  23.015  0.00  0.00    +0.194 C 
ENDBRANCH  24   4
ENDBRANCH  23  24
ENDBRANCH  15   6
BRANCH  11   1
ATOM      1  O   UNL     1      -5.020 -13.731  14.989  0.00  0.00    -0.391 OA
ATOM     35  H   UNL     1      -4.975 -13.274  14.132  0.00  0.00    +0.210 HD
ENDBRANCH  11   1
BRANCH  14  19
ATOM     19  C   UNL     1      -2.499 -12.342  14.394  0.00  0.00    +0.077 C 
ATOM     21  C   UNL     1      -1.179 -11.782  14.913  0.00  0.00    +0.017 C 
BRANCH  19  22
ATOM      2  O   UNL     1      -1.849 -11.437  12.243  0.00  0.00    -0.276 OA
ATOM      7  N   UNL     1      -3.915 -12.473  12.431  0.00  0.00    -0.311 N 
ATOM     22  C   UNL     1      -2.694 -12.026  12.914  0.00  0.00    +0.216 C 
ATOM     36  H   UNL     1      -4.538 -12.999  13.037  0.00  0.00    +0.149 HD
BRANCH   7  25
ATOM     25  C   UNL     1      -4.329 -12.288  11.060  0.00  0.00    +0.143 C 
BRANCH  25  26
ATOM     26  C   UNL     1      -4.607 -10.846  10.747  0.00  0.00    +0.011 A 
ATOM     28  C   UNL     1      -5.509 -10.111  11.515  0.00  0.00    +0.125 A 
ATOM     29  C   UNL     1      -3.951 -10.242   9.674  0.00  0.00    +0.009 A 
ATOM     30  C   UNL     1      -5.758  -8.772  11.209  0.00  0.00    +0.046 A 
ATOM     31  C   UNL     1      -4.199  -8.904   9.368  0.00  0.00    +0.001 A 
ATOM     32  C   UNL     1      -5.102  -8.169  10.136  0.00  0.00    +0.004 A 
BRANCH  28   5
ATOM      5  O   UNL     1      -6.160 -10.685  12.566  0.00  0.00    -0.495 OA
ATOM     33  C   UNL     1      -6.365  -9.874  13.721  0.00  0.00    +0.277 C 
ENDBRANCH  28   5
ENDBRANCH  25  26
ENDBRANCH   7  25
ENDBRANCH  19  22
ENDBRANCH  14  19
TORSDOF 9
ENDMDL
MODEL 4
REMARK VINA RESULT:      -6.4      2.366      8.060
REMARK  Name = 45361509
REMARK  14 active torsions:
REMARK  status: ('A' for Active; 'I' for Inactive)
REMARK    1  A    between atoms: O_1  and  C_11
REMARK    2  A    between atoms: O_4  and  C_24
REMARK    3  A    between atoms: O_4  and  C_27
REMARK    4  A    between atoms: O_5  and  C_28
REMARK    5  A    between atoms: O_5  and  C_33
REMARK    6  A    between atoms: N_6  and  C_15
REMARK    7  A    between atoms: N_7  and  C_25
REMARK    8  A    between atoms: C_8  and  C_18
REMARK    9  A    between atoms: C_10  and  C_20
REMARK   10  A    between atoms: C_14  and  C_19
REMARK   11  A    between atoms: C_19  and  C_21
REMARK   12  A    between atoms: C_19  and  C_22
REMARK   13  A    between atoms: C_23  and  C_24
REMARK   14  A    between atoms: C_25  and  C_26
REMARK                            x       y       z     vdW  Elec       q    Type
REMARK                         _______ _______ _______ _____ _____    ______ ____
ROOT
ATOM      8  C   UNL     1      -4.753 -11.047  16.905  0.00  0.00    -0.027 C 
ATOM      9  C   UNL     1      -5.523 -10.448  15.681  0.00  0.00    +0.028 C 
ATOM     10  C   UNL     1      -7.076 -10.571  15.884  0.00  0.00    +0.012 C 
ATOM     11  C   UNL     1      -4.978 -11.017  14.339  0.00  0.00    +0.122 C 
ATOM     12  C   UNL     1      -3.235 -10.808  16.726  0.00  0.00    +0.007 C 
ATOM     13  C   UNL     1      -5.197 -10.308  18.190  0.00  0.00    +0.009 C 
ATOM     14  C   UNL     1      -3.444 -10.870  14.212  0.00  0.00    +0.029 C 
ATOM     15  C   UNL     1      -7.501  -9.890  17.215  0.00  0.00    +0.076 C 
ATOM     16  C   UNL     1      -2.690 -11.398  15.432  0.00  0.00    +0.007 C 
ATOM     17  C   UNL     1      -6.699 -10.370  18.425  0.00  0.00    +0.023 C 
ATOM     18  C   UNL     1      -5.002 -12.566  17.079  0.00  0.00    +0.011 C 
ATOM     20  C   UNL     1      -7.897  -9.975  14.727  0.00  0.00    +0.010 C 
ENDROOT
BRANCH  15   6
ATOM      3  O   UNL     1      -9.531  -7.844  17.461  0.00  0.00    -0.273 OA
ATOM      6  N   UNL     1      -8.909 -10.085  17.492  0.00  0.00    -0.310 N 
ATOM     23  C   UNL     1      -9.806  -9.035  17.591  0.00  0.00    +0.239 C 
ATOM     34  H   UNL     1      -9.232 -11.029  17.681  0.00  0.00    +0.149 HD
BRANCH  23  24
ATOM     24  C   UNL     1     -11.208  -9.525  17.884  0.00  0.00    +0.255 C 
BRANCH  24   4
ATOM      4  O   UNL     1     -11.875  -9.870  16.689  0.00  0.00    -0.374 OA
ATOM     27  C   UNL     1     -12.654  -8.790  16.184  0.00  0.00    +0.194 C 
ENDBRANCH  24   4
ENDBRANCH  23  24
ENDBRANCH  15   6
BRANCH  11   1
ATOM      1  O   UNL     1      -5.550 -10.295  13.248  0.00  0.00    -0.391 OA
ATOM     35  H   UNL     1      -5.517 -10.863  12.460  0.00  0.00    +0.210 HD
ENDBRANCH  11   1
BRANCH  14  19
ATOM     19  C   UNL     1      -2.910 -11.551  12.946  0.00  0.00    +0.077 C 
ATOM     21  C   UNL     1      -1.697 -12.412  13.284  0.00  0.00    +0.017 C 
BRANCH  19  22
ATOM      2  O   UNL     1      -1.483  -9.929  11.850  0.00  0.00    -0.276 OA
ATOM      7  N   UNL     1      -3.618 -10.274  11.011  0.00  0.00    -0.311 N 
ATOM     22  C   UNL     1      -2.571 -10.501  11.893  0.00  0.00    +0.216 C 
ATOM     36  H   UNL     1      -4.467 -10.826  11.081  0.00  0.00    +0.149 HD
BRANCH   7  25
ATOM     25  C   UNL     1      -3.536  -9.321   9.929  0.00  0.00    +0.143 C 
BRANCH  25  26
ATOM     26  C   UNL     1      -4.846  -9.177   9.208  0.00  0.00    +0.011 A 
ATOM     28  C   UNL     1      -5.230 -10.099   8.236  0.00  0.00    +0.125 A 
ATOM     29  C   UNL     1      -5.681  -8.104   9.520  0.00  0.00    +0.009 A 
ATOM     30  C   UNL     1      -6.449  -9.949   7.574  0.00  0.00    +0.046 A 
ATOM     31  C   UNL     1      -6.899  -7.953   8.859  0.00  0.00    +0.001 A 
ATOM     32  C   UNL     1      -7.284  -8.876   7.886  0.00  0.00    +0.004 A 
BRANCH  28   5
ATOM      5  O   UNL     1      -4.426 -11.153   7.918  0.00  0.00    -0.495 OA
ATOM     33  C   UNL     1      -4.585 -11.720   6.618  0.00  0.00    +0.277 C 
ENDBRANCH  28   5
ENDBRANCH  25  26
ENDBRANCH   7  25
ENDBRANCH  19  22
ENDBRANCH  14  19
TORSDOF 9
ENDMDL
MODEL 5
REMARK VINA RESULT:      -6.4     19.744     22.746
REMARK  Name = 45361509
REMARK  14 active torsions:
REMARK  status: ('A' for Active; 'I' for Inactive)
REMARK    1  A    between atoms: O_1  and  C_11
REMARK    2  A    between atoms: O_4  and  C_24
REMARK    3  A    between atoms: O_4  and  C_27
REMARK    4  A    between atoms: O_5  and  C_28
REMARK    5  A    between atoms: O_5  and  C_33
REMARK    6  A    between atoms: N_6  and  C_15
REMARK    7  A    between atoms: N_7  and  C_25
REMARK    8  A    between atoms: C_8  and  C_18
REMARK    9  A    between atoms: C_10  and  C_20
REMARK   10  A    between atoms: C_14  and  C_19
REMARK   11  A    between atoms: C_19  and  C_21
REMARK   12  A    between atoms: C_19  and  C_22
REMARK   13  A    between atoms: C_23  and  C_24
REMARK   14  A    between atoms: C_25  and  C_26
REMARK                            x       y       z     vdW  Elec       q    Type
REMARK                         _______ _______ _______ _____ _____    ______ ____
ROOT
ATOM      8  C   UNL     1     -15.294   7.421  20.229  0.00  0.00    -0.027 C 
ATOM      9  C   UNL     1     -14.160   6.539  20.849  0.00  0.00    +0.028 C 
ATOM     10  C   UNL     1     -14.629   5.895  22.203  0.00  0.00    +0.012 C 
ATOM     11  C   UNL     1     -12.812   7.314  20.910  0.00  0.00    +0.122 C 
ATOM     12  C   UNL     1     -14.841   7.946  18.846  0.00  0.00    +0.007 C 
ATOM     13  C   UNL     1     -16.551   6.546  20.011  0.00  0.00    +0.009 C 
ATOM     14  C   UNL     1     -12.417   7.927  19.546  0.00  0.00    +0.029 C 
ATOM     15  C   UNL     1     -15.935   5.079  21.986  0.00  0.00    +0.076 C 
ATOM     16  C   UNL     1     -13.543   8.740  18.908  0.00  0.00    +0.007 C 
ATOM     17  C   UNL     1     -17.038   5.873  21.286  0.00  0.00    +0.023 C 
ATOM     18  C   UNL     1     -15.664   8.630  21.124  0.00  0.00    +0.011 C 
ATOM     20  C   UNL     1     -13.570   4.990  22.854  0.00  0.00    +0.010 C 
ENDROOT
BRANCH  15   6
ATOM      3  O   UNL     1     -16.605   2.334  22.605  0.00  0.00    -0.273 OA
ATOM      6  N   UNL     1     -16.461   4.567  23.235  0.00  0.00    -0.310 N 
ATOM     23  C   UNL     1     -16.751   3.229  23.434  0.00  0.00    +0.239 C 
ATOM     34  H   UNL     1     -16.681   5.234  23.969  0.00  0.00    +0.149 HD
BRANCH  23  24
ATOM     24  C   UNL     1     -17.284   2.975  24.828  0.00  0.00    +0.255 C 
BRANCH  24   4
ATOM      4  O   UNL     1     -17.886   1.700  24.907  0.00  0.00    -0.374 OA
ATOM     27  C   UNL     1     -17.153   0.818  25.752  0.00  0.00    +0.194 C 
ENDBRANCH  24   4
ENDBRANCH  23  24
ENDBRANCH  15   6
BRANCH  11   1
ATOM      1  O   UNL     1     -11.763   6.418  21.275  0.00  0.00    -0.391 OA
ATOM     35  H   UNL     1     -12.166   5.605  21.624  0.00  0.00    +0.210 HD
ENDBRANCH  11   1
BRANCH  14  19
ATOM     19  C   UNL     1     -11.158   8.795  19.656  0.00  0.00    +0.077 C 
ATOM     21  C   UNL     1     -11.459  10.060  20.453  0.00  0.00    +0.017 C 
BRANCH  19  22
ATOM      2  O   UNL     1     -10.454   8.273  17.398  0.00  0.00    -0.276 OA
ATOM      7  N   UNL     1     -10.379  10.482  18.100  0.00  0.00    -0.311 N 
ATOM     22  C   UNL     1     -10.631   9.127  18.263  0.00  0.00    +0.216 C 
ATOM     36  H   UNL     1     -10.601  11.133  18.847  0.00  0.00    +0.149 HD
BRANCH   7  25
ATOM     25  C   UNL     1      -9.872  11.040  16.867  0.00  0.00    +0.143 C 
BRANCH  25  26
ATOM     26  C   UNL     1      -9.511  12.490  17.013  0.00  0.00    +0.011 A 
ATOM     28  C   UNL     1     -10.396  13.389  17.607  0.00  0.00    +0.125 A 
ATOM     29  C   UNL     1      -8.274  12.935  16.546  0.00  0.00    +0.009 A 
ATOM     30  C   UNL     1     -10.046  14.733  17.734  0.00  0.00    +0.046 A 
ATOM     31  C   UNL     1      -7.923  14.278  16.673  0.00  0.00    +0.001 A 
ATOM     32  C   UNL     1      -8.809  15.178  17.267  0.00  0.00    +0.004 A 
BRANCH  28   5
ATOM      5  O   UNL     1     -11.609  12.972  18.068  0.00  0.00    -0.495 OA
ATOM     33  C   UNL     1     -12.269  13.815  19.010  0.00  0.00    +0.277 C 
ENDBRANCH  28   5
ENDBRANCH  25  26
ENDBRANCH   7  25
ENDBRANCH  19  22
ENDBRANCH  14  19
TORSDOF 9
ENDMDL
MODEL 6
REMARK VINA RESULT:      -6.3     23.674     26.343
REMARK  Name = 45361509
REMARK  14 active torsions:
REMARK  status: ('A' for Active; 'I' for Inactive)
REMARK    1  A    between atoms: O_1  and  C_11
REMARK    2  A    between atoms: O_4  and  C_24
REMARK    3  A    between atoms: O_4  and  C_27
REMARK    4  A    between atoms: O_5  and  C_28
REMARK    5  A    between atoms: O_5  and  C_33
REMARK    6  A    between atoms: N_6  and  C_15
REMARK    7  A    between atoms: N_7  and  C_25
REMARK    8  A    between atoms: C_8  and  C_18
REMARK    9  A    between atoms: C_10  and  C_20
REMARK   10  A    between atoms: C_14  and  C_19
REMARK   11  A    between atoms: C_19  and  C_21
REMARK   12  A    between atoms: C_19  and  C_22
REMARK   13  A    between atoms: C_23  and  C_24
REMARK   14  A    between atoms: C_25  and  C_26
REMARK                            x       y       z     vdW  Elec       q    Type
REMARK                         _______ _______ _______ _____ _____    ______ ____
ROOT
ATOM      8  C   UNL     1       9.774   6.410   6.609  0.00  0.00    -0.027 C 
ATOM      9  C   UNL     1      10.223   7.344   5.437  0.00  0.00    +0.028 C 
ATOM     10  C   UNL     1      11.277   6.624   4.520  0.00  0.00    +0.012 C 
ATOM     11  C   UNL     1      10.644   8.747   5.963  0.00  0.00    +0.122 C 
ATOM     12  C   UNL     1       8.656   7.105   7.422  0.00  0.00    +0.007 C 
ATOM     13  C   UNL     1       9.184   5.108   6.017  0.00  0.00    +0.009 C 
ATOM     14  C   UNL     1       9.564   9.392   6.863  0.00  0.00    +0.029 C 
ATOM     15  C   UNL     1      10.701   5.280   3.992  0.00  0.00    +0.076 C 
ATOM     16  C   UNL     1       9.078   8.460   7.973  0.00  0.00    +0.007 C 
ATOM     17  C   UNL     1      10.152   4.378   5.098  0.00  0.00    +0.023 C 
ATOM     18  C   UNL     1      10.939   6.053   7.566  0.00  0.00    +0.011 C 
ATOM     20  C   UNL     1      11.742   7.478   3.329  0.00  0.00    +0.010 C 
ENDROOT
BRANCH  15   6
ATOM      3  O   UNL     1      10.332   3.992   1.428  0.00  0.00    -0.273 OA
ATOM      6  N   UNL     1      11.688   4.534   3.238  0.00  0.00    -0.310 N 
ATOM     23  C   UNL     1      11.411   3.952   2.013  0.00  0.00    +0.239 C 
ATOM     34  H   UNL     1      12.598   4.383   3.662  0.00  0.00    +0.149 HD
BRANCH  23  24
ATOM     24  C   UNL     1      12.621   3.237   1.450  0.00  0.00    +0.255 C 
BRANCH  24   4
ATOM      4  O   UNL     1      13.688   4.140   1.255  0.00  0.00    -0.374 OA
ATOM     27  C   UNL     1      14.927   3.608   1.714  0.00  0.00    +0.194 C 
ENDBRANCH  24   4
ENDBRANCH  23  24
ENDBRANCH  15   6
BRANCH  11   1
ATOM      1  O   UNL     1      10.839   9.632   4.860  0.00  0.00    -0.391 OA
ATOM     35  H   UNL     1      11.105  10.499   5.211  0.00  0.00    +0.210 HD
ENDBRANCH  11   1
BRANCH  14  19
ATOM     19  C   UNL     1      10.049  10.711   7.477  0.00  0.00    +0.077 C 
ATOM     21  C   UNL     1       9.920  10.662   8.996  0.00  0.00    +0.017 C 
BRANCH  19  22
ATOM      2  O   UNL     1       9.177  12.970   7.449  0.00  0.00    -0.276 OA
ATOM      7  N   UNL     1       8.668  11.563   5.677  0.00  0.00    -0.311 N 
ATOM     22  C   UNL     1       9.263  11.879   6.890  0.00  0.00    +0.216 C 
ATOM     36  H   UNL     1       8.829  10.654   5.255  0.00  0.00    +0.149 HD
BRANCH   7  25
ATOM     25  C   UNL     1       7.868  12.505   4.929  0.00  0.00    +0.143 C 
BRANCH  25  26
ATOM     26  C   UNL     1       6.711  11.840   4.242  0.00  0.00    +0.011 A 
ATOM     28  C   UNL     1       6.903  10.693   3.472  0.00  0.00    +0.125 A 
ATOM     29  C   UNL     1       5.433  12.382   4.379  0.00  0.00    +0.009 A 
ATOM     30  C   UNL     1       5.817  10.088   2.839  0.00  0.00    +0.046 A 
ATOM     31  C   UNL     1       4.347  11.777   3.747  0.00  0.00    +0.001 A 
ATOM     32  C   UNL     1       4.539  10.630   2.976  0.00  0.00    +0.004 A 
BRANCH  28   5
ATOM      5  O   UNL     1       8.144  10.150   3.326  0.00  0.00    -0.495 OA
ATOM     33  C   UNL     1       8.226   8.884   2.674  0.00  0.00    +0.277 C 
ENDBRANCH  28   5
ENDBRANCH  25  26
ENDBRANCH   7  25
ENDBRANCH  19  22
ENDBRANCH  14  19
TORSDOF 9
ENDMDL
MODEL 7
REMARK VINA RESULT:      -6.3      2.872      7.550
REMARK  Name = 45361509
REMARK  14 active torsions:
REMARK  status: ('A' for Active; 'I' for Inactive)
REMARK    1  A    between atoms: O_1  and  C_11
REMARK    2  A    between atoms: O_4  and  C_24
REMARK    3  A    between atoms: O_4  and  C_27
REMARK    4  A    between atoms: O_5  and  C_28
REMARK    5  A    between atoms: O_5  and  C_33
REMARK    6  A    between atoms: N_6  and  C_15
REMARK    7  A    between atoms: N_7  and  C_25
REMARK    8  A    between atoms: C_8  and  C_18
REMARK    9  A    between atoms: C_10  and  C_20
REMARK   10  A    between atoms: C_14  and  C_19
REMARK   11  A    between atoms: C_19  and  C_21
REMARK   12  A    between atoms: C_19  and  C_22
REMARK   13  A    between atoms: C_23  and  C_24
REMARK   14  A    between atoms: C_25  and  C_26
REMARK                            x       y       z     vdW  Elec       q    Type
REMARK                         _______ _______ _______ _____ _____    ______ ____
ROOT
ATOM      8  C   UNL     1      -6.209 -11.455  18.532  0.00  0.00    -0.027 C 
ATOM      9  C   UNL     1      -6.188 -10.519  17.278  0.00  0.00    +0.028 C 
ATOM     10  C   UNL     1      -7.607 -10.451  16.607  0.00  0.00    +0.012 C 
ATOM     11  C   UNL     1      -5.015 -10.881  16.323  0.00  0.00    +0.122 C 
ATOM     12  C   UNL     1      -4.831 -11.409  19.232  0.00  0.00    +0.007 C 
ATOM     13  C   UNL     1      -7.263 -10.930  19.535  0.00  0.00    +0.009 C 
ATOM     14  C   UNL     1      -3.652 -10.937  17.052  0.00  0.00    +0.029 C 
ATOM     15  C   UNL     1      -8.672  -9.995  17.644  0.00  0.00    +0.076 C 
ATOM     16  C   UNL     1      -3.683 -11.802  18.312  0.00  0.00    +0.007 C 
ATOM     17  C   UNL     1      -8.656 -10.818  18.932  0.00  0.00    +0.023 C 
ATOM     18  C   UNL     1      -6.536 -12.925  18.171  0.00  0.00    +0.011 C 
ATOM     20  C   UNL     1      -7.665  -9.524  15.381  0.00  0.00    +0.010 C 
ENDROOT
BRANCH  15   6
ATOM      3  O   UNL     1     -10.540  -7.796  17.436  0.00  0.00    -0.273 OA
ATOM      6  N   UNL     1     -10.010 -10.034  17.091  0.00  0.00    -0.310 N 
ATOM     23  C   UNL     1     -10.831  -8.921  17.036  0.00  0.00    +0.239 C 
ATOM     34  H   UNL     1     -10.376 -10.932  16.790  0.00  0.00    +0.149 HD
BRANCH  23  24
ATOM     24  C   UNL     1     -12.170  -9.246  16.410  0.00  0.00    +0.255 C 
BRANCH  24   4
ATOM      4  O   UNL     1     -12.864 -10.201  17.182  0.00  0.00    -0.374 OA
ATOM     27  C   UNL     1     -13.375  -9.641  18.388  0.00  0.00    +0.194 C 
ENDBRANCH  24   4
ENDBRANCH  23  24
ENDBRANCH  15   6
BRANCH  11   1
ATOM      1  O   UNL     1      -4.897  -9.881  15.311  0.00  0.00    -0.391 OA
ATOM     35  H   UNL     1      -5.342 -10.206  14.510  0.00  0.00    +0.210 HD
ENDBRANCH  11   1
BRANCH  14  19
ATOM     19  C   UNL     1      -2.530 -11.422  16.125  0.00  0.00    +0.077 C 
ATOM     21  C   UNL     1      -1.567 -10.280  15.823  0.00  0.00    +0.017 C 
BRANCH  19  22
ATOM      2  O   UNL     1      -3.918 -12.940  14.845  0.00  0.00    -0.276 OA
ATOM      7  N   UNL     1      -2.670 -11.351  13.706  0.00  0.00    -0.311 N 
ATOM     22  C   UNL     1      -3.126 -12.000  14.845  0.00  0.00    +0.216 C 
ATOM     36  H   UNL     1      -2.056 -10.548  13.793  0.00  0.00    +0.149 HD
BRANCH   7  25
ATOM     25  C   UNL     1      -3.091 -11.721  12.375  0.00  0.00    +0.143 C 
BRANCH  25  26
ATOM     26  C   UNL     1      -3.710 -10.567  11.640  0.00  0.00    +0.011 A 
ATOM     28  C   UNL     1      -5.023 -10.179  11.899  0.00  0.00    +0.125 A 
ATOM     29  C   UNL     1      -2.955  -9.882  10.688  0.00  0.00    +0.009 A 
ATOM     30  C   UNL     1      -5.584  -9.105  11.207  0.00  0.00    +0.046 A 
ATOM     31  C   UNL     1      -3.515  -8.809   9.995  0.00  0.00    +0.001 A 
ATOM     32  C   UNL     1      -4.829  -8.420  10.254  0.00  0.00    +0.004 A 
BRANCH  28   5
ATOM      5  O   UNL     1      -5.775 -10.838  12.825  0.00  0.00    -0.495 OA
ATOM     33  C   UNL     1      -6.912 -11.554  12.346  0.00  0.00    +0.277 C 
ENDBRANCH  28   5
ENDBRANCH  25  26
ENDBRANCH   7  25
ENDBRANCH  19  22
ENDBRANCH  14  19
TORSDOF 9
ENDMDL
MODEL 8
REMARK VINA RESULT:      -6.3     20.995     25.414
REMARK  Name = 45361509
REMARK  14 active torsions:
REMARK  status: ('A' for Active; 'I' for Inactive)
REMARK    1  A    between atoms: O_1  and  C_11
REMARK    2  A    between atoms: O_4  and  C_24
REMARK    3  A    between atoms: O_4  and  C_27
REMARK    4  A    between atoms: O_5  and  C_28
REMARK    5  A    between atoms: O_5  and  C_33
REMARK    6  A    between atoms: N_6  and  C_15
REMARK    7  A    between atoms: N_7  and  C_25
REMARK    8  A    between atoms: C_8  and  C_18
REMARK    9  A    between atoms: C_10  and  C_20
REMARK   10  A    between atoms: C_14  and  C_19
REMARK   11  A    between atoms: C_19  and  C_21
REMARK   12  A    between atoms: C_19  and  C_22
REMARK   13  A    between atoms: C_23  and  C_24
REMARK   14  A    between atoms: C_25  and  C_26
REMARK                            x       y       z     vdW  Elec       q    Type
REMARK                         _______ _______ _______ _____ _____    ______ ____
ROOT
ATOM      8  C   UNL     1     -14.848   2.006  31.413  0.00  0.00    -0.027 C 
ATOM      9  C   UNL     1     -16.213   2.709  31.109  0.00  0.00    +0.028 C 
ATOM     10  C   UNL     1     -16.468   2.791  29.561  0.00  0.00    +0.012 C 
ATOM     11  C   UNL     1     -16.337   4.055  31.879  0.00  0.00    +0.122 C 
ATOM     12  C   UNL     1     -14.682   1.840  32.942  0.00  0.00    +0.007 C 
ATOM     13  C   UNL     1     -14.859   0.592  30.785  0.00  0.00    +0.009 C 
ATOM     14  C   UNL     1     -16.065   3.901  33.393  0.00  0.00    +0.029 C 
ATOM     15  C   UNL     1     -16.402   1.372  28.929  0.00  0.00    +0.076 C 
ATOM     16  C   UNL     1     -14.763   3.161  33.695  0.00  0.00    +0.007 C 
ATOM     17  C   UNL     1     -15.128   0.606  29.287  0.00  0.00    +0.023 C 
ATOM     18  C   UNL     1     -13.636   2.798  30.863  0.00  0.00    +0.011 C 
ATOM     20  C   UNL     1     -17.809   3.447  29.192  0.00  0.00    +0.010 C 
ENDROOT
BRANCH  15   6
ATOM      3  O   UNL     1     -18.287  -0.070  27.276  0.00  0.00    -0.273 OA
ATOM      6  N   UNL     1     -16.516   1.422  27.486  0.00  0.00    -0.310 N 
ATOM     23  C   UNL     1     -17.457   0.690  26.783  0.00  0.00    +0.239 C 
ATOM     34  H   UNL     1     -15.834   1.972  26.972  0.00  0.00    +0.149 HD
BRANCH  23  24
ATOM     24  C   UNL     1     -17.354   0.934  25.293  0.00  0.00    +0.255 C 
BRANCH  24   4
ATOM      4  O   UNL     1     -17.277  -0.289  24.591  0.00  0.00    -0.374 OA
ATOM     27  C   UNL     1     -18.140  -0.307  23.458  0.00  0.00    +0.194 C 
ENDBRANCH  24   4
ENDBRANCH  23  24
ENDBRANCH  15   6
BRANCH  11   1
ATOM      1  O   UNL     1     -17.667   4.557  31.750  0.00  0.00    -0.391 OA
ATOM     35  H   UNL     1     -18.273   3.915  32.158  0.00  0.00    +0.210 HD
ENDBRANCH  11   1
BRANCH  14  19
ATOM     19  C   UNL     1     -16.063   5.256  34.112  0.00  0.00    +0.077 C 
ATOM     21  C   UNL     1     -17.452   5.561  34.662  0.00  0.00    +0.017 C 
BRANCH  19  22
ATOM      2  O   UNL     1     -16.360   7.001  32.459  0.00  0.00    -0.276 OA
ATOM      7  N   UNL     1     -14.211   6.511  33.180  0.00  0.00    -0.311 N 
ATOM     22  C   UNL     1     -15.589   6.349  33.160  0.00  0.00    +0.216 C 
ATOM     36  H   UNL     1     -13.646   5.969  33.826  0.00  0.00    +0.149 HD
BRANCH   7  25
ATOM     25  C   UNL     1     -13.526   7.485  32.361  0.00  0.00    +0.143 C 
BRANCH  25  26
ATOM     26  C   UNL     1     -12.547   8.299  33.157  0.00  0.00    +0.011 A 
ATOM     28  C   UNL     1     -11.533   9.016  32.523  0.00  0.00    +0.125 A 
ATOM     29  C   UNL     1     -12.660   8.333  34.547  0.00  0.00    +0.009 A 
ATOM     30  C   UNL     1     -10.631   9.766  33.278  0.00  0.00    +0.046 A 
ATOM     31  C   UNL     1     -11.759   9.083  35.302  0.00  0.00    +0.001 A 
ATOM     32  C   UNL     1     -10.744   9.799  34.668  0.00  0.00    +0.004 A 
BRANCH  28   5
ATOM      5  O   UNL     1     -11.408   8.993  31.166  0.00  0.00    -0.495 OA
ATOM     33  C   UNL     1     -11.734  10.192  30.465  0.00  0.00    +0.277 C 
ENDBRANCH  28   5
ENDBRANCH  25  26
ENDBRANCH   7  25
ENDBRANCH  19  22
ENDBRANCH  14  19
TORSDOF 9
ENDMDL
MODEL 9
REMARK VINA RESULT:      -6.3     20.828     25.090
REMARK  Name = 45361509
REMARK  14 active torsions:
REMARK  status: ('A' for Active; 'I' for Inactive)
REMARK    1  A    between atoms: O_1  and  C_11
REMARK    2  A    between atoms: O_4  and  C_24
REMARK    3  A    between atoms: O_4  and  C_27
REMARK    4  A    between atoms: O_5  and  C_28
REMARK    5  A    between atoms: O_5  and  C_33
REMARK    6  A    between atoms: N_6  and  C_15
REMARK    7  A    between atoms: N_7  and  C_25
REMARK    8  A    between atoms: C_8  and  C_18
REMARK    9  A    between atoms: C_10  and  C_20
REMARK   10  A    between atoms: C_14  and  C_19
REMARK   11  A    between atoms: C_19  and  C_21
REMARK   12  A    between atoms: C_19  and  C_22
REMARK   13  A    between atoms: C_23  and  C_24
REMARK   14  A    between atoms: C_25  and  C_26
REMARK                            x       y       z     vdW  Elec       q    Type
REMARK                         _______ _______ _______ _____ _____    ______ ____
ROOT
ATOM      8  C   UNL     1     -14.998   1.841  30.937  0.00  0.00    -0.027 C 
ATOM      9  C   UNL     1     -15.666   3.207  30.565  0.00  0.00    +0.028 C 
ATOM     10  C   UNL     1     -15.730   3.392  29.006  0.00  0.00    +0.012 C 
ATOM     11  C   UNL     1     -15.019   4.384  31.350  0.00  0.00    +0.122 C 
ATOM     12  C   UNL     1     -15.055   1.641  32.470  0.00  0.00    +0.007 C 
ATOM     13  C   UNL     1     -15.802   0.693  30.283  0.00  0.00    +0.009 C 
ATOM     14  C   UNL     1     -14.983   4.131  32.876  0.00  0.00    +0.029 C 
ATOM     15  C   UNL     1     -16.474   2.194  28.352  0.00  0.00    +0.076 C 
ATOM     16  C   UNL     1     -14.387   2.771  33.242  0.00  0.00    +0.007 C 
ATOM     17  C   UNL     1     -15.920   0.832  28.772  0.00  0.00    +0.023 C 
ATOM     18  C   UNL     1     -13.522   1.757  30.477  0.00  0.00    +0.011 C 
ATOM     20  C   UNL     1     -16.402   4.705  28.568  0.00  0.00    +0.010 C 
ENDROOT
BRANCH  15   6
ATOM      3  O   UNL     1     -18.680   1.726  26.540  0.00  0.00    -0.273 OA
ATOM      6  N   UNL     1     -16.450   2.272  26.906  0.00  0.00    -0.310 N 
ATOM     23  C   UNL     1     -17.565   2.029  26.123  0.00  0.00    +0.239 C 
ATOM     34  H   UNL     1     -15.559   2.453  26.452  0.00  0.00    +0.149 HD
BRANCH  23  24
ATOM     24  C   UNL     1     -17.257   2.183  24.649  0.00  0.00    +0.255 C 
BRANCH  24   4
ATOM      4  O   UNL     1     -15.914   2.574  24.459  0.00  0.00    -0.374 OA
ATOM     27  C   UNL     1     -15.812   3.777  23.704  0.00  0.00    +0.194 C 
ENDBRANCH  24   4
ENDBRANCH  23  24
ENDBRANCH  15   6
BRANCH  11   1
ATOM      1  O   UNL     1     -15.788   5.570  31.151  0.00  0.00    -0.391 OA
ATOM     35  H   UNL     1     -15.188   6.272  30.844  0.00  0.00    +0.210 HD
ENDBRANCH  11   1
BRANCH  14  19
ATOM     19  C   UNL     1     -14.227   5.238  33.619  0.00  0.00    +0.077 C 
ATOM     21  C   UNL     1     -14.119   4.898  35.101  0.00  0.00    +0.017 C 
BRANCH  19  22
ATOM      2  O   UNL     1     -16.085   6.786  33.747  0.00  0.00    -0.276 OA
ATOM      7  N   UNL     1     -14.102   7.512  32.788  0.00  0.00    -0.311 N 
ATOM     22  C   UNL     1     -14.923   6.579  33.405  0.00  0.00    +0.216 C 
ATOM     36  H   UNL     1     -13.135   7.279  32.583  0.00  0.00    +0.149 HD
BRANCH   7  25
ATOM     25  C   UNL     1     -14.539   8.853  32.477  0.00  0.00    +0.143 C 
BRANCH  25  26
ATOM     26  C   UNL     1     -13.791   9.432  31.311  0.00  0.00    +0.011 A 
ATOM     28  C   UNL     1     -12.397   9.393  31.268  0.00  0.00    +0.125 A 
ATOM     29  C   UNL     1     -14.505  10.013  30.263  0.00  0.00    +0.009 A 
ATOM     30  C   UNL     1     -11.717   9.937  30.178  0.00  0.00    +0.046 A 
ATOM     31  C   UNL     1     -13.826  10.557  29.173  0.00  0.00    +0.001 A 
ATOM     32  C   UNL     1     -12.431  10.519  29.130  0.00  0.00    +0.004 A 
BRANCH  28   5
ATOM      5  O   UNL     1     -11.684   8.830  32.283  0.00  0.00    -0.495 OA
ATOM     33  C   UNL     1     -10.973   9.717  33.145  0.00  0.00    +0.277 C 
ENDBRANCH  28   5
ENDBRANCH  25  26
ENDBRANCH   7  25
ENDBRANCH  19  22
ENDBRANCH  14  19
TORSDOF 9
ENDMDL
MODEL 10
REMARK VINA RESULT:      -6.3     19.088     20.257
REMARK  Name = 45361509
REMARK  14 active torsions:
REMARK  status: ('A' for Active; 'I' for Inactive)
REMARK    1  A    between atoms: O_1  and  C_11
REMARK    2  A    between atoms: O_4  and  C_24
REMARK    3  A    between atoms: O_4  and  C_27
REMARK    4  A    between atoms: O_5  and  C_28
REMARK    5  A    between atoms: O_5  and  C_33
REMARK    6  A    between atoms: N_6  and  C_15
REMARK    7  A    between atoms: N_7  and  C_25
REMARK    8  A    between atoms: C_8  and  C_18
REMARK    9  A    between atoms: C_10  and  C_20
REMARK   10  A    between atoms: C_14  and  C_19
REMARK   11  A    between atoms: C_19  and  C_21
REMARK   12  A    between atoms: C_19  and  C_22
REMARK   13  A    between atoms: C_23  and  C_24
REMARK   14  A    between atoms: C_25  and  C_26
REMARK                            x       y       z     vdW  Elec       q    Type
REMARK                         _______ _______ _______ _____ _____    ______ ____
ROOT
ATOM      8  C   UNL     1     -11.649   8.327  18.702  0.00  0.00    -0.027 C 
ATOM      9  C   UNL     1     -13.028   8.037  18.021  0.00  0.00    +0.028 C 
ATOM     10  C   UNL     1     -13.216   8.924  16.738  0.00  0.00    +0.012 C 
ATOM     11  C   UNL     1     -14.190   8.101  19.052  0.00  0.00    +0.122 C 
ATOM     12  C   UNL     1     -11.447   7.359  19.891  0.00  0.00    +0.007 C 
ATOM     13  C   UNL     1     -10.517   8.060  17.681  0.00  0.00    +0.009 C 
ATOM     14  C   UNL     1     -13.935   7.210  20.291  0.00  0.00    +0.029 C 
ATOM     15  C   UNL     1     -12.033   8.703  15.753  0.00  0.00    +0.076 C 
ATOM     16  C   UNL     1     -12.564   7.447  20.924  0.00  0.00    +0.007 C 
ATOM     17  C   UNL     1     -10.661   8.874  16.404  0.00  0.00    +0.023 C 
ATOM     18  C   UNL     1     -11.535   9.783  19.219  0.00  0.00    +0.011 C 
ATOM     20  C   UNL     1     -14.542   8.670  16.002  0.00  0.00    +0.010 C 
ENDROOT
BRANCH  15   6
ATOM      3  O   UNL     1     -11.366   8.084  13.007  0.00  0.00    -0.273 OA
ATOM      6  N   UNL     1     -12.113   9.592  14.611  0.00  0.00    -0.310 N 
ATOM     23  C   UNL     1     -11.769   9.198  13.330  0.00  0.00    +0.239 C 
ATOM     34  H   UNL     1     -12.374  10.559  14.777  0.00  0.00    +0.149 HD
BRANCH  23  24
ATOM     24  C   UNL     1     -11.949  10.324  12.334  0.00  0.00    +0.255 C 
BRANCH  24   4
ATOM      4  O   UNL     1     -12.487   9.837  11.123  0.00  0.00    -0.374 OA
ATOM     27  C   UNL     1     -13.909   9.753  11.168  0.00  0.00    +0.194 C 
ENDBRANCH  24   4
ENDBRANCH  23  24
ENDBRANCH  15   6
BRANCH  11   1
ATOM      1  O   UNL     1     -15.392   7.624  18.447  0.00  0.00    -0.391 OA
ATOM     35  H   UNL     1     -15.625   6.776  18.864  0.00  0.00    +0.210 HD
ENDBRANCH  11   1
BRANCH  14  19
ATOM     19  C   UNL     1     -15.026   7.387  21.354  0.00  0.00    +0.077 C 
ATOM     21  C   UNL     1     -14.413   7.879  22.660  0.00  0.00    +0.017 C 
BRANCH  19  22
ATOM      2  O   UNL     1     -15.464   5.035  20.973  0.00  0.00    -0.276 OA
ATOM      7  N   UNL     1     -16.833   6.194  22.444  0.00  0.00    -0.311 N 
ATOM     22  C   UNL     1     -15.777   6.073  21.552  0.00  0.00    +0.216 C 
ATOM     36  H   UNL     1     -16.995   7.075  22.921  0.00  0.00    +0.149 HD
BRANCH   7  25
ATOM     25  C   UNL     1     -17.694   5.087  22.791  0.00  0.00    +0.143 C 
BRANCH  25  26
ATOM     26  C   UNL     1     -17.195   4.346  23.999  0.00  0.00    +0.011 A 
ATOM     28  C   UNL     1     -16.800   3.012  23.904  0.00  0.00    +0.125 A 
ATOM     29  C   UNL     1     -17.131   5.007  25.225  0.00  0.00    +0.009 A 
ATOM     30  C   UNL     1     -16.341   2.338  25.036  0.00  0.00    +0.046 A 
ATOM     31  C   UNL     1     -16.673   4.334  26.357  0.00  0.00    +0.001 A 
ATOM     32  C   UNL     1     -16.277   2.999  26.263  0.00  0.00    +0.004 A 
BRANCH  28   5
ATOM      5  O   UNL     1     -16.856   2.351  22.714  0.00  0.00    -0.495 OA
ATOM     33  C   UNL     1     -17.896   1.387  22.557  0.00  0.00    +0.277 C 
ENDBRANCH  28   5
ENDBRANCH  25  26
ENDBRANCH   7  25
ENDBRANCH  19  22
ENDBRANCH  14  19
TORSDOF 9
ENDMDL
