MODEL 1
REMARK VINA RESULT:      -7.9      0.000      0.000
REMARK  Name = 71693248
REMARK  6 active torsions:
REMARK  status: ('A' for Active; 'I' for Inactive)
REMARK    1  A    between atoms: O_2  and  C_10
REMARK    2  A    between atoms: N_6  and  C_15
REMARK    3  A    between atoms: CA_7  and  C_10
REMARK    4  A    between atoms: C_8  and  C_9
REMARK    5  A    between atoms: C_18  and  C_19
REMARK    6  A    between atoms: C_19  and  C_20
REMARK                            x       y       z     vdW  Elec       q    Type
REMARK                         _______ _______ _______ _____ _____    ______ ____
ROOT
ATOM      9  C   UNL     1      16.000   7.456  19.754  0.00  0.00    -0.017 A 
ATOM     13  C   UNL     1      16.616   8.264  20.709  0.00  0.00    +0.008 A 
ATOM     14  C   UNL     1      16.647   6.312  19.286  0.00  0.00    +0.008 A 
ATOM     15  C   UNL     1      18.526   6.783  20.730  0.00  0.00    +0.033 A 
ATOM     16  C   UNL     1      17.879   7.927  21.197  0.00  0.00    +0.023 A 
ATOM     17  C   UNL     1      17.910   5.975  19.774  0.00  0.00    +0.023 A 
ENDROOT
BRANCH   9   8
ATOM      1  O   UNL     1      14.692   7.775  17.793  0.00  0.00    -0.361 OA
ATOM      3  O   UNL     1      11.180   7.825  17.064  0.00  0.00    -0.273 OA
ATOM      5  N   UNL     1      12.276   7.152  18.966  0.00  0.00    -0.306 N 
ATOM      7  CA  UNL     1      13.519   6.857  19.673  0.00  0.00    +0.131 C 
ATOM      8  C   UNL     1      14.630   7.819  19.224  0.00  0.00    +0.171 C 
ATOM     11  C   UNL     1      13.524   8.311  17.208  0.00  0.00    +0.256 C 
ATOM     12  C   UNL     1      12.221   7.725  17.714  0.00  0.00    +0.239 C 
ATOM     26  H   UNL     1      11.417   6.752  19.330  0.00  0.00    +0.149 HD
BRANCH   7  10
ATOM     10  C   UNL     1      13.278   6.902  21.179  0.00  0.00    +0.181 C 
BRANCH  10   2
ATOM      2  O   UNL     1      12.259   5.973  21.499  0.00  0.00    -0.393 OA
ATOM     27  H   UNL     1      12.601   5.087  21.289  0.00  0.00    +0.209 HD
ENDBRANCH  10   2
ENDBRANCH   7  10
ENDBRANCH   9   8
BRANCH  15   6
ATOM      4  O   UNL     1      20.276   4.420  20.129  0.00  0.00    -0.275 OA
ATOM      6  N   UNL     1      19.789   6.447  21.219  0.00  0.00    -0.285 N 
ATOM     18  C   UNL     1      20.571   5.324  20.904  0.00  0.00    +0.222 C 
ATOM     28  H   UNL     1      20.177   7.113  21.883  0.00  0.00    +0.155 HD
BRANCH  18  19
ATOM     19  C   UNL     1      21.888   5.345  21.665  0.00  0.00    +0.131 C 
BRANCH  19  20
ATOM     20  C   UNL     1      22.874   4.313  21.185  0.00  0.00    -0.039 A 
ATOM     21  C   UNL     1      22.836   3.017  21.700  0.00  0.00    +0.004 A 
ATOM     22  C   UNL     1      23.826   4.652  20.223  0.00  0.00    +0.004 A 
ATOM     23  C   UNL     1      23.749   2.061  21.255  0.00  0.00    +0.000 A 
ATOM     24  C   UNL     1      24.739   3.696  19.777  0.00  0.00    +0.000 A 
ATOM     25  C   UNL     1      24.700   2.401  20.293  0.00  0.00    +0.000 A 
ENDBRANCH  19  20
ENDBRANCH  18  19
ENDBRANCH  15   6
TORSDOF 6
ENDMDL
MODEL 2
REMARK VINA RESULT:      -7.8      1.286      2.339
REMARK  Name = 71693248
REMARK  6 active torsions:
REMARK  status: ('A' for Active; 'I' for Inactive)
REMARK    1  A    between atoms: O_2  and  C_10
REMARK    2  A    between atoms: N_6  and  C_15
REMARK    3  A    between atoms: CA_7  and  C_10
REMARK    4  A    between atoms: C_8  and  C_9
REMARK    5  A    between atoms: C_18  and  C_19
REMARK    6  A    between atoms: C_19  and  C_20
REMARK                            x       y       z     vdW  Elec       q    Type
REMARK                         _______ _______ _______ _____ _____    ______ ____
ROOT
ATOM      9  C   UNL     1      15.788   6.600  19.894  0.00  0.00    -0.017 A 
ATOM     13  C   UNL     1      16.424   7.017  21.062  0.00  0.00    +0.008 A 
ATOM     14  C   UNL     1      16.518   5.958  18.893  0.00  0.00    +0.008 A 
ATOM     15  C   UNL     1      18.521   6.150  20.232  0.00  0.00    +0.033 A 
ATOM     16  C   UNL     1      17.790   6.792  21.231  0.00  0.00    +0.023 A 
ATOM     17  C   UNL     1      17.884   5.733  19.062  0.00  0.00    +0.023 A 
ENDROOT
BRANCH   9   8
ATOM      1  O   UNL     1      13.695   6.807  21.005  0.00  0.00    -0.361 OA
ATOM      3  O   UNL     1      10.515   8.248  20.183  0.00  0.00    -0.273 OA
ATOM      5  N   UNL     1      12.538   8.448  19.117  0.00  0.00    -0.306 N 
ATOM      7  CA  UNL     1      13.977   8.204  19.076  0.00  0.00    +0.131 C 
ATOM      8  C   UNL     1      14.306   6.843  19.709  0.00  0.00    +0.171 C 
ATOM     11  C   UNL     1      12.286   6.806  20.914  0.00  0.00    +0.256 C 
ATOM     12  C   UNL     1      11.693   7.913  20.064  0.00  0.00    +0.239 C 
ATOM     26  H   UNL     1      12.166   9.191  18.532  0.00  0.00    +0.149 HD
BRANCH   7  10
ATOM     10  C   UNL     1      14.478   8.318  17.639  0.00  0.00    +0.181 C 
BRANCH  10   2
ATOM      2  O   UNL     1      13.687   7.479  16.819  0.00  0.00    -0.393 OA
ATOM     27  H   UNL     1      12.774   7.810  16.865  0.00  0.00    +0.209 HD
ENDBRANCH  10   2
ENDBRANCH   7  10
ENDBRANCH   9   8
BRANCH  15   6
ATOM      4  O   UNL     1      20.058   3.579  20.417  0.00  0.00    -0.275 OA
ATOM      6  N   UNL     1      19.887   5.925  20.402  0.00  0.00    -0.285 N 
ATOM     18  C   UNL     1      20.561   4.695  20.482  0.00  0.00    +0.222 C 
ATOM     28  H   UNL     1      20.450   6.769  20.470  0.00  0.00    +0.155 HD
BRANCH  18  19
ATOM     19  C   UNL     1      22.057   4.904  20.669  0.00  0.00    +0.131 C 
BRANCH  19  20
ATOM     20  C   UNL     1      22.744   3.743  21.339  0.00  0.00    -0.039 A 
ATOM     21  C   UNL     1      23.567   2.896  20.596  0.00  0.00    +0.004 A 
ATOM     22  C   UNL     1      22.560   3.516  22.702  0.00  0.00    +0.004 A 
ATOM     23  C   UNL     1      24.204   1.821  21.217  0.00  0.00    +0.000 A 
ATOM     24  C   UNL     1      23.197   2.442  23.324  0.00  0.00    +0.000 A 
ATOM     25  C   UNL     1      24.020   1.595  22.580  0.00  0.00    +0.000 A 
ENDBRANCH  19  20
ENDBRANCH  18  19
ENDBRANCH  15   6
TORSDOF 6
ENDMDL
MODEL 3
REMARK VINA RESULT:      -7.4      2.255      9.442
REMARK  Name = 71693248
REMARK  6 active torsions:
REMARK  status: ('A' for Active; 'I' for Inactive)
REMARK    1  A    between atoms: O_2  and  C_10
REMARK    2  A    between atoms: N_6  and  C_15
REMARK    3  A    between atoms: CA_7  and  C_10
REMARK    4  A    between atoms: C_8  and  C_9
REMARK    5  A    between atoms: C_18  and  C_19
REMARK    6  A    between atoms: C_19  and  C_20
REMARK                            x       y       z     vdW  Elec       q    Type
REMARK                         _______ _______ _______ _____ _____    ______ ____
ROOT
ATOM      9  C   UNL     1      18.708   6.140  20.624  0.00  0.00    -0.017 A 
ATOM     13  C   UNL     1      17.876   6.760  21.555  0.00  0.00    +0.008 A 
ATOM     14  C   UNL     1      18.195   5.730  19.393  0.00  0.00    +0.008 A 
ATOM     15  C   UNL     1      16.015   6.561  20.026  0.00  0.00    +0.033 A 
ATOM     16  C   UNL     1      16.530   6.971  21.256  0.00  0.00    +0.023 A 
ATOM     17  C   UNL     1      16.849   5.940  19.094  0.00  0.00    +0.023 A 
ENDROOT
BRANCH   9   8
ATOM      1  O   UNL     1      20.563   4.681  20.329  0.00  0.00    -0.361 OA
ATOM      3  O   UNL     1      24.124   5.013  20.607  0.00  0.00    -0.273 OA
ATOM      5  N   UNL     1      22.495   6.630  20.590  0.00  0.00    -0.306 N 
ATOM      7  CA  UNL     1      21.098   7.017  20.419  0.00  0.00    +0.131 C 
ATOM      8  C   UNL     1      20.169   5.912  20.946  0.00  0.00    +0.171 C 
ATOM     11  C   UNL     1      21.847   4.275  20.756  0.00  0.00    +0.256 C 
ATOM     12  C   UNL     1      22.933   5.324  20.620  0.00  0.00    +0.239 C 
ATOM     26  H   UNL     1      23.202   7.354  20.501  0.00  0.00    +0.149 HD
BRANCH   7  10
ATOM     10  C   UNL     1      20.850   8.363  21.094  0.00  0.00    +0.181 C 
BRANCH  10   2
ATOM      2  O   UNL     1      21.405   8.322  22.395  0.00  0.00    -0.393 OA
ATOM     27  H   UNL     1      22.365   8.445  22.303  0.00  0.00    +0.209 HD
ENDBRANCH  10   2
ENDBRANCH   7  10
ENDBRANCH   9   8
BRANCH  15   6
ATOM      4  O   UNL     1      14.713   8.621  18.275  0.00  0.00    -0.275 OA
ATOM      6  N   UNL     1      14.669   6.772  19.728  0.00  0.00    -0.285 N 
ATOM     18  C   UNL     1      14.108   7.755  18.897  0.00  0.00    +0.222 C 
ATOM     28  H   UNL     1      14.029   6.120  20.174  0.00  0.00    +0.155 HD
BRANCH  18  19
ATOM     19  C   UNL     1      12.592   7.628  18.848  0.00  0.00    +0.131 C 
BRANCH  19  20
ATOM     20  C   UNL     1      11.907   8.148  20.085  0.00  0.00    -0.039 A 
ATOM     21  C   UNL     1      11.923   9.513  20.371  0.00  0.00    +0.004 A 
ATOM     22  C   UNL     1      11.255   7.263  20.943  0.00  0.00    +0.004 A 
ATOM     23  C   UNL     1      11.289   9.993  21.517  0.00  0.00    +0.000 A 
ATOM     24  C   UNL     1      10.619   7.743  22.089  0.00  0.00    +0.000 A 
ATOM     25  C   UNL     1      10.636   9.108  22.375  0.00  0.00    +0.000 A 
ENDBRANCH  19  20
ENDBRANCH  18  19
ENDBRANCH  15   6
TORSDOF 6
ENDMDL
MODEL 4
REMARK VINA RESULT:      -6.9      2.371      9.433
REMARK  Name = 71693248
REMARK  6 active torsions:
REMARK  status: ('A' for Active; 'I' for Inactive)
REMARK    1  A    between atoms: O_2  and  C_10
REMARK    2  A    between atoms: N_6  and  C_15
REMARK    3  A    between atoms: CA_7  and  C_10
REMARK    4  A    between atoms: C_8  and  C_9
REMARK    5  A    between atoms: C_18  and  C_19
REMARK    6  A    between atoms: C_19  and  C_20
REMARK                            x       y       z     vdW  Elec       q    Type
REMARK                         _______ _______ _______ _____ _____    ______ ____
ROOT
ATOM      9  C   UNL     1      19.026   6.887  20.813  0.00  0.00    -0.017 A 
ATOM     13  C   UNL     1      18.600   6.029  19.799  0.00  0.00    +0.008 A 
ATOM     14  C   UNL     1      18.111   7.726  21.448  0.00  0.00    +0.008 A 
ATOM     15  C   UNL     1      16.341   6.850  20.055  0.00  0.00    +0.033 A 
ATOM     16  C   UNL     1      17.257   6.011  19.421  0.00  0.00    +0.023 A 
ATOM     17  C   UNL     1      16.768   7.708  21.069  0.00  0.00    +0.023 A 
ENDROOT
BRANCH   9   8
ATOM      1  O   UNL     1      20.634   7.914  22.233  0.00  0.00    -0.361 OA
ATOM      3  O   UNL     1      23.881   7.012  23.462  0.00  0.00    -0.273 OA
ATOM      5  N   UNL     1      22.316   5.734  22.371  0.00  0.00    -0.306 N 
ATOM      7  CA  UNL     1      20.975   5.577  21.817  0.00  0.00    +0.131 C 
ATOM      8  C   UNL     1      20.482   6.907  21.225  0.00  0.00    +0.171 C 
ATOM     11  C   UNL     1      21.995   8.156  22.521  0.00  0.00    +0.256 C 
ATOM     12  C   UNL     1      22.813   6.924  22.856  0.00  0.00    +0.239 C 
ATOM     26  H   UNL     1      22.845   4.893  22.580  0.00  0.00    +0.149 HD
BRANCH   7  10
ATOM     10  C   UNL     1      20.970   4.443  20.795  0.00  0.00    +0.181 C 
BRANCH  10   2
ATOM      2  O   UNL     1      21.854   4.783  19.743  0.00  0.00    -0.393 OA
ATOM     27  H   UNL     1      22.698   4.333  19.920  0.00  0.00    +0.209 HD
ENDBRANCH  10   2
ENDBRANCH   7  10
ENDBRANCH   9   8
BRANCH  15   6
ATOM      4  O   UNL     1      14.785   8.743  18.322  0.00  0.00    -0.275 OA
ATOM      6  N   UNL     1      14.999   6.831  19.676  0.00  0.00    -0.285 N 
ATOM     18  C   UNL     1      14.314   7.746  18.857  0.00  0.00    +0.222 C 
ATOM     28  H   UNL     1      14.465   6.048  20.045  0.00  0.00    +0.155 HD
BRANCH  18  19
ATOM     19  C   UNL     1      12.854   7.349  18.699  0.00  0.00    +0.131 C 
BRANCH  19  20
ATOM     20  C   UNL     1      12.032   7.580  19.940  0.00  0.00    -0.039 A 
ATOM     21  C   UNL     1      11.645   6.500  20.732  0.00  0.00    +0.004 A 
ATOM     22  C   UNL     1      11.660   8.875  20.297  0.00  0.00    +0.004 A 
ATOM     23  C   UNL     1      10.884   6.714  21.881  0.00  0.00    +0.000 A 
ATOM     24  C   UNL     1      10.899   9.090  21.447  0.00  0.00    +0.000 A 
ATOM     25  C   UNL     1      10.512   8.009  22.239  0.00  0.00    +0.000 A 
ENDBRANCH  19  20
ENDBRANCH  18  19
ENDBRANCH  15   6
TORSDOF 6
ENDMDL
MODEL 5
REMARK VINA RESULT:      -6.7     24.166     25.210
REMARK  Name = 71693248
REMARK  6 active torsions:
REMARK  status: ('A' for Active; 'I' for Inactive)
REMARK    1  A    between atoms: O_2  and  C_10
REMARK    2  A    between atoms: N_6  and  C_15
REMARK    3  A    between atoms: CA_7  and  C_10
REMARK    4  A    between atoms: C_8  and  C_9
REMARK    5  A    between atoms: C_18  and  C_19
REMARK    6  A    between atoms: C_19  and  C_20
REMARK                            x       y       z     vdW  Elec       q    Type
REMARK                         _______ _______ _______ _____ _____    ______ ____
ROOT
ATOM      9  C   UNL     1      16.810  -6.017  -3.652  0.00  0.00    -0.017 A 
ATOM     13  C   UNL     1      17.375  -7.135  -3.040  0.00  0.00    +0.008 A 
ATOM     14  C   UNL     1      17.289  -4.741  -3.353  0.00  0.00    +0.008 A 
ATOM     15  C   UNL     1      18.900  -5.703  -1.830  0.00  0.00    +0.033 A 
ATOM     16  C   UNL     1      18.420  -6.978  -2.130  0.00  0.00    +0.023 A 
ATOM     17  C   UNL     1      18.333  -4.584  -2.442  0.00  0.00    +0.023 A 
ENDROOT
BRANCH   9   8
ATOM      1  O   UNL     1      16.041  -7.238  -5.543  0.00  0.00    -0.361 OA
ATOM      3  O   UNL     1      12.840  -7.838  -7.047  0.00  0.00    -0.273 OA
ATOM      5  N   UNL     1      13.356  -6.913  -5.011  0.00  0.00    -0.306 N 
ATOM      7  CA  UNL     1      14.340  -6.573  -3.988  0.00  0.00    +0.131 C 
ATOM      8  C   UNL     1      15.677  -6.186  -4.640  0.00  0.00    +0.171 C 
ATOM     11  C   UNL     1      15.145  -7.320  -6.631  0.00  0.00    +0.256 C 
ATOM     12  C   UNL     1      13.678  -7.410  -6.254  0.00  0.00    +0.239 C 
ATOM     26  H   UNL     1      12.380  -6.959  -4.733  0.00  0.00    +0.149 HD
BRANCH   7  10
ATOM     10  C   UNL     1      13.787  -5.473  -3.086  0.00  0.00    +0.181 C 
BRANCH  10   2
ATOM      2  O   UNL     1      12.479  -5.835  -2.686  0.00  0.00    -0.393 OA
ATOM     27  H   UNL     1      11.859  -5.298  -3.210  0.00  0.00    +0.209 HD
ENDBRANCH  10   2
ENDBRANCH   7  10
ENDBRANCH   9   8
BRANCH  15   6
ATOM      4  O   UNL     1      18.862  -4.816   1.037  0.00  0.00    -0.275 OA
ATOM      6  N   UNL     1      19.945  -5.547  -0.920  0.00  0.00    -0.285 N 
ATOM     18  C   UNL     1      19.875  -5.127   0.419  0.00  0.00    +0.222 C 
ATOM     28  H   UNL     1      20.865  -5.773  -1.288  0.00  0.00    +0.155 HD
BRANCH  18  19
ATOM     19  C   UNL     1      21.257  -5.096   1.055  0.00  0.00    +0.131 C 
BRANCH  19  20
ATOM     20  C   UNL     1      21.450  -6.142   2.121  0.00  0.00    -0.039 A 
ATOM     21  C   UNL     1      20.828  -7.385   2.001  0.00  0.00    +0.004 A 
ATOM     22  C   UNL     1      22.252  -5.867   3.229  0.00  0.00    +0.004 A 
ATOM     23  C   UNL     1      21.007  -8.353   2.989  0.00  0.00    +0.000 A 
ATOM     24  C   UNL     1      22.432  -6.836   4.217  0.00  0.00    +0.000 A 
ATOM     25  C   UNL     1      21.809  -8.079   4.097  0.00  0.00    +0.000 A 
ENDBRANCH  19  20
ENDBRANCH  18  19
ENDBRANCH  15   6
TORSDOF 6
ENDMDL
MODEL 6
REMARK VINA RESULT:      -6.7     26.561     31.013
REMARK  Name = 71693248
REMARK  6 active torsions:
REMARK  status: ('A' for Active; 'I' for Inactive)
REMARK    1  A    between atoms: O_2  and  C_10
REMARK    2  A    between atoms: N_6  and  C_15
REMARK    3  A    between atoms: CA_7  and  C_10
REMARK    4  A    between atoms: C_8  and  C_9
REMARK    5  A    between atoms: C_18  and  C_19
REMARK    6  A    between atoms: C_19  and  C_20
REMARK                            x       y       z     vdW  Elec       q    Type
REMARK                         _______ _______ _______ _____ _____    ______ ____
ROOT
ATOM      9  C   UNL     1      -4.694 -11.300  15.865  0.00  0.00    -0.017 A 
ATOM     13  C   UNL     1      -4.979 -11.119  17.217  0.00  0.00    +0.008 A 
ATOM     14  C   UNL     1      -5.456 -10.647  14.897  0.00  0.00    +0.008 A 
ATOM     15  C   UNL     1      -6.790  -9.629  16.635  0.00  0.00    +0.033 A 
ATOM     16  C   UNL     1      -6.027 -10.282  17.602  0.00  0.00    +0.023 A 
ATOM     17  C   UNL     1      -6.504  -9.811  15.281  0.00  0.00    +0.023 A 
ENDROOT
BRANCH   9   8
ATOM      1  O   UNL     1      -4.106 -13.241  14.620  0.00  0.00    -0.361 OA
ATOM      3  O   UNL     1      -1.068 -14.537  13.222  0.00  0.00    -0.273 OA
ATOM      5  N   UNL     1      -1.514 -12.463  14.098  0.00  0.00    -0.306 N 
ATOM      7  CA  UNL     1      -2.465 -11.493  14.633  0.00  0.00    +0.131 C 
ATOM      8  C   UNL     1      -3.556 -12.207  15.446  0.00  0.00    +0.171 C 
ATOM     11  C   UNL     1      -3.159 -14.256  14.362  0.00  0.00    +0.256 C 
ATOM     12  C   UNL     1      -1.829 -13.774  13.816  0.00  0.00    +0.239 C 
ATOM     26  H   UNL     1      -0.628 -12.114  13.745  0.00  0.00    +0.149 HD
BRANCH   7  10
ATOM     10  C   UNL     1      -1.721 -10.439  15.450  0.00  0.00    +0.181 C 
BRANCH  10   2
ATOM      2  O   UNL     1      -1.241 -11.046  16.635  0.00  0.00    -0.393 OA
ATOM     27  H   UNL     1      -1.507 -11.981  16.607  0.00  0.00    +0.209 HD
ENDBRANCH  10   2
ENDBRANCH   7  10
ENDBRANCH   9   8
BRANCH  15   6
ATOM      4  O   UNL     1      -9.750  -9.906  16.221  0.00  0.00    -0.275 OA
ATOM      6  N   UNL     1      -7.838  -8.792  17.021  0.00  0.00    -0.285 N 
ATOM     18  C   UNL     1      -9.215  -8.968  16.802  0.00  0.00    +0.222 C 
ATOM     28  H   UNL     1      -7.550  -7.958  17.525  0.00  0.00    +0.155 HD
BRANCH  18  19
ATOM     19  C   UNL     1     -10.012  -7.814  17.391  0.00  0.00    +0.131 C 
BRANCH  19  20
ATOM     20  C   UNL     1     -11.052  -7.264  16.451  0.00  0.00    -0.039 A 
ATOM     21  C   UNL     1     -12.344  -7.791  16.451  0.00  0.00    +0.004 A 
ATOM     22  C   UNL     1     -10.724  -6.225  15.580  0.00  0.00    +0.004 A 
ATOM     23  C   UNL     1     -13.307  -7.281  15.581  0.00  0.00    +0.000 A 
ATOM     24  C   UNL     1     -11.688  -5.714  14.709  0.00  0.00    +0.000 A 
ATOM     25  C   UNL     1     -12.979  -6.242  14.710  0.00  0.00    +0.000 A 
ENDBRANCH  19  20
ENDBRANCH  18  19
ENDBRANCH  15   6
TORSDOF 6
ENDMDL
MODEL 7
REMARK VINA RESULT:      -6.7     16.632     20.651
REMARK  Name = 71693248
REMARK  6 active torsions:
REMARK  status: ('A' for Active; 'I' for Inactive)
REMARK    1  A    between atoms: O_2  and  C_10
REMARK    2  A    between atoms: N_6  and  C_15
REMARK    3  A    between atoms: CA_7  and  C_10
REMARK    4  A    between atoms: C_8  and  C_9
REMARK    5  A    between atoms: C_18  and  C_19
REMARK    6  A    between atoms: C_19  and  C_20
REMARK                            x       y       z     vdW  Elec       q    Type
REMARK                         _______ _______ _______ _____ _____    ______ ____
ROOT
ATOM      9  C   UNL     1      10.361   5.835   3.526  0.00  0.00    -0.017 A 
ATOM     13  C   UNL     1      10.884   4.547   3.636  0.00  0.00    +0.008 A 
ATOM     14  C   UNL     1      10.196   6.416   2.268  0.00  0.00    +0.008 A 
ATOM     15  C   UNL     1      11.076   4.419   1.230  0.00  0.00    +0.033 A 
ATOM     16  C   UNL     1      11.241   3.839   2.488  0.00  0.00    +0.023 A 
ATOM     17  C   UNL     1      10.553   5.709   1.121  0.00  0.00    +0.023 A 
ENDROOT
BRANCH   9   8
ATOM      1  O   UNL     1       8.676   6.148   5.175  0.00  0.00    -0.361 OA
ATOM      3  O   UNL     1       8.585   7.534   8.482  0.00  0.00    -0.273 OA
ATOM      5  N   UNL     1      10.386   6.996   7.163  0.00  0.00    -0.306 N 
ATOM      7  CA  UNL     1      10.931   6.391   5.952  0.00  0.00    +0.131 C 
ATOM      8  C   UNL     1       9.973   6.604   4.770  0.00  0.00    +0.171 C 
ATOM     11  C   UNL     1       8.137   6.960   6.197  0.00  0.00    +0.256 C 
ATOM     12  C   UNL     1       9.039   7.169   7.398  0.00  0.00    +0.239 C 
ATOM     26  H   UNL     1      11.013   7.131   7.951  0.00  0.00    +0.149 HD
BRANCH   7  10
ATOM     10  C   UNL     1      12.327   6.947   5.682  0.00  0.00    +0.181 C 
BRANCH  10   2
ATOM      2  O   UNL     1      13.230   6.358   6.599  0.00  0.00    -0.393 OA
ATOM     27  H   UNL     1      14.096   6.310   6.159  0.00  0.00    +0.209 HD
ENDBRANCH  10   2
ENDBRANCH   7  10
ENDBRANCH   9   8
BRANCH  15   6
ATOM      4  O   UNL     1      13.503   4.653  -0.521  0.00  0.00    -0.275 OA
ATOM      6  N   UNL     1      11.433   3.711   0.083  0.00  0.00    -0.285 N 
ATOM     18  C   UNL     1      12.587   3.859  -0.705  0.00  0.00    +0.222 C 
ATOM     28  H   UNL     1      10.764   3.000  -0.202  0.00  0.00    +0.155 HD
BRANCH  18  19
ATOM     19  C   UNL     1      12.581   2.881  -1.870  0.00  0.00    +0.131 C 
BRANCH  19  20
ATOM     20  C   UNL     1      11.433   3.091  -2.822  0.00  0.00    -0.039 A 
ATOM     21  C   UNL     1      10.476   2.091  -2.993  0.00  0.00    +0.004 A 
ATOM     22  C   UNL     1      11.326   4.286  -3.532  0.00  0.00    +0.004 A 
ATOM     23  C   UNL     1       9.412   2.286  -3.874  0.00  0.00    +0.000 A 
ATOM     24  C   UNL     1      10.262   4.482  -4.414  0.00  0.00    +0.000 A 
ATOM     25  C   UNL     1       9.305   3.481  -4.584  0.00  0.00    +0.000 A 
ENDBRANCH  19  20
ENDBRANCH  18  19
ENDBRANCH  15   6
TORSDOF 6
ENDMDL
MODEL 8
REMARK VINA RESULT:      -6.6     16.908     20.911
REMARK  Name = 71693248
REMARK  6 active torsions:
REMARK  status: ('A' for Active; 'I' for Inactive)
REMARK    1  A    between atoms: O_2  and  C_10
REMARK    2  A    between atoms: N_6  and  C_15
REMARK    3  A    between atoms: CA_7  and  C_10
REMARK    4  A    between atoms: C_8  and  C_9
REMARK    5  A    between atoms: C_18  and  C_19
REMARK    6  A    between atoms: C_19  and  C_20
REMARK                            x       y       z     vdW  Elec       q    Type
REMARK                         _______ _______ _______ _____ _____    ______ ____
ROOT
ATOM      9  C   UNL     1      13.115   4.042  -0.540  0.00  0.00    -0.017 A 
ATOM     13  C   UNL     1      11.915   4.748  -0.471  0.00  0.00    +0.008 A 
ATOM     14  C   UNL     1      13.547   3.292   0.554  0.00  0.00    +0.008 A 
ATOM     15  C   UNL     1      11.578   3.955   1.787  0.00  0.00    +0.033 A 
ATOM     16  C   UNL     1      11.147   4.704   0.692  0.00  0.00    +0.023 A 
ATOM     17  C   UNL     1      12.780   3.249   1.718  0.00  0.00    +0.023 A 
ENDROOT
BRANCH   9   8
ATOM      1  O   UNL     1      13.141   4.662  -2.836  0.00  0.00    -0.361 OA
ATOM      3  O   UNL     1      15.702   5.349  -5.252  0.00  0.00    -0.273 OA
ATOM      5  N   UNL     1      15.859   5.103  -2.975  0.00  0.00    -0.306 N 
ATOM      7  CA  UNL     1      15.219   4.944  -1.672  0.00  0.00    +0.131 C 
ATOM      8  C   UNL     1      13.949   4.087  -1.802  0.00  0.00    +0.171 C 
ATOM     11  C   UNL     1      13.758   4.544  -4.101  0.00  0.00    +0.256 C 
ATOM     12  C   UNL     1      15.183   5.059  -4.174  0.00  0.00    +0.239 C 
ATOM     26  H   UNL     1      16.816   5.443  -2.995  0.00  0.00    +0.149 HD
BRANCH   7  10
ATOM     10  C   UNL     1      16.218   4.363  -0.675  0.00  0.00    +0.181 C 
BRANCH  10   2
ATOM      2  O   UNL     1      16.556   5.370   0.261  0.00  0.00    -0.393 OA
ATOM     27  H   UNL     1      16.137   5.129   1.105  0.00  0.00    +0.209 HD
ENDBRANCH  10   2
ENDBRANCH   7  10
ENDBRANCH   9   8
BRANCH  15   6
ATOM      4  O   UNL     1      11.426   5.877   4.088  0.00  0.00    -0.275 OA
ATOM      6  N   UNL     1      10.809   3.912   2.950  0.00  0.00    -0.285 N 
ATOM     18  C   UNL     1      10.773   4.843   4.002  0.00  0.00    +0.222 C 
ATOM     28  H   UNL     1      10.201   3.101   3.026  0.00  0.00    +0.155 HD
BRANCH  18  19
ATOM     19  C   UNL     1       9.792   4.409   5.081  0.00  0.00    +0.131 C 
BRANCH  19  20
ATOM     20  C   UNL     1       9.447   5.507   6.053  0.00  0.00    -0.039 A 
ATOM     21  C   UNL     1       8.531   6.495   5.695  0.00  0.00    +0.004 A 
ATOM     22  C   UNL     1      10.043   5.533   7.314  0.00  0.00    +0.004 A 
ATOM     23  C   UNL     1       8.212   7.511   6.596  0.00  0.00    +0.000 A 
ATOM     24  C   UNL     1       9.723   6.548   8.216  0.00  0.00    +0.000 A 
ATOM     25  C   UNL     1       8.807   7.537   7.856  0.00  0.00    +0.000 A 
ENDBRANCH  19  20
ENDBRANCH  18  19
ENDBRANCH  15   6
TORSDOF 6
ENDMDL
MODEL 9
REMARK VINA RESULT:      -6.6     27.350     30.126
REMARK  Name = 71693248
REMARK  6 active torsions:
REMARK  status: ('A' for Active; 'I' for Inactive)
REMARK    1  A    between atoms: O_2  and  C_10
REMARK    2  A    between atoms: N_6  and  C_15
REMARK    3  A    between atoms: CA_7  and  C_10
REMARK    4  A    between atoms: C_8  and  C_9
REMARK    5  A    between atoms: C_18  and  C_19
REMARK    6  A    between atoms: C_19  and  C_20
REMARK                            x       y       z     vdW  Elec       q    Type
REMARK                         _______ _______ _______ _____ _____    ______ ____
ROOT
ATOM      9  C   UNL     1      -6.539 -11.510  16.776  0.00  0.00    -0.017 A 
ATOM     13  C   UNL     1      -6.143 -10.186  16.590  0.00  0.00    +0.008 A 
ATOM     14  C   UNL     1      -6.049 -12.510  15.935  0.00  0.00    +0.008 A 
ATOM     15  C   UNL     1      -4.766 -10.860  14.722  0.00  0.00    +0.033 A 
ATOM     16  C   UNL     1      -5.256  -9.862  15.564  0.00  0.00    +0.023 A 
ATOM     17  C   UNL     1      -5.163 -12.185  14.908  0.00  0.00    +0.023 A 
ENDROOT
BRANCH   9   8
ATOM      1  O   UNL     1      -8.374 -12.889  17.401  0.00  0.00    -0.361 OA
ATOM      3  O   UNL     1      -9.798 -13.965  20.512  0.00  0.00    -0.273 OA
ATOM      5  N   UNL     1      -7.803 -12.908  20.097  0.00  0.00    -0.306 N 
ATOM      7  CA  UNL     1      -6.811 -12.404  19.153  0.00  0.00    +0.131 C 
ATOM      8  C   UNL     1      -7.500 -11.864  17.890  0.00  0.00    +0.171 C 
ATOM     11  C   UNL     1      -9.442 -13.129  18.293  0.00  0.00    +0.256 C 
ATOM     12  C   UNL     1      -9.035 -13.400  19.728  0.00  0.00    +0.239 C 
ATOM     26  H   UNL     1      -7.506 -13.074  21.054  0.00  0.00    +0.149 HD
BRANCH   7  10
ATOM     10  C   UNL     1      -5.936 -11.356  19.836  0.00  0.00    +0.181 C 
BRANCH  10   2
ATOM      2  O   UNL     1      -6.723 -10.206  20.085  0.00  0.00    -0.393 OA
ATOM     27  H   UNL     1      -7.061 -10.281  20.994  0.00  0.00    +0.209 HD
ENDBRANCH  10   2
ENDBRANCH   7  10
ENDBRANCH   9   8
BRANCH  15   6
ATOM      4  O   UNL     1      -1.840 -11.460  14.419  0.00  0.00    -0.275 OA
ATOM      6  N   UNL     1      -3.879 -10.534  13.696  0.00  0.00    -0.285 N 
ATOM     18  C   UNL     1      -2.511 -10.841  13.600  0.00  0.00    +0.222 C 
ATOM     28  H   UNL     1      -4.293 -10.012  12.928  0.00  0.00    +0.155 HD
BRANCH  18  19
ATOM     19  C   UNL     1      -1.919 -10.295  12.310  0.00  0.00    +0.131 C 
BRANCH  19  20
ATOM     20  C   UNL     1      -2.829 -10.450  11.120  0.00  0.00    -0.039 A 
ATOM     21  C   UNL     1      -3.291 -11.714  10.754  0.00  0.00    +0.004 A 
ATOM     22  C   UNL     1      -3.212  -9.328  10.385  0.00  0.00    +0.004 A 
ATOM     23  C   UNL     1      -4.134 -11.857   9.652  0.00  0.00    +0.000 A 
ATOM     24  C   UNL     1      -4.056  -9.471   9.282  0.00  0.00    +0.000 A 
ATOM     25  C   UNL     1      -4.517 -10.736   8.917  0.00  0.00    +0.000 A 
ENDBRANCH  19  20
ENDBRANCH  18  19
ENDBRANCH  15   6
TORSDOF 6
ENDMDL
MODEL 10
REMARK VINA RESULT:      -6.5      2.359      9.371
REMARK  Name = 71693248
REMARK  6 active torsions:
REMARK  status: ('A' for Active; 'I' for Inactive)
REMARK    1  A    between atoms: O_2  and  C_10
REMARK    2  A    between atoms: N_6  and  C_15
REMARK    3  A    between atoms: CA_7  and  C_10
REMARK    4  A    between atoms: C_8  and  C_9
REMARK    5  A    between atoms: C_18  and  C_19
REMARK    6  A    between atoms: C_19  and  C_20
REMARK                            x       y       z     vdW  Elec       q    Type
REMARK                         _______ _______ _______ _____ _____    ______ ____
ROOT
ATOM      9  C   UNL     1      19.517   6.612  21.010  0.00  0.00    -0.017 A 
ATOM     13  C   UNL     1      19.104   5.720  20.021  0.00  0.00    +0.008 A 
ATOM     14  C   UNL     1      18.674   7.647  21.414  0.00  0.00    +0.008 A 
ATOM     15  C   UNL     1      17.002   6.899  19.837  0.00  0.00    +0.033 A 
ATOM     16  C   UNL     1      17.846   5.864  19.435  0.00  0.00    +0.023 A 
ATOM     17  C   UNL     1      17.417   7.791  20.827  0.00  0.00    +0.023 A 
ENDROOT
BRANCH   9   8
ATOM      1  O   UNL     1      21.020   5.087  22.047  0.00  0.00    -0.361 OA
ATOM      3  O   UNL     1      24.555   5.021  22.651  0.00  0.00    -0.273 OA
ATOM      5  N   UNL     1      23.318   6.422  21.319  0.00  0.00    -0.306 N 
ATOM      7  CA  UNL     1      22.046   6.787  20.703  0.00  0.00    +0.131 C 
ATOM      8  C   UNL     1      20.881   6.456  21.648  0.00  0.00    +0.171 C 
ATOM     11  C   UNL     1      22.168   4.895  22.846  0.00  0.00    +0.256 C 
ATOM     12  C   UNL     1      23.461   5.423  22.256  0.00  0.00    +0.239 C 
ATOM     26  H   UNL     1      24.169   6.796  20.907  0.00  0.00    +0.149 HD
BRANCH   7  10
ATOM     10  C   UNL     1      22.073   8.258  20.297  0.00  0.00    +0.181 C 
BRANCH  10   2
ATOM      2  O   UNL     1      23.128   8.451  19.374  0.00  0.00    -0.393 OA
ATOM     27  H   UNL     1      23.921   8.682  19.887  0.00  0.00    +0.209 HD
ENDBRANCH  10   2
ENDBRANCH   7  10
ENDBRANCH   9   8
BRANCH  15   6
ATOM      4  O   UNL     1      14.264   6.816  21.064  0.00  0.00    -0.275 OA
ATOM      6  N   UNL     1      15.745   7.042  19.250  0.00  0.00    -0.285 N 
ATOM     18  C   UNL     1      14.486   6.996  19.872  0.00  0.00    +0.222 C 
ATOM     28  H   UNL     1      15.762   7.203  18.246  0.00  0.00    +0.155 HD
BRANCH  18  19
ATOM     19  C   UNL     1      13.369   7.200  18.859  0.00  0.00    +0.131 C 
BRANCH  19  20
ATOM     20  C   UNL     1      13.551   8.429  18.006  0.00  0.00    -0.039 A 
ATOM     21  C   UNL     1      13.898   8.300  16.661  0.00  0.00    +0.004 A 
ATOM     22  C   UNL     1      13.372   9.695  18.562  0.00  0.00    +0.004 A 
ATOM     23  C   UNL     1      14.066   9.438  15.872  0.00  0.00    +0.000 A 
ATOM     24  C   UNL     1      13.539  10.834  17.772  0.00  0.00    +0.000 A 
ATOM     25  C   UNL     1      13.886  10.704  16.427  0.00  0.00    +0.000 A 
ENDBRANCH  19  20
ENDBRANCH  18  19
ENDBRANCH  15   6
TORSDOF 6
ENDMDL
