MODEL 1
REMARK VINA RESULT:      -8.8      0.000      0.000
REMARK  Name = 11943013
REMARK  7 active torsions:
REMARK  status: ('A' for Active; 'I' for Inactive)
REMARK    1  A    between atoms: O_7  and  C_29
REMARK    2  A    between atoms: O_7  and  C_37
REMARK    3  A    between atoms: N_8  and  C_15
REMARK    4  A    between atoms: N_9  and  C_16
REMARK    5  A    between atoms: N_10  and  C_22
REMARK    6  A    between atoms: C_21  and  C_25
REMARK    7  A    between atoms: C_28  and  C_33
REMARK                            x       y       z     vdW  Elec       q    Type
REMARK                         _______ _______ _______ _____ _____    ______ ____
ROOT
ATOM      4  O   UNL     1      12.337  12.287  24.813  0.00  0.00    -0.370 OA
ATOM      5  O   UNL     1      12.534  13.271  21.858  0.00  0.00    -0.370 OA
ATOM     13  C   UNL     1      12.311  11.981  22.453  0.00  0.00    +0.171 C 
ATOM     14  C   UNL     1      13.167  11.907  23.703  0.00  0.00    +0.171 C 
ATOM     15  C   UNL     1      10.895  11.880  22.969  0.00  0.00    +0.130 C 
ATOM     16  C   UNL     1      14.243  12.944  23.473  0.00  0.00    +0.131 C 
ATOM     17  C   UNL     1      10.998  12.508  24.348  0.00  0.00    +0.185 C 
ATOM     18  C   UNL     1      13.524  13.976  22.623  0.00  0.00    +0.185 C 
ENDROOT
BRANCH  15   8
ATOM      8  N   UNL     1      10.505  10.491  23.080  0.00  0.00    -0.306 N 
ATOM     11  N   UNL     1      11.589   9.932  21.104  0.00  0.00    -0.214 NA
ATOM     12  N   UNL     1      10.413   8.274  22.398  0.00  0.00    -0.223 NA
ATOM     19  C   UNL     1      10.851   9.525  22.154  0.00  0.00    +0.216 A 
ATOM     21  C   UNL     1      11.908   8.963  20.222  0.00  0.00    +0.080 A 
ATOM     23  C   UNL     1      10.768   7.356  21.476  0.00  0.00    +0.116 A 
ATOM     24  C   UNL     1      11.522   7.645  20.357  0.00  0.00    +0.048 A 
ATOM     38  H   UNL     1       9.995  10.182  23.899  0.00  0.00    +0.149 HD
BRANCH  21  25
ATOM     25  C   UNL     1      12.699   9.396  19.095  0.00  0.00    +0.042 A 
ATOM     29  C   UNL     1      12.365   9.012  17.796  0.00  0.00    +0.129 A 
ATOM     30  C   UNL     1      13.811  10.208  19.317  0.00  0.00    +0.013 A 
ATOM     34  C   UNL     1      13.143   9.440  16.720  0.00  0.00    +0.046 A 
ATOM     35  C   UNL     1      14.589  10.636  18.241  0.00  0.00    +0.001 A 
ATOM     36  C   UNL     1      14.254  10.252  16.943  0.00  0.00    +0.004 A 
BRANCH  29   7
ATOM      7  O   UNL     1      11.283   8.218  17.549  0.00  0.00    -0.494 OA
ATOM     37  C   UNL     1      10.458   8.576  16.444  0.00  0.00    +0.277 C 
ENDBRANCH  29   7
ENDBRANCH  21  25
ENDBRANCH  15   8
BRANCH  16   9
ATOM      6  O   UNL     1      14.764  10.163  23.019  0.00  0.00    -0.252 OA
ATOM      9  N   UNL     1      15.370  12.380  22.770  0.00  0.00    -0.292 N 
ATOM     10  N   UNL     1      16.725  10.756  21.875  0.00  0.00    -0.269 N 
ATOM     20  C   UNL     1      15.551  11.004  22.591  0.00  0.00    +0.304 C 
ATOM     39  H   UNL     1      16.029  13.014  22.327  0.00  0.00    +0.151 HD
ATOM     40  H   UNL     1      17.268  11.569  21.593  0.00  0.00    +0.156 HD
BRANCH  10  22
ATOM     22  C   UNL     1      17.261   9.505  21.490  0.00  0.00    +0.035 A 
ATOM     26  C   UNL     1      16.502   8.629  20.714  0.00  0.00    +0.035 A 
ATOM     27  C   UNL     1      18.550   9.147  21.888  0.00  0.00    +0.023 A 
ATOM     28  C   UNL     1      17.032   7.395  20.337  0.00  0.00    +0.057 A 
ATOM     31  C   UNL     1      19.078   7.913  21.509  0.00  0.00    +0.002 A 
ATOM     32  C   UNL     1      18.320   7.036  20.734  0.00  0.00    +0.012 A 
BRANCH  28  33
ATOM      1  F   UNL     1      15.567   7.066  18.473  0.00  0.00    -0.166 F 
ATOM      2  F   UNL     1      16.957   5.465  18.925  0.00  0.00    -0.166 F 
ATOM      3  F   UNL     1      15.252   5.822  20.227  0.00  0.00    -0.166 F 
ATOM     33  C   UNL     1      16.221   6.458  19.507  0.00  0.00    +0.417 C 
ENDBRANCH  28  33
ENDBRANCH  10  22
ENDBRANCH  16   9
TORSDOF 6
ENDMDL
MODEL 2
REMARK VINA RESULT:      -8.7      6.772     11.620
REMARK  Name = 11943013
REMARK  7 active torsions:
REMARK  status: ('A' for Active; 'I' for Inactive)
REMARK    1  A    between atoms: O_7  and  C_29
REMARK    2  A    between atoms: O_7  and  C_37
REMARK    3  A    between atoms: N_8  and  C_15
REMARK    4  A    between atoms: N_9  and  C_16
REMARK    5  A    between atoms: N_10  and  C_22
REMARK    6  A    between atoms: C_21  and  C_25
REMARK    7  A    between atoms: C_28  and  C_33
REMARK                            x       y       z     vdW  Elec       q    Type
REMARK                         _______ _______ _______ _____ _____    ______ ____
ROOT
ATOM      4  O   UNL     1      21.974   7.425  20.764  0.00  0.00    -0.370 OA
ATOM      5  O   UNL     1      20.352   6.055  23.051  0.00  0.00    -0.370 OA
ATOM     13  C   UNL     1      21.011   5.554  21.875  0.00  0.00    +0.171 C 
ATOM     14  C   UNL     1      20.811   6.580  20.776  0.00  0.00    +0.171 C 
ATOM     15  C   UNL     1      22.506   5.524  22.085  0.00  0.00    +0.130 C 
ATOM     16  C   UNL     1      19.597   7.363  21.220  0.00  0.00    +0.131 C 
ATOM     17  C   UNL     1      22.922   6.939  21.725  0.00  0.00    +0.185 C 
ATOM     18  C   UNL     1      19.701   7.294  22.733  0.00  0.00    +0.185 C 
ENDROOT
BRANCH  15   8
ATOM      8  N   UNL     1      23.116   4.577  21.176  0.00  0.00    -0.306 N 
ATOM     11  N   UNL     1      23.409   3.006  22.859  0.00  0.00    -0.214 NA
ATOM     12  N   UNL     1      24.106   2.559  20.596  0.00  0.00    -0.223 NA
ATOM     19  C   UNL     1      23.562   3.327  21.561  0.00  0.00    +0.216 A 
ATOM     21  C   UNL     1      23.856   1.779  23.199  0.00  0.00    +0.080 A 
ATOM     23  C   UNL     1      24.531   1.346  21.005  0.00  0.00    +0.116 A 
ATOM     24  C   UNL     1      24.431   0.897  22.307  0.00  0.00    +0.048 A 
ATOM     38  H   UNL     1      23.180   4.805  20.190  0.00  0.00    +0.149 HD
BRANCH  21  25
ATOM     25  C   UNL     1      23.693   1.431  24.590  0.00  0.00    +0.042 A 
ATOM     29  C   UNL     1      24.664   1.772  25.532  0.00  0.00    +0.129 A 
ATOM     30  C   UNL     1      22.546   0.744  24.989  0.00  0.00    +0.013 A 
ATOM     34  C   UNL     1      24.488   1.426  26.872  0.00  0.00    +0.046 A 
ATOM     35  C   UNL     1      22.371   0.398  26.329  0.00  0.00    +0.001 A 
ATOM     36  C   UNL     1      23.341   0.739  27.270  0.00  0.00    +0.004 A 
BRANCH  29   7
ATOM      7  O   UNL     1      25.795   2.443  25.170  0.00  0.00    -0.494 OA
ATOM     37  C   UNL     1      27.021   1.719  25.223  0.00  0.00    +0.277 C 
ENDBRANCH  29   7
ENDBRANCH  21  25
ENDBRANCH  15   8
BRANCH  16   9
ATOM      6  O   UNL     1      17.160   8.699  20.527  0.00  0.00    -0.252 OA
ATOM      9  N   UNL     1      18.379   6.748  20.751  0.00  0.00    -0.292 N 
ATOM     10  N   UNL     1      16.210   6.617  20.006  0.00  0.00    -0.269 N 
ATOM     20  C   UNL     1      17.226   7.476  20.432  0.00  0.00    +0.304 C 
ATOM     39  H   UNL     1      18.378   5.747  20.581  0.00  0.00    +0.151 HD
ATOM     40  H   UNL     1      16.430   5.624  19.987  0.00  0.00    +0.156 HD
BRANCH  10  22
ATOM     22  C   UNL     1      14.900   6.957  19.597  0.00  0.00    +0.035 A 
ATOM     26  C   UNL     1      13.846   6.895  20.509  0.00  0.00    +0.035 A 
ATOM     27  C   UNL     1      14.661   7.355  18.281  0.00  0.00    +0.023 A 
ATOM     28  C   UNL     1      12.554   7.231  20.104  0.00  0.00    +0.057 A 
ATOM     31  C   UNL     1      13.369   7.691  17.878  0.00  0.00    +0.002 A 
ATOM     32  C   UNL     1      12.315   7.628  18.789  0.00  0.00    +0.012 A 
BRANCH  28  33
ATOM      1  F   UNL     1      10.936   5.904  21.265  0.00  0.00    -0.166 F 
ATOM      2  F   UNL     1      11.757   7.606  22.329  0.00  0.00    -0.166 F 
ATOM      3  F   UNL     1      10.356   7.920  20.695  0.00  0.00    -0.166 F 
ATOM     33  C   UNL     1      11.427   7.165  21.078  0.00  0.00    +0.417 C 
ENDBRANCH  28  33
ENDBRANCH  10  22
ENDBRANCH  16   9
TORSDOF 6
ENDMDL
MODEL 3
REMARK VINA RESULT:      -8.4      3.377      6.420
REMARK  Name = 11943013
REMARK  7 active torsions:
REMARK  status: ('A' for Active; 'I' for Inactive)
REMARK    1  A    between atoms: O_7  and  C_29
REMARK    2  A    between atoms: O_7  and  C_37
REMARK    3  A    between atoms: N_8  and  C_15
REMARK    4  A    between atoms: N_9  and  C_16
REMARK    5  A    between atoms: N_10  and  C_22
REMARK    6  A    between atoms: C_21  and  C_25
REMARK    7  A    between atoms: C_28  and  C_33
REMARK                            x       y       z     vdW  Elec       q    Type
REMARK                         _______ _______ _______ _____ _____    ______ ____
ROOT
ATOM      4  O   UNL     1      14.095   7.784  17.899  0.00  0.00    -0.370 OA
ATOM      5  O   UNL     1      13.811   7.825  21.007  0.00  0.00    -0.370 OA
ATOM     13  C   UNL     1      14.174   8.824  20.038  0.00  0.00    +0.171 C 
ATOM     14  C   UNL     1      14.993   8.133  18.965  0.00  0.00    +0.171 C 
ATOM     15  C   UNL     1      12.947   9.315  19.307  0.00  0.00    +0.130 C 
ATOM     16  C   UNL     1      15.512   6.887  19.644  0.00  0.00    +0.131 C 
ATOM     17  C   UNL     1      12.785   8.288  18.201  0.00  0.00    +0.185 C 
ATOM     18  C   UNL     1      14.408   6.573  20.637  0.00  0.00    +0.185 C 
ENDROOT
BRANCH  15   8
ATOM      8  N   UNL     1      13.198  10.624  18.742  0.00  0.00    -0.306 N 
ATOM     11  N   UNL     1      12.515  11.696  20.685  0.00  0.00    -0.214 NA
ATOM     12  N   UNL     1      13.267  12.944  18.766  0.00  0.00    -0.223 NA
ATOM     19  C   UNL     1      12.984  11.805  19.428  0.00  0.00    +0.216 A 
ATOM     21  C   UNL     1      12.318  12.868  21.324  0.00  0.00    +0.080 A 
ATOM     23  C   UNL     1      13.047  14.078  19.463  0.00  0.00    +0.116 A 
ATOM     24  C   UNL     1      12.570  14.102  20.758  0.00  0.00    +0.048 A 
ATOM     38  H   UNL     1      13.600  10.697  17.815  0.00  0.00    +0.149 HD
BRANCH  21  25
ATOM     25  C   UNL     1      11.817  12.755  22.672  0.00  0.00    +0.042 A 
ATOM     29  C   UNL     1      12.490  11.990  23.625  0.00  0.00    +0.129 A 
ATOM     30  C   UNL     1      10.642  13.424  23.019  0.00  0.00    +0.013 A 
ATOM     34  C   UNL     1      11.989  11.893  24.923  0.00  0.00    +0.046 A 
ATOM     35  C   UNL     1      10.141  13.326  24.317  0.00  0.00    +0.001 A 
ATOM     36  C   UNL     1      10.815  12.562  25.268  0.00  0.00    +0.004 A 
BRANCH  29   7
ATOM      7  O   UNL     1      13.640  11.326  23.314  0.00  0.00    -0.494 OA
ATOM     37  C   UNL     1      14.745  11.497  24.198  0.00  0.00    +0.277 C 
ENDBRANCH  29   7
ENDBRANCH  21  25
ENDBRANCH  15   8
BRANCH  16   9
ATOM      6  O   UNL     1      18.026   5.614  19.125  0.00  0.00    -0.252 OA
ATOM      9  N   UNL     1      16.764   7.141  20.317  0.00  0.00    -0.292 N 
ATOM     10  N   UNL     1      18.996   6.925  20.813  0.00  0.00    -0.269 N 
ATOM     20  C   UNL     1      17.953   6.472  20.001  0.00  0.00    +0.304 C 
ATOM     39  H   UNL     1      16.799   7.886  21.006  0.00  0.00    +0.151 HD
ATOM     40  H   UNL     1      18.765   7.645  21.495  0.00  0.00    +0.156 HD
BRANCH  10  22
ATOM     22  C   UNL     1      20.346   6.504  20.809  0.00  0.00    +0.035 A 
ATOM     26  C   UNL     1      20.668   5.188  21.144  0.00  0.00    +0.035 A 
ATOM     27  C   UNL     1      21.356   7.404  20.470  0.00  0.00    +0.023 A 
ATOM     28  C   UNL     1      22.000   4.774  21.139  0.00  0.00    +0.057 A 
ATOM     31  C   UNL     1      22.688   6.989  20.465  0.00  0.00    +0.002 A 
ATOM     32  C   UNL     1      23.010   5.674  20.801  0.00  0.00    +0.012 A 
BRANCH  28  33
ATOM      1  F   UNL     1      21.768   2.437  20.680  0.00  0.00    -0.166 F 
ATOM      2  F   UNL     1      23.683   3.103  21.447  0.00  0.00    -0.166 F 
ATOM      3  F   UNL     1      21.952   3.036  22.762  0.00  0.00    -0.166 F 
ATOM     33  C   UNL     1      22.344   3.368  21.497  0.00  0.00    +0.417 C 
ENDBRANCH  28  33
ENDBRANCH  10  22
ENDBRANCH  16   9
TORSDOF 6
ENDMDL
MODEL 4
REMARK VINA RESULT:      -8.4      1.617      2.266
REMARK  Name = 11943013
REMARK  7 active torsions:
REMARK  status: ('A' for Active; 'I' for Inactive)
REMARK    1  A    between atoms: O_7  and  C_29
REMARK    2  A    between atoms: O_7  and  C_37
REMARK    3  A    between atoms: N_8  and  C_15
REMARK    4  A    between atoms: N_9  and  C_16
REMARK    5  A    between atoms: N_10  and  C_22
REMARK    6  A    between atoms: C_21  and  C_25
REMARK    7  A    between atoms: C_28  and  C_33
REMARK                            x       y       z     vdW  Elec       q    Type
REMARK                         _______ _______ _______ _____ _____    ______ ____
ROOT
ATOM      4  O   UNL     1      12.610  12.768  23.815  0.00  0.00    -0.370 OA
ATOM      5  O   UNL     1      12.223  13.052  20.731  0.00  0.00    -0.370 OA
ATOM     13  C   UNL     1      12.213  11.926  21.626  0.00  0.00    +0.171 C 
ATOM     14  C   UNL     1      13.270  12.180  22.682  0.00  0.00    +0.171 C 
ATOM     15  C   UNL     1      10.918  11.885  22.402  0.00  0.00    +0.130 C 
ATOM     16  C   UNL     1      14.200  13.182  22.038  0.00  0.00    +0.131 C 
ATOM     17  C   UNL     1      11.198  12.818  23.566  0.00  0.00    +0.185 C 
ATOM     18  C   UNL     1      13.264  13.958  21.128  0.00  0.00    +0.185 C 
ENDROOT
BRANCH  15   8
ATOM      8  N   UNL     1      10.671  10.543  22.883  0.00  0.00    -0.306 N 
ATOM     11  N   UNL     1      11.343   9.597  20.873  0.00  0.00    -0.214 NA
ATOM     12  N   UNL     1      10.607   8.229  22.715  0.00  0.00    -0.223 NA
ATOM     19  C   UNL     1      10.883   9.407  22.124  0.00  0.00    +0.216 A 
ATOM     21  C   UNL     1      11.538   8.468  20.161  0.00  0.00    +0.080 A 
ATOM     23  C   UNL     1      10.825   7.141  21.947  0.00  0.00    +0.116 A 
ATOM     24  C   UNL     1      11.295   7.200  20.650  0.00  0.00    +0.048 A 
ATOM     38  H   UNL     1      10.375  10.406  23.843  0.00  0.00    +0.149 HD
BRANCH  21  25
ATOM     25  C   UNL     1      12.032   8.666  18.819  0.00  0.00    +0.042 A 
ATOM     29  C   UNL     1      13.402   8.709  18.559  0.00  0.00    +0.129 A 
ATOM     30  C   UNL     1      11.120   8.816  17.774  0.00  0.00    +0.013 A 
ATOM     34  C   UNL     1      13.860   8.901  17.256  0.00  0.00    +0.046 A 
ATOM     35  C   UNL     1      11.578   9.009  16.470  0.00  0.00    +0.001 A 
ATOM     36  C   UNL     1      12.947   9.051  16.212  0.00  0.00    +0.004 A 
BRANCH  29   7
ATOM      7  O   UNL     1      14.316   8.564  19.562  0.00  0.00    -0.494 OA
ATOM     37  C   UNL     1      15.006   7.319  19.633  0.00  0.00    +0.277 C 
ENDBRANCH  29   7
ENDBRANCH  21  25
ENDBRANCH  15   8
BRANCH  16   9
ATOM      6  O   UNL     1      16.285  11.515  23.078  0.00  0.00    -0.252 OA
ATOM      9  N   UNL     1      15.237  12.522  21.281  0.00  0.00    -0.292 N 
ATOM     10  N   UNL     1      17.085  11.215  20.892  0.00  0.00    -0.269 N 
ATOM     20  C   UNL     1      16.223  11.720  21.868  0.00  0.00    +0.304 C 
ATOM     39  H   UNL     1      15.211  12.587  20.268  0.00  0.00    +0.151 HD
ATOM     40  H   UNL     1      16.894  11.484  19.930  0.00  0.00    +0.156 HD
BRANCH  10  22
ATOM     22  C   UNL     1      18.204  10.370  21.075  0.00  0.00    +0.035 A 
ATOM     26  C   UNL     1      18.024   8.994  21.216  0.00  0.00    +0.035 A 
ATOM     27  C   UNL     1      19.489  10.913  21.114  0.00  0.00    +0.023 A 
ATOM     28  C   UNL     1      19.129   8.162  21.397  0.00  0.00    +0.057 A 
ATOM     31  C   UNL     1      20.593  10.080  21.294  0.00  0.00    +0.002 A 
ATOM     32  C   UNL     1      20.414   8.704  21.437  0.00  0.00    +0.012 A 
BRANCH  28  33
ATOM      1  F   UNL     1      17.627   6.309  21.585  0.00  0.00    -0.166 F 
ATOM      2  F   UNL     1      19.491   5.960  20.535  0.00  0.00    -0.166 F 
ATOM      3  F   UNL     1      19.493   6.203  22.696  0.00  0.00    -0.166 F 
ATOM     33  C   UNL     1      18.938   6.690  21.548  0.00  0.00    +0.417 C 
ENDBRANCH  28  33
ENDBRANCH  10  22
ENDBRANCH  16   9
TORSDOF 6
ENDMDL
MODEL 5
REMARK VINA RESULT:      -8.3      6.053      7.793
REMARK  Name = 11943013
REMARK  7 active torsions:
REMARK  status: ('A' for Active; 'I' for Inactive)
REMARK    1  A    between atoms: O_7  and  C_29
REMARK    2  A    between atoms: O_7  and  C_37
REMARK    3  A    between atoms: N_8  and  C_15
REMARK    4  A    between atoms: N_9  and  C_16
REMARK    5  A    between atoms: N_10  and  C_22
REMARK    6  A    between atoms: C_21  and  C_25
REMARK    7  A    between atoms: C_28  and  C_33
REMARK                            x       y       z     vdW  Elec       q    Type
REMARK                         _______ _______ _______ _____ _____    ______ ____
ROOT
ATOM      4  O   UNL     1      11.200  13.169  23.839  0.00  0.00    -0.370 OA
ATOM      5  O   UNL     1      14.130  12.120  23.609  0.00  0.00    -0.370 OA
ATOM     13  C   UNL     1      12.867  11.471  23.833  0.00  0.00    +0.171 C 
ATOM     14  C   UNL     1      12.037  12.389  24.709  0.00  0.00    +0.171 C 
ATOM     15  C   UNL     1      12.086  11.386  22.543  0.00  0.00    +0.130 C 
ATOM     16  C   UNL     1      13.059  13.273  25.386  0.00  0.00    +0.131 C 
ATOM     17  C   UNL     1      11.392  12.735  22.485  0.00  0.00    +0.185 C 
ATOM     18  C   UNL     1      14.161  13.353  24.345  0.00  0.00    +0.185 C 
ENDROOT
BRANCH  15   8
ATOM      8  N   UNL     1      11.108  10.323  22.624  0.00  0.00    -0.306 N 
ATOM     11  N   UNL     1      12.578   8.773  21.715  0.00  0.00    -0.214 NA
ATOM     12  N   UNL     1      10.341   8.149  22.356  0.00  0.00    -0.223 NA
ATOM     19  C   UNL     1      11.354   9.026  22.214  0.00  0.00    +0.216 A 
ATOM     21  C   UNL     1      12.783   7.498  21.325  0.00  0.00    +0.080 A 
ATOM     23  C   UNL     1      10.614   6.893  21.947  0.00  0.00    +0.116 A 
ATOM     24  C   UNL     1      11.829   6.505  21.419  0.00  0.00    +0.048 A 
ATOM     38  H   UNL     1      10.207  10.508  23.049  0.00  0.00    +0.149 HD
BRANCH  21  25
ATOM     25  C   UNL     1      14.095   7.223  20.791  0.00  0.00    +0.042 A 
ATOM     29  C   UNL     1      14.301   7.129  19.414  0.00  0.00    +0.129 A 
ATOM     30  C   UNL     1      15.165   7.050  21.669  0.00  0.00    +0.013 A 
ATOM     34  C   UNL     1      15.577   6.863  18.916  0.00  0.00    +0.046 A 
ATOM     35  C   UNL     1      16.440   6.783  21.171  0.00  0.00    +0.001 A 
ATOM     36  C   UNL     1      16.646   6.689  19.795  0.00  0.00    +0.004 A 
BRANCH  29   7
ATOM      7  O   UNL     1      13.273   7.294  18.532  0.00  0.00    -0.494 OA
ATOM     37  C   UNL     1      13.326   8.439  17.685  0.00  0.00    +0.277 C 
ENDBRANCH  29   7
ENDBRANCH  21  25
ENDBRANCH  15   8
BRANCH  16   9
ATOM      6  O   UNL     1      13.734  14.643  27.810  0.00  0.00    -0.252 OA
ATOM      9  N   UNL     1      13.537  12.677  26.610  0.00  0.00    -0.292 N 
ATOM     10  N   UNL     1      14.281  12.577  28.780  0.00  0.00    -0.269 N 
ATOM     20  C   UNL     1      13.846  13.420  27.756  0.00  0.00    +0.304 C 
ATOM     39  H   UNL     1      13.590  11.664  26.665  0.00  0.00    +0.151 HD
ATOM     40  H   UNL     1      14.318  11.582  28.569  0.00  0.00    +0.156 HD
BRANCH  10  22
ATOM     22  C   UNL     1      14.686  12.935  30.088  0.00  0.00    +0.035 A 
ATOM     26  C   UNL     1      13.806  12.778  31.158  0.00  0.00    +0.035 A 
ATOM     27  C   UNL     1      15.966  13.446  30.305  0.00  0.00    +0.023 A 
ATOM     28  C   UNL     1      14.206  13.132  32.447  0.00  0.00    +0.057 A 
ATOM     31  C   UNL     1      16.365  13.800  31.594  0.00  0.00    +0.002 A 
ATOM     32  C   UNL     1      15.485  13.644  32.665  0.00  0.00    +0.012 A 
BRANCH  28  33
ATOM      1  F   UNL     1      13.430  13.896  34.577  0.00  0.00    -0.166 F 
ATOM      2  F   UNL     1      11.950  13.052  33.237  0.00  0.00    -0.166 F 
ATOM      3  F   UNL     1      13.399  11.754  34.208  0.00  0.00    -0.166 F 
ATOM     33  C   UNL     1      13.266  12.965  33.592  0.00  0.00    +0.417 C 
ENDBRANCH  28  33
ENDBRANCH  10  22
ENDBRANCH  16   9
TORSDOF 6
ENDMDL
MODEL 6
REMARK VINA RESULT:      -8.2     27.751     30.711
REMARK  Name = 11943013
REMARK  7 active torsions:
REMARK  status: ('A' for Active; 'I' for Inactive)
REMARK    1  A    between atoms: O_7  and  C_29
REMARK    2  A    between atoms: O_7  and  C_37
REMARK    3  A    between atoms: N_8  and  C_15
REMARK    4  A    between atoms: N_9  and  C_16
REMARK    5  A    between atoms: N_10  and  C_22
REMARK    6  A    between atoms: C_21  and  C_25
REMARK    7  A    between atoms: C_28  and  C_33
REMARK                            x       y       z     vdW  Elec       q    Type
REMARK                         _______ _______ _______ _____ _____    ______ ____
ROOT
ATOM      4  O   UNL     1     -12.790  -8.827  16.182  0.00  0.00    -0.370 OA
ATOM      5  O   UNL     1     -11.339  -6.302  15.062  0.00  0.00    -0.370 OA
ATOM     13  C   UNL     1     -11.631  -7.596  14.508  0.00  0.00    +0.171 C 
ATOM     14  C   UNL     1     -11.483  -8.608  15.628  0.00  0.00    +0.171 C 
ATOM     15  C   UNL     1     -13.088  -7.684  14.121  0.00  0.00    +0.130 C 
ATOM     16  C   UNL     1     -10.594  -7.915  16.635  0.00  0.00    +0.131 C 
ATOM     17  C   UNL     1     -13.755  -8.082  15.425  0.00  0.00    +0.185 C 
ATOM     18  C   UNL     1     -10.956  -6.454  16.437  0.00  0.00    +0.185 C 
ENDROOT
BRANCH  15   8
ATOM      8  N   UNL     1     -13.275  -8.719  13.127  0.00  0.00    -0.306 N 
ATOM     11  N   UNL     1     -12.780  -7.266  11.385  0.00  0.00    -0.214 NA
ATOM     12  N   UNL     1     -13.328  -9.575  10.970  0.00  0.00    -0.223 NA
ATOM     19  C   UNL     1     -13.121  -8.511  11.769  0.00  0.00    +0.216 A 
ATOM     21  C   UNL     1     -12.639  -7.099  10.054  0.00  0.00    +0.080 A 
ATOM     23  C   UNL     1     -13.170  -9.338   9.651  0.00  0.00    +0.116 A 
ATOM     24  C   UNL     1     -12.822  -8.108   9.130  0.00  0.00    +0.048 A 
ATOM     38  H   UNL     1     -13.480  -9.665  13.427  0.00  0.00    +0.149 HD
BRANCH  21  25
ATOM     25  C   UNL     1     -12.273  -5.766   9.638  0.00  0.00    +0.042 A 
ATOM     29  C   UNL     1     -13.245  -4.783   9.448  0.00  0.00    +0.129 A 
ATOM     30  C   UNL     1     -10.928  -5.465   9.426  0.00  0.00    +0.013 A 
ATOM     34  C   UNL     1     -12.872  -3.501   9.046  0.00  0.00    +0.046 A 
ATOM     35  C   UNL     1     -10.554  -4.183   9.023  0.00  0.00    +0.001 A 
ATOM     36  C   UNL     1     -11.526  -3.202   8.834  0.00  0.00    +0.004 A 
BRANCH  29   7
ATOM      7  O   UNL     1     -14.568  -5.050   9.648  0.00  0.00    -0.494 OA
ATOM     37  C   UNL     1     -15.202  -4.392  10.742  0.00  0.00    +0.277 C 
ENDBRANCH  29   7
ENDBRANCH  21  25
ENDBRANCH  15   8
BRANCH  16   9
ATOM      6  O   UNL     1      -8.869  -9.781  17.957  0.00  0.00    -0.252 OA
ATOM      9  N   UNL     1      -9.199  -8.152  16.351  0.00  0.00    -0.292 N 
ATOM     10  N   UNL     1      -7.116  -9.097  16.554  0.00  0.00    -0.269 N 
ATOM     20  C   UNL     1      -8.423  -9.086  17.046  0.00  0.00    +0.304 C 
ATOM     39  H   UNL     1      -8.777  -7.665  15.566  0.00  0.00    +0.151 HD
ATOM     40  H   UNL     1      -6.909  -8.454  15.793  0.00  0.00    +0.156 HD
BRANCH  10  22
ATOM     22  C   UNL     1      -6.031  -9.895  16.986  0.00  0.00    +0.035 A 
ATOM     26  C   UNL     1      -4.942 -10.110  16.141  0.00  0.00    +0.035 A 
ATOM     27  C   UNL     1      -6.050 -10.467  18.259  0.00  0.00    +0.023 A 
ATOM     28  C   UNL     1      -3.873 -10.898  16.569  0.00  0.00    +0.057 A 
ATOM     31  C   UNL     1      -4.980 -11.253  18.686  0.00  0.00    +0.002 A 
ATOM     32  C   UNL     1      -3.892 -11.470  17.841  0.00  0.00    +0.012 A 
BRANCH  28  33
ATOM      1  F   UNL     1      -2.659 -10.269  14.605  0.00  0.00    -0.166 F 
ATOM      2  F   UNL     1      -1.500 -10.995  16.288  0.00  0.00    -0.166 F 
ATOM      3  F   UNL     1      -2.705 -12.380  15.123  0.00  0.00    -0.166 F 
ATOM     33  C   UNL     1      -2.709 -11.128  15.666  0.00  0.00    +0.417 C 
ENDBRANCH  28  33
ENDBRANCH  10  22
ENDBRANCH  16   9
TORSDOF 6
ENDMDL
MODEL 7
REMARK VINA RESULT:      -8.2     28.353     32.314
REMARK  Name = 11943013
REMARK  7 active torsions:
REMARK  status: ('A' for Active; 'I' for Inactive)
REMARK    1  A    between atoms: O_7  and  C_29
REMARK    2  A    between atoms: O_7  and  C_37
REMARK    3  A    between atoms: N_8  and  C_15
REMARK    4  A    between atoms: N_9  and  C_16
REMARK    5  A    between atoms: N_10  and  C_22
REMARK    6  A    between atoms: C_21  and  C_25
REMARK    7  A    between atoms: C_28  and  C_33
REMARK                            x       y       z     vdW  Elec       q    Type
REMARK                         _______ _______ _______ _____ _____    ______ ____
ROOT
ATOM      4  O   UNL     1      -4.344 -14.757   4.698  0.00  0.00    -0.370 OA
ATOM      5  O   UNL     1      -1.549 -13.925   5.810  0.00  0.00    -0.370 OA
ATOM     13  C   UNL     1      -2.699 -13.177   5.377  0.00  0.00    +0.171 C 
ATOM     14  C   UNL     1      -3.295 -13.914   4.193  0.00  0.00    +0.171 C 
ATOM     15  C   UNL     1      -3.783 -13.229   6.428  0.00  0.00    +0.130 C 
ATOM     16  C   UNL     1      -2.153 -14.753   3.669  0.00  0.00    +0.131 C 
ATOM     17  C   UNL     1      -4.496 -14.530   6.107  0.00  0.00    +0.185 C 
ATOM     18  C   UNL     1      -1.356 -15.042   4.929  0.00  0.00    +0.185 C 
ENDROOT
BRANCH  15   8
ATOM      8  N   UNL     1      -4.685 -12.109   6.265  0.00  0.00    -0.306 N 
ATOM     11  N   UNL     1      -4.238 -11.317   8.401  0.00  0.00    -0.214 NA
ATOM     12  N   UNL     1      -5.777 -10.176   6.940  0.00  0.00    -0.223 NA
ATOM     19  C   UNL     1      -4.909 -11.160   7.244  0.00  0.00    +0.216 A 
ATOM     21  C   UNL     1      -4.482 -10.374   9.334  0.00  0.00    +0.080 A 
ATOM     23  C   UNL     1      -5.974  -9.267   7.917  0.00  0.00    +0.116 A 
ATOM     24  C   UNL     1      -5.347  -9.315   9.146  0.00  0.00    +0.048 A 
ATOM     38  H   UNL     1      -5.146 -11.968   5.373  0.00  0.00    +0.149 HD
BRANCH  21  25
ATOM     25  C   UNL     1      -3.764 -10.538  10.575  0.00  0.00    +0.042 A 
ATOM     29  C   UNL     1      -4.266 -11.353  11.590  0.00  0.00    +0.129 A 
ATOM     30  C   UNL     1      -2.553  -9.869  10.754  0.00  0.00    +0.013 A 
ATOM     34  C   UNL     1      -3.557 -11.500  12.782  0.00  0.00    +0.046 A 
ATOM     35  C   UNL     1      -1.844 -10.015  11.947  0.00  0.00    +0.001 A 
ATOM     36  C   UNL     1      -2.347 -10.830  12.960  0.00  0.00    +0.004 A 
BRANCH  29   7
ATOM      7  O   UNL     1      -5.448 -12.019  11.442  0.00  0.00    -0.494 OA
ATOM     37  C   UNL     1      -6.532 -11.603  12.267  0.00  0.00    +0.277 C 
ENDBRANCH  29   7
ENDBRANCH  21  25
ENDBRANCH  15   8
BRANCH  16   9
ATOM      6  O   UNL     1      -0.327 -15.853   1.754  0.00  0.00    -0.252 OA
ATOM      9  N   UNL     1      -1.364 -14.020   2.708  0.00  0.00    -0.292 N 
ATOM     10  N   UNL     1       0.131 -13.679   0.999  0.00  0.00    -0.269 N 
ATOM     20  C   UNL     1      -0.492 -14.636   1.803  0.00  0.00    +0.304 C 
ATOM     39  H   UNL     1      -1.497 -13.016   2.640  0.00  0.00    +0.151 HD
ATOM     40  H   UNL     1      -0.117 -12.707   1.170  0.00  0.00    +0.156 HD
BRANCH  10  22
ATOM     22  C   UNL     1       1.076 -13.892  -0.032  0.00  0.00    +0.035 A 
ATOM     26  C   UNL     1       2.403 -14.183   0.286  0.00  0.00    +0.035 A 
ATOM     27  C   UNL     1       0.681 -13.811  -1.368  0.00  0.00    +0.023 A 
ATOM     28  C   UNL     1       3.334 -14.392  -0.732  0.00  0.00    +0.057 A 
ATOM     31  C   UNL     1       1.612 -14.021  -2.384  0.00  0.00    +0.002 A 
ATOM     32  C   UNL     1       2.939 -14.311  -2.067  0.00  0.00    +0.012 A 
BRANCH  28  33
ATOM      1  F   UNL     1       5.614 -13.674  -0.642  0.00  0.00    -0.166 F 
ATOM      2  F   UNL     1       4.944 -15.015   0.925  0.00  0.00    -0.166 F 
ATOM      3  F   UNL     1       5.239 -15.767  -1.095  0.00  0.00    -0.166 F 
ATOM     33  C   UNL     1       4.752 -14.703  -0.392  0.00  0.00    +0.417 C 
ENDBRANCH  28  33
ENDBRANCH  10  22
ENDBRANCH  16   9
TORSDOF 6
ENDMDL
MODEL 8
REMARK VINA RESULT:      -8.2     26.842     30.238
REMARK  Name = 11943013
REMARK  7 active torsions:
REMARK  status: ('A' for Active; 'I' for Inactive)
REMARK    1  A    between atoms: O_7  and  C_29
REMARK    2  A    between atoms: O_7  and  C_37
REMARK    3  A    between atoms: N_8  and  C_15
REMARK    4  A    between atoms: N_9  and  C_16
REMARK    5  A    between atoms: N_10  and  C_22
REMARK    6  A    between atoms: C_21  and  C_25
REMARK    7  A    between atoms: C_28  and  C_33
REMARK                            x       y       z     vdW  Elec       q    Type
REMARK                         _______ _______ _______ _____ _____    ______ ____
ROOT
ATOM      4  O   UNL     1      -5.620 -11.808  19.364  0.00  0.00    -0.370 OA
ATOM      5  O   UNL     1      -6.924 -11.850  16.529  0.00  0.00    -0.370 OA
ATOM     13  C   UNL     1      -5.776 -11.177  17.075  0.00  0.00    +0.171 C 
ATOM     14  C   UNL     1      -6.122 -10.778  18.497  0.00  0.00    +0.171 C 
ATOM     15  C   UNL     1      -4.627 -12.145  17.232  0.00  0.00    +0.130 C 
ATOM     16  C   UNL     1      -7.633 -10.764  18.517  0.00  0.00    +0.131 C 
ATOM     17  C   UNL     1      -4.909 -12.779  18.583  0.00  0.00    +0.185 C 
ATOM     18  C   UNL     1      -7.982 -11.835  17.499  0.00  0.00    +0.185 C 
ENDROOT
BRANCH  15   8
ATOM      8  N   UNL     1      -3.373 -11.424  17.269  0.00  0.00    -0.306 N 
ATOM     11  N   UNL     1      -3.316 -11.218  14.958  0.00  0.00    -0.214 NA
ATOM     12  N   UNL     1      -1.564 -10.307  16.338  0.00  0.00    -0.223 NA
ATOM     19  C   UNL     1      -2.723 -10.963  16.139  0.00  0.00    +0.216 A 
ATOM     21  C   UNL     1      -2.654 -10.755  13.877  0.00  0.00    +0.080 A 
ATOM     23  C   UNL     1      -0.956  -9.871  15.216  0.00  0.00    +0.116 A 
ATOM     24  C   UNL     1      -1.459 -10.067  13.946  0.00  0.00    +0.048 A 
ATOM     38  H   UNL     1      -2.960 -11.190  18.165  0.00  0.00    +0.149 HD
BRANCH  21  25
ATOM     25  C   UNL     1      -3.286 -11.025  12.608  0.00  0.00    +0.042 A 
ATOM     29  C   UNL     1      -3.058 -12.227  11.936  0.00  0.00    +0.129 A 
ATOM     30  C   UNL     1      -4.135 -10.067  12.053  0.00  0.00    +0.013 A 
ATOM     34  C   UNL     1      -3.678 -12.470  10.711  0.00  0.00    +0.046 A 
ATOM     35  C   UNL     1      -4.754 -10.310  10.827  0.00  0.00    +0.001 A 
ATOM     36  C   UNL     1      -4.526 -11.511  10.157  0.00  0.00    +0.004 A 
BRANCH  29   7
ATOM      7  O   UNL     1      -2.233 -13.181  12.456  0.00  0.00    -0.494 OA
ATOM     37  C   UNL     1      -2.579 -14.541  12.205  0.00  0.00    +0.277 C 
ENDBRANCH  29   7
ENDBRANCH  21  25
ENDBRANCH  15   8
BRANCH  16   9
ATOM      6  O   UNL     1     -10.062 -10.259  17.084  0.00  0.00    -0.252 OA
ATOM      9  N   UNL     1      -8.149  -9.477  18.120  0.00  0.00    -0.292 N 
ATOM     10  N   UNL     1      -9.594  -7.961  17.175  0.00  0.00    -0.269 N 
ATOM     20  C   UNL     1      -9.350  -9.315  17.419  0.00  0.00    +0.304 C 
ATOM     39  H   UNL     1      -7.652  -8.644  18.421  0.00  0.00    +0.151 HD
ATOM     40  H   UNL     1      -8.899  -7.303  17.520  0.00  0.00    +0.156 HD
BRANCH  10  22
ATOM     22  C   UNL     1     -10.694  -7.385  16.499  0.00  0.00    +0.035 A 
ATOM     26  C   UNL     1     -11.986  -7.850  16.743  0.00  0.00    +0.035 A 
ATOM     27  C   UNL     1     -10.486  -6.350  15.586  0.00  0.00    +0.023 A 
ATOM     28  C   UNL     1     -13.070  -7.280  16.075  0.00  0.00    +0.057 A 
ATOM     31  C   UNL     1     -11.571  -5.780  14.919  0.00  0.00    +0.002 A 
ATOM     32  C   UNL     1     -12.863  -6.246  15.163  0.00  0.00    +0.012 A 
BRANCH  28  33
ATOM      1  F   UNL     1     -14.950  -8.562  15.337  0.00  0.00    -0.166 F 
ATOM      2  F   UNL     1     -14.555  -8.534  17.469  0.00  0.00    -0.166 F 
ATOM      3  F   UNL     1     -15.353  -6.764  16.490  0.00  0.00    -0.166 F 
ATOM     33  C   UNL     1     -14.451  -7.777  16.337  0.00  0.00    +0.417 C 
ENDBRANCH  28  33
ENDBRANCH  10  22
ENDBRANCH  16   9
TORSDOF 6
ENDMDL
MODEL 9
REMARK VINA RESULT:      -8.2     13.195     17.169
REMARK  Name = 11943013
REMARK  7 active torsions:
REMARK  status: ('A' for Active; 'I' for Inactive)
REMARK    1  A    between atoms: O_7  and  C_29
REMARK    2  A    between atoms: O_7  and  C_37
REMARK    3  A    between atoms: N_8  and  C_15
REMARK    4  A    between atoms: N_9  and  C_16
REMARK    5  A    between atoms: N_10  and  C_22
REMARK    6  A    between atoms: C_21  and  C_25
REMARK    7  A    between atoms: C_28  and  C_33
REMARK                            x       y       z     vdW  Elec       q    Type
REMARK                         _______ _______ _______ _____ _____    ______ ____
ROOT
ATOM      4  O   UNL     1       8.653   7.349   6.433  0.00  0.00    -0.370 OA
ATOM      5  O   UNL     1      10.841   5.671   7.896  0.00  0.00    -0.370 OA
ATOM     13  C   UNL     1      10.898   6.773   6.973  0.00  0.00    +0.171 C 
ATOM     14  C   UNL     1       9.776   6.579   5.971  0.00  0.00    +0.171 C 
ATOM     15  C   UNL     1      10.548   8.063   7.675  0.00  0.00    +0.130 C 
ATOM     16  C   UNL     1       9.467   5.102   6.046  0.00  0.00    +0.131 C 
ATOM     17  C   UNL     1       9.031   8.076   7.611  0.00  0.00    +0.185 C 
ATOM     18  C   UNL     1       9.797   4.773   7.491  0.00  0.00    +0.185 C 
ENDROOT
BRANCH  15   8
ATOM      8  N   UNL     1      11.090   9.188   6.945  0.00  0.00    -0.306 N 
ATOM     11  N   UNL     1      10.732  10.637   8.723  0.00  0.00    -0.214 NA
ATOM     12  N   UNL     1      11.713  11.406   6.661  0.00  0.00    -0.223 NA
ATOM     19  C   UNL     1      11.183  10.465   7.466  0.00  0.00    +0.216 A 
ATOM     21  C   UNL     1      10.837  11.894   9.199  0.00  0.00    +0.080 A 
ATOM     23  C   UNL     1      11.788  12.641   7.200  0.00  0.00    +0.116 A 
ATOM     24  C   UNL     1      11.363  12.947   8.477  0.00  0.00    +0.048 A 
ATOM     38  H   UNL     1      11.475   9.040   6.019  0.00  0.00    +0.149 HD
BRANCH  21  25
ATOM     25  C   UNL     1      10.357  12.083  10.547  0.00  0.00    +0.042 A 
ATOM     29  C   UNL     1      11.238  12.081  11.628  0.00  0.00    +0.129 A 
ATOM     30  C   UNL     1       8.991  12.267  10.762  0.00  0.00    +0.013 A 
ATOM     34  C   UNL     1      10.755  12.265  12.923  0.00  0.00    +0.046 A 
ATOM     35  C   UNL     1       8.507  12.450  12.058  0.00  0.00    +0.001 A 
ATOM     36  C   UNL     1       9.389  12.449  13.137  0.00  0.00    +0.004 A 
BRANCH  29   7
ATOM      7  O   UNL     1      12.579  11.903  11.447  0.00  0.00    -0.494 OA
ATOM     37  C   UNL     1      13.449  12.802  12.130  0.00  0.00    +0.277 C 
ENDBRANCH  29   7
ENDBRANCH  21  25
ENDBRANCH  15   8
BRANCH  16   9
ATOM      6  O   UNL     1      10.049   5.753   3.318  0.00  0.00    -0.252 OA
ATOM      9  N   UNL     1      10.295   4.348   5.136  0.00  0.00    -0.292 N 
ATOM     10  N   UNL     1      11.367   3.817   3.176  0.00  0.00    -0.269 N 
ATOM     20  C   UNL     1      10.530   4.737   3.812  0.00  0.00    +0.304 C 
ATOM     39  H   UNL     1      10.784   3.532   5.492  0.00  0.00    +0.151 HD
ATOM     40  H   UNL     1      11.679   3.023   3.730  0.00  0.00    +0.156 HD
BRANCH  10  22
ATOM     22  C   UNL     1      11.839   3.849   1.842  0.00  0.00    +0.035 A 
ATOM     26  C   UNL     1      10.980   4.220   0.807  0.00  0.00    +0.035 A 
ATOM     27  C   UNL     1      13.163   3.509   1.563  0.00  0.00    +0.023 A 
ATOM     28  C   UNL     1      11.447   4.250  -0.507  0.00  0.00    +0.057 A 
ATOM     31  C   UNL     1      13.628   3.541   0.248  0.00  0.00    +0.002 A 
ATOM     32  C   UNL     1      12.770   3.910  -0.787  0.00  0.00    +0.012 A 
BRANCH  28  33
ATOM      1  F   UNL     1      10.196   3.616  -2.446  0.00  0.00    -0.166 F 
ATOM      2  F   UNL     1       9.337   5.154  -1.182  0.00  0.00    -0.166 F 
ATOM      3  F   UNL     1      11.065   5.608  -2.421  0.00  0.00    -0.166 F 
ATOM     33  C   UNL     1      10.530   4.647  -1.614  0.00  0.00    +0.417 C 
ENDBRANCH  28  33
ENDBRANCH  10  22
ENDBRANCH  16   9
TORSDOF 6
ENDMDL
MODEL 10
REMARK VINA RESULT:      -8.2      6.175      8.116
REMARK  Name = 11943013
REMARK  7 active torsions:
REMARK  status: ('A' for Active; 'I' for Inactive)
REMARK    1  A    between atoms: O_7  and  C_29
REMARK    2  A    between atoms: O_7  and  C_37
REMARK    3  A    between atoms: N_8  and  C_15
REMARK    4  A    between atoms: N_9  and  C_16
REMARK    5  A    between atoms: N_10  and  C_22
REMARK    6  A    between atoms: C_21  and  C_25
REMARK    7  A    between atoms: C_28  and  C_33
REMARK                            x       y       z     vdW  Elec       q    Type
REMARK                         _______ _______ _______ _____ _____    ______ ____
ROOT
ATOM      4  O   UNL     1      19.593   8.403  22.868  0.00  0.00    -0.370 OA
ATOM      5  O   UNL     1      19.706   6.938  20.114  0.00  0.00    -0.370 OA
ATOM     13  C   UNL     1      18.786   6.889  21.219  0.00  0.00    +0.171 C 
ATOM     14  C   UNL     1      19.603   7.016  22.490  0.00  0.00    +0.171 C 
ATOM     15  C   UNL     1      17.904   8.115  21.222  0.00  0.00    +0.130 C 
ATOM     16  C   UNL     1      20.994   6.594  22.077  0.00  0.00    +0.131 C 
ATOM     17  C   UNL     1      18.752   9.133  21.962  0.00  0.00    +0.185 C 
ATOM     18  C   UNL     1      21.046   7.023  20.622  0.00  0.00    +0.185 C 
ENDROOT
BRANCH  15   8
ATOM      8  N   UNL     1      16.687   7.847  21.956  0.00  0.00    -0.306 N 
ATOM     11  N   UNL     1      15.355   8.411  20.140  0.00  0.00    -0.214 NA
ATOM     12  N   UNL     1      14.386   7.703  22.230  0.00  0.00    -0.223 NA
ATOM     19  C   UNL     1      15.422   7.993  21.419  0.00  0.00    +0.216 A 
ATOM     21  C   UNL     1      14.106   8.542  19.648  0.00  0.00    +0.080 A 
ATOM     23  C   UNL     1      13.167   7.857  21.674  0.00  0.00    +0.116 A 
ATOM     24  C   UNL     1      12.963   8.277  20.375  0.00  0.00    +0.048 A 
ATOM     38  H   UNL     1      16.746   7.483  22.901  0.00  0.00    +0.149 HD
BRANCH  21  25
ATOM     25  C   UNL     1      14.030   8.989  18.278  0.00  0.00    +0.042 A 
ATOM     29  C   UNL     1      13.991  10.349  17.969  0.00  0.00    +0.129 A 
ATOM     30  C   UNL     1      13.996   8.042  17.255  0.00  0.00    +0.013 A 
ATOM     34  C   UNL     1      13.918  10.761  16.639  0.00  0.00    +0.046 A 
ATOM     35  C   UNL     1      13.922   8.454  15.924  0.00  0.00    +0.001 A 
ATOM     36  C   UNL     1      13.883   9.813  15.617  0.00  0.00    +0.004 A 
BRANCH  29   7
ATOM      7  O   UNL     1      14.023  11.298  18.950  0.00  0.00    -0.494 OA
ATOM     37  C   UNL     1      13.544  12.596  18.609  0.00  0.00    +0.277 C 
ENDBRANCH  29   7
ENDBRANCH  21  25
ENDBRANCH  15   8
BRANCH  16   9
ATOM      6  O   UNL     1      23.478   5.185  22.312  0.00  0.00    -0.252 OA
ATOM      9  N   UNL     1      21.169   5.168  22.209  0.00  0.00    -0.292 N 
ATOM     10  N   UNL     1      22.280   3.170  22.435  0.00  0.00    -0.269 N 
ATOM     20  C   UNL     1      22.423   4.555  22.320  0.00  0.00    +0.304 C 
ATOM     39  H   UNL     1      20.340   4.586  22.292  0.00  0.00    +0.151 HD
ATOM     40  H   UNL     1      21.330   2.806  22.422  0.00  0.00    +0.156 HD
BRANCH  10  22
ATOM     22  C   UNL     1      23.300   2.200  22.565  0.00  0.00    +0.035 A 
ATOM     26  C   UNL     1      23.529   1.589  23.798  0.00  0.00    +0.035 A 
ATOM     27  C   UNL     1      24.079   1.854  21.460  0.00  0.00    +0.023 A 
ATOM     28  C   UNL     1      24.536   0.632  23.925  0.00  0.00    +0.057 A 
ATOM     31  C   UNL     1      25.085   0.897  21.588  0.00  0.00    +0.002 A 
ATOM     32  C   UNL     1      25.315   0.286  22.821  0.00  0.00    +0.012 A 
BRANCH  28  33
ATOM      1  F   UNL     1      26.080  -0.394  25.437  0.00  0.00    -0.166 F 
ATOM      2  F   UNL     1      24.475   0.771  26.313  0.00  0.00    -0.166 F 
ATOM      3  F   UNL     1      24.046  -1.160  25.409  0.00  0.00    -0.166 F 
ATOM     33  C   UNL     1      24.781  -0.022  25.243  0.00  0.00    +0.417 C 
ENDBRANCH  28  33
ENDBRANCH  10  22
ENDBRANCH  16   9
TORSDOF 6
ENDMDL
