MODEL 1
REMARK VINA RESULT:      -7.2      0.000      0.000
REMARK  Name = 75536740
REMARK  9 active torsions:
REMARK  status: ('A' for Active; 'I' for Inactive)
REMARK    1  A    between atoms: O_3  and  C_9
REMARK    2  A    between atoms: N_5  and  C_8
REMARK    3  A    between atoms: N_5  and  C_13
REMARK    4  A    between atoms: N_6  and  C_12
REMARK    5  A    between atoms: N_7  and  C_18
REMARK    6  A    between atoms: C_10  and  C_12
REMARK    7  A    between atoms: C_13  and  C_14
REMARK    8  A    between atoms: C_18  and  C_21
REMARK    9  A    between atoms: C_18  and  C_22
REMARK                            x       y       z     vdW  Elec       q    Type
REMARK                         _______ _______ _______ _____ _____    ______ ____
ROOT
ATOM      2  O   UNL     1      10.665   8.635  20.313  0.00  0.00    -0.371 OA
ATOM      8  C   UNL     1      12.611   7.293  20.177  0.00  0.00    +0.111 C 
ATOM      9  C   UNL     1      11.711   6.705  21.250  0.00  0.00    +0.164 C 
ATOM     10  C   UNL     1      10.598   7.734  21.434  0.00  0.00    +0.165 C 
ATOM     11  C   UNL     1      11.631   8.138  19.379  0.00  0.00    +0.181 C 
ENDROOT
BRANCH   9   3
ATOM      3  O   UNL     1      11.150   5.496  20.734  0.00  0.00    -0.388 OA
ATOM     25  H   UNL     1      11.035   5.615  19.776  0.00  0.00    +0.210 HD
ENDBRANCH   9   3
BRANCH   8   5
ATOM      5  N   UNL     1      13.664   8.126  20.753  0.00  0.00    -0.305 NA
ATOM     24  H   UNL     1      13.251   8.976  21.136  0.00  0.00    +0.123 HD
BRANCH   5  13
ATOM     13  C   UNL     1      14.646   8.502  19.742  0.00  0.00    +0.119 C 
BRANCH  13  14
ATOM      1  F   UNL     1      16.757   9.013  21.561  0.00  0.00    -0.205 F 
ATOM     14  C   UNL     1      15.886   7.652  19.822  0.00  0.00    +0.002 A 
ATOM     16  C   UNL     1      16.888   7.960  20.743  0.00  0.00    +0.128 A 
ATOM     17  C   UNL     1      16.032   6.555  18.973  0.00  0.00    +0.008 A 
ATOM     19  C   UNL     1      18.036   7.171  20.814  0.00  0.00    +0.038 A 
ATOM     20  C   UNL     1      17.180   5.765  19.045  0.00  0.00    +0.000 A 
ATOM     23  C   UNL     1      18.181   6.073  19.966  0.00  0.00    +0.003 A 
ENDBRANCH  13  14
ENDBRANCH   5  13
ENDBRANCH   8   5
BRANCH  10  12
ATOM     12  C   UNL     1      10.729   8.550  22.712  0.00  0.00    +0.140 C 
BRANCH  12   6
ATOM      4  O   UNL     1      11.172  10.728  24.551  0.00  0.00    -0.253 OA
ATOM      6  N   UNL     1      10.524   9.947  22.461  0.00  0.00    -0.297 N 
ATOM      7  N   UNL     1      10.484  12.211  22.905  0.00  0.00    -0.297 N 
ATOM     15  C   UNL     1      10.763  10.944  23.411  0.00  0.00    +0.300 C 
ATOM     26  H   UNL     1      10.179  10.225  21.548  0.00  0.00    +0.150 HD
ATOM     27  H   UNL     1      10.082  12.282  21.974  0.00  0.00    +0.150 HD
BRANCH   7  18
ATOM     18  C   UNL     1      10.646  13.418  23.682  0.00  0.00    +0.068 C 
ATOM     21  C   UNL     1      12.014  14.038  23.427  0.00  0.00    +0.027 C 
ATOM     22  C   UNL     1       9.527  14.402  23.371  0.00  0.00    +0.027 C 
ENDBRANCH   7  18
ENDBRANCH  12   6
ENDBRANCH  10  12
TORSDOF 7
ENDMDL
MODEL 2
REMARK VINA RESULT:      -6.4      1.852      2.109
REMARK  Name = 75536740
REMARK  9 active torsions:
REMARK  status: ('A' for Active; 'I' for Inactive)
REMARK    1  A    between atoms: O_3  and  C_9
REMARK    2  A    between atoms: N_5  and  C_8
REMARK    3  A    between atoms: N_5  and  C_13
REMARK    4  A    between atoms: N_6  and  C_12
REMARK    5  A    between atoms: N_7  and  C_18
REMARK    6  A    between atoms: C_10  and  C_12
REMARK    7  A    between atoms: C_13  and  C_14
REMARK    8  A    between atoms: C_18  and  C_21
REMARK    9  A    between atoms: C_18  and  C_22
REMARK                            x       y       z     vdW  Elec       q    Type
REMARK                         _______ _______ _______ _____ _____    ______ ____
ROOT
ATOM      2  O   UNL     1      10.959   8.080  19.852  0.00  0.00    -0.371 OA
ATOM      8  C   UNL     1      13.006   7.122  20.556  0.00  0.00    +0.111 C 
ATOM      9  C   UNL     1      11.953   6.793  21.599  0.00  0.00    +0.164 C 
ATOM     10  C   UNL     1      10.733   7.619  21.197  0.00  0.00    +0.165 C 
ATOM     11  C   UNL     1      12.150   7.464  19.347  0.00  0.00    +0.181 C 
ENDROOT
BRANCH   9   3
ATOM      3  O   UNL     1      11.639   5.404  21.478  0.00  0.00    -0.388 OA
ATOM     25  H   UNL     1      11.726   5.166  20.539  0.00  0.00    +0.210 HD
ENDBRANCH   9   3
BRANCH   8   5
ATOM      5  N   UNL     1      13.822   8.267  20.954  0.00  0.00    -0.305 NA
ATOM     24  H   UNL     1      14.391   8.568  20.163  0.00  0.00    +0.123 HD
BRANCH   5  13
ATOM     13  C   UNL     1      14.708   7.921  22.059  0.00  0.00    +0.119 C 
BRANCH  13  14
ATOM      1  F   UNL     1      16.605  10.024  22.085  0.00  0.00    -0.205 F 
ATOM     14  C   UNL     1      16.132   7.749  21.602  0.00  0.00    +0.002 A 
ATOM     16  C   UNL     1      17.015   8.829  21.641  0.00  0.00    +0.128 A 
ATOM     17  C   UNL     1      16.568   6.509  21.137  0.00  0.00    +0.008 A 
ATOM     19  C   UNL     1      18.334   8.667  21.217  0.00  0.00    +0.038 A 
ATOM     20  C   UNL     1      17.887   6.346  20.713  0.00  0.00    +0.000 A 
ATOM     23  C   UNL     1      18.770   7.425  20.753  0.00  0.00    +0.003 A 
ENDBRANCH  13  14
ENDBRANCH   5  13
ENDBRANCH   8   5
BRANCH  10  12
ATOM     12  C   UNL     1      10.499   8.831  22.085  0.00  0.00    +0.140 C 
BRANCH  12   6
ATOM      4  O   UNL     1      11.111  11.498  23.001  0.00  0.00    -0.253 OA
ATOM      6  N   UNL     1      11.721   9.279  22.688  0.00  0.00    -0.297 N 
ATOM      7  N   UNL     1      13.208  10.754  23.658  0.00  0.00    -0.297 N 
ATOM     15  C   UNL     1      11.939  10.595  23.107  0.00  0.00    +0.300 C 
ATOM     26  H   UNL     1      12.470   8.605  22.811  0.00  0.00    +0.150 HD
ATOM     27  H   UNL     1      13.847   9.964  23.635  0.00  0.00    +0.150 HD
BRANCH   7  18
ATOM     18  C   UNL     1      13.687  12.018  24.167  0.00  0.00    +0.068 C 
ATOM     21  C   UNL     1      14.171  11.866  25.604  0.00  0.00    +0.027 C 
ATOM     22  C   UNL     1      14.787  12.567  23.270  0.00  0.00    +0.027 C 
ENDBRANCH   7  18
ENDBRANCH  12   6
ENDBRANCH  10  12
TORSDOF 7
ENDMDL
MODEL 3
REMARK VINA RESULT:      -6.4      1.942      2.991
REMARK  Name = 75536740
REMARK  9 active torsions:
REMARK  status: ('A' for Active; 'I' for Inactive)
REMARK    1  A    between atoms: O_3  and  C_9
REMARK    2  A    between atoms: N_5  and  C_8
REMARK    3  A    between atoms: N_5  and  C_13
REMARK    4  A    between atoms: N_6  and  C_12
REMARK    5  A    between atoms: N_7  and  C_18
REMARK    6  A    between atoms: C_10  and  C_12
REMARK    7  A    between atoms: C_13  and  C_14
REMARK    8  A    between atoms: C_18  and  C_21
REMARK    9  A    between atoms: C_18  and  C_22
REMARK                            x       y       z     vdW  Elec       q    Type
REMARK                         _______ _______ _______ _____ _____    ______ ____
ROOT
ATOM      2  O   UNL     1      10.609   8.522  20.374  0.00  0.00    -0.371 OA
ATOM      8  C   UNL     1      12.514   7.140  20.112  0.00  0.00    +0.111 C 
ATOM      9  C   UNL     1      11.726   6.629  21.305  0.00  0.00    +0.164 C 
ATOM     10  C   UNL     1      10.650   7.687  21.546  0.00  0.00    +0.165 C 
ATOM     11  C   UNL     1      11.465   7.956  19.373  0.00  0.00    +0.181 C 
ENDROOT
BRANCH   9   3
ATOM      3  O   UNL     1      11.099   5.403  20.922  0.00  0.00    -0.388 OA
ATOM     25  H   UNL     1      10.885   5.470  19.975  0.00  0.00    +0.210 HD
ENDBRANCH   9   3
BRANCH   8   5
ATOM      5  N   UNL     1      13.632   7.986  20.525  0.00  0.00    -0.305 NA
ATOM     24  H   UNL     1      13.310   8.949  20.617  0.00  0.00    +0.123 HD
BRANCH   5  13
ATOM     13  C   UNL     1      14.709   7.947  19.543  0.00  0.00    +0.119 C 
BRANCH  13  14
ATOM      1  F   UNL     1      13.981   7.630  16.824  0.00  0.00    -0.205 F 
ATOM     14  C   UNL     1      14.626   9.097  18.575  0.00  0.00    +0.002 A 
ATOM     16  C   UNL     1      14.260   8.870  17.248  0.00  0.00    +0.128 A 
ATOM     17  C   UNL     1      14.916  10.392  19.006  0.00  0.00    +0.008 A 
ATOM     19  C   UNL     1      14.184   9.937  16.353  0.00  0.00    +0.038 A 
ATOM     20  C   UNL     1      14.839  11.459  18.112  0.00  0.00    +0.000 A 
ATOM     23  C   UNL     1      14.473  11.232  16.785  0.00  0.00    +0.003 A 
ENDBRANCH  13  14
ENDBRANCH   5  13
ENDBRANCH   8   5
BRANCH  10  12
ATOM     12  C   UNL     1      10.924   8.570  22.753  0.00  0.00    +0.140 C 
BRANCH  12   6
ATOM      4  O   UNL     1      11.185  10.809  24.554  0.00  0.00    -0.253 OA
ATOM      6  N   UNL     1      10.663   9.950  22.460  0.00  0.00    -0.297 N 
ATOM      7  N   UNL     1      10.496  12.219  22.844  0.00  0.00    -0.297 N 
ATOM     15  C   UNL     1      10.815  10.979  23.393  0.00  0.00    +0.300 C 
ATOM     26  H   UNL     1      10.344  10.190  21.526  0.00  0.00    +0.150 HD
ATOM     27  H   UNL     1      10.131  12.248  21.897  0.00  0.00    +0.150 HD
BRANCH   7  18
ATOM     18  C   UNL     1      10.567  13.450  23.597  0.00  0.00    +0.068 C 
ATOM     21  C   UNL     1      11.997  13.973  23.630  0.00  0.00    +0.027 C 
ATOM     22  C   UNL     1       9.614  14.483  23.013  0.00  0.00    +0.027 C 
ENDBRANCH   7  18
ENDBRANCH  12   6
ENDBRANCH  10  12
TORSDOF 7
ENDMDL
MODEL 4
REMARK VINA RESULT:      -6.2      2.685      6.437
REMARK  Name = 75536740
REMARK  9 active torsions:
REMARK  status: ('A' for Active; 'I' for Inactive)
REMARK    1  A    between atoms: O_3  and  C_9
REMARK    2  A    between atoms: N_5  and  C_8
REMARK    3  A    between atoms: N_5  and  C_13
REMARK    4  A    between atoms: N_6  and  C_12
REMARK    5  A    between atoms: N_7  and  C_18
REMARK    6  A    between atoms: C_10  and  C_12
REMARK    7  A    between atoms: C_13  and  C_14
REMARK    8  A    between atoms: C_18  and  C_21
REMARK    9  A    between atoms: C_18  and  C_22
REMARK                            x       y       z     vdW  Elec       q    Type
REMARK                         _______ _______ _______ _____ _____    ______ ____
ROOT
ATOM      2  O   UNL     1      11.479   6.276  21.473  0.00  0.00    -0.371 OA
ATOM      8  C   UNL     1      10.769   8.521  21.716  0.00  0.00    +0.111 C 
ATOM      9  C   UNL     1      11.533   8.411  20.408  0.00  0.00    +0.164 C 
ATOM     10  C   UNL     1      12.142   7.011  20.427  0.00  0.00    +0.165 C 
ATOM     11  C   UNL     1      10.402   7.070  21.984  0.00  0.00    +0.181 C 
ENDROOT
BRANCH   9   3
ATOM      3  O   UNL     1      10.586   8.495  19.341  0.00  0.00    -0.388 OA
ATOM     25  H   UNL     1      10.926   7.954  18.608  0.00  0.00    +0.210 HD
ENDBRANCH   9   3
BRANCH   8   5
ATOM      5  N   UNL     1      11.608   9.050  22.789  0.00  0.00    -0.305 NA
ATOM     24  H   UNL     1      11.051   9.143  23.638  0.00  0.00    +0.123 HD
BRANCH   5  13
ATOM     13  C   UNL     1      12.143  10.360  22.439  0.00  0.00    +0.119 C 
BRANCH  13  14
ATOM      1  F   UNL     1      11.100  12.721  21.272  0.00  0.00    -0.205 F 
ATOM     14  C   UNL     1      11.501  11.460  23.242  0.00  0.00    +0.002 A 
ATOM     16  C   UNL     1      11.007  12.598  22.603  0.00  0.00    +0.128 A 
ATOM     17  C   UNL     1      11.402  11.341  24.628  0.00  0.00    +0.008 A 
ATOM     19  C   UNL     1      10.414  13.615  23.349  0.00  0.00    +0.038 A 
ATOM     20  C   UNL     1      10.808  12.359  25.375  0.00  0.00    +0.000 A 
ATOM     23  C   UNL     1      10.314  13.495  24.736  0.00  0.00    +0.003 A 
ENDBRANCH  13  14
ENDBRANCH   5  13
ENDBRANCH   8   5
BRANCH  10  12
ATOM     12  C   UNL     1      13.637   7.001  20.710  0.00  0.00    +0.140 C 
BRANCH  12   6
ATOM      4  O   UNL     1      15.357   8.783  22.190  0.00  0.00    -0.253 OA
ATOM      6  N   UNL     1      14.267   8.194  20.225  0.00  0.00    -0.297 N 
ATOM      7  N   UNL     1      15.571  10.097  20.290  0.00  0.00    -0.297 N 
ATOM     15  C   UNL     1      15.090   9.006  21.010  0.00  0.00    +0.300 C 
ATOM     26  H   UNL     1      14.101   8.466  19.261  0.00  0.00    +0.150 HD
ATOM     27  H   UNL     1      15.237  10.234  19.340  0.00  0.00    +0.150 HD
BRANCH   7  18
ATOM     18  C   UNL     1      16.443  11.093  20.867  0.00  0.00    +0.068 C 
ATOM     21  C   UNL     1      17.903  10.717  20.647  0.00  0.00    +0.027 C 
ATOM     22  C   UNL     1      16.133  12.467  20.288  0.00  0.00    +0.027 C 
ENDBRANCH   7  18
ENDBRANCH  12   6
ENDBRANCH  10  12
TORSDOF 7
ENDMDL
MODEL 5
REMARK VINA RESULT:      -6.1     26.442     27.819
REMARK  Name = 75536740
REMARK  9 active torsions:
REMARK  status: ('A' for Active; 'I' for Inactive)
REMARK    1  A    between atoms: O_3  and  C_9
REMARK    2  A    between atoms: N_5  and  C_8
REMARK    3  A    between atoms: N_5  and  C_13
REMARK    4  A    between atoms: N_6  and  C_12
REMARK    5  A    between atoms: N_7  and  C_18
REMARK    6  A    between atoms: C_10  and  C_12
REMARK    7  A    between atoms: C_13  and  C_14
REMARK    8  A    between atoms: C_18  and  C_21
REMARK    9  A    between atoms: C_18  and  C_22
REMARK                            x       y       z     vdW  Elec       q    Type
REMARK                         _______ _______ _______ _____ _____    ______ ____
ROOT
ATOM      2  O   UNL     1      -7.023 -12.542  18.243  0.00  0.00    -0.371 OA
ATOM      8  C   UNL     1      -5.227 -12.822  16.726  0.00  0.00    +0.111 C 
ATOM      9  C   UNL     1      -4.640 -12.546  18.099  0.00  0.00    +0.164 C 
ATOM     10  C   UNL     1      -5.838 -12.160  18.966  0.00  0.00    +0.165 C 
ATOM     11  C   UNL     1      -6.635 -13.276  17.075  0.00  0.00    +0.181 C 
ENDROOT
BRANCH   9   3
ATOM      3  O   UNL     1      -4.082 -13.767  18.589  0.00  0.00    -0.388 OA
ATOM     25  H   UNL     1      -4.482 -14.494  18.081  0.00  0.00    +0.210 HD
ENDBRANCH   9   3
BRANCH   8   5
ATOM      5  N   UNL     1      -5.261 -11.617  15.901  0.00  0.00    -0.305 NA
ATOM     24  H   UNL     1      -5.570 -11.860  14.959  0.00  0.00    +0.123 HD
BRANCH   5  13
ATOM     13  C   UNL     1      -3.941 -11.004  15.812  0.00  0.00    +0.119 C 
BRANCH  13  14
ATOM      1  F   UNL     1      -1.256 -10.592  15.008  0.00  0.00    -0.205 F 
ATOM     14  C   UNL     1      -3.541 -10.739  14.385  0.00  0.00    +0.002 A 
ATOM     16  C   UNL     1      -2.199 -10.544  14.058  0.00  0.00    +0.128 A 
ATOM     17  C   UNL     1      -4.516 -10.685  13.388  0.00  0.00    +0.008 A 
ATOM     19  C   UNL     1      -1.832 -10.298  12.735  0.00  0.00    +0.038 A 
ATOM     20  C   UNL     1      -4.150 -10.440  12.065  0.00  0.00    +0.000 A 
ATOM     23  C   UNL     1      -2.807 -10.246  11.739  0.00  0.00    +0.003 A 
ENDBRANCH  13  14
ENDBRANCH   5  13
ENDBRANCH   8   5
BRANCH  10  12
ATOM     12  C   UNL     1      -5.919 -10.671  19.263  0.00  0.00    +0.140 C 
BRANCH  12   6
ATOM      4  O   UNL     1      -6.735  -9.306  16.856  0.00  0.00    -0.253 OA
ATOM      6  N   UNL     1      -7.221 -10.149  18.965  0.00  0.00    -0.297 N 
ATOM      7  N   UNL     1      -8.869  -9.095  17.742  0.00  0.00    -0.297 N 
ATOM     15  C   UNL     1      -7.537  -9.498  17.770  0.00  0.00    +0.300 C 
ATOM     26  H   UNL     1      -7.951 -10.253  19.663  0.00  0.00    +0.150 HD
ATOM     27  H   UNL     1      -9.434  -9.236  18.574  0.00  0.00    +0.150 HD
BRANCH   7  18
ATOM     18  C   UNL     1      -9.454  -8.398  16.619  0.00  0.00    +0.068 C 
ATOM     21  C   UNL     1      -9.929  -9.389  15.564  0.00  0.00    +0.027 C 
ATOM     22  C   UNL     1     -10.591  -7.501  17.087  0.00  0.00    +0.027 C 
ENDBRANCH   7  18
ENDBRANCH  12   6
ENDBRANCH  10  12
TORSDOF 7
ENDMDL
MODEL 6
REMARK VINA RESULT:      -6.1     25.945     27.899
REMARK  Name = 75536740
REMARK  9 active torsions:
REMARK  status: ('A' for Active; 'I' for Inactive)
REMARK    1  A    between atoms: O_3  and  C_9
REMARK    2  A    between atoms: N_5  and  C_8
REMARK    3  A    between atoms: N_5  and  C_13
REMARK    4  A    between atoms: N_6  and  C_12
REMARK    5  A    between atoms: N_7  and  C_18
REMARK    6  A    between atoms: C_10  and  C_12
REMARK    7  A    between atoms: C_13  and  C_14
REMARK    8  A    between atoms: C_18  and  C_21
REMARK    9  A    between atoms: C_18  and  C_22
REMARK                            x       y       z     vdW  Elec       q    Type
REMARK                         _______ _______ _______ _____ _____    ______ ____
ROOT
ATOM      2  O   UNL     1      -3.773 -12.301  15.203  0.00  0.00    -0.371 OA
ATOM      8  C   UNL     1      -1.837 -11.102  14.556  0.00  0.00    +0.111 C 
ATOM      9  C   UNL     1      -2.289 -10.567  15.903  0.00  0.00    +0.164 C 
ATOM     10  C   UNL     1      -3.648 -11.222  16.148  0.00  0.00    +0.165 C 
ATOM     11  C   UNL     1      -2.528 -12.455  14.510  0.00  0.00    +0.181 C 
ENDROOT
BRANCH   9   3
ATOM      3  O   UNL     1      -1.363 -11.029  16.889  0.00  0.00    -0.388 OA
ATOM     25  H   UNL     1      -1.858 -11.586  17.515  0.00  0.00    +0.210 HD
ENDBRANCH   9   3
BRANCH   8   5
ATOM      5  N   UNL     1      -2.290 -10.251  13.458  0.00  0.00    -0.305 NA
ATOM     24  H   UNL     1      -3.308 -10.291  13.398  0.00  0.00    +0.123 HD
BRANCH   5  13
ATOM     13  C   UNL     1      -1.732 -10.695  12.186  0.00  0.00    +0.119 C 
BRANCH  13  14
ATOM      1  F   UNL     1      -3.178 -12.859  11.067  0.00  0.00    -0.205 F 
ATOM     14  C   UNL     1      -2.714 -10.532  11.057  0.00  0.00    +0.002 A 
ATOM     16  C   UNL     1      -3.393 -11.642  10.552  0.00  0.00    +0.128 A 
ATOM     17  C   UNL     1      -2.944  -9.268  10.513  0.00  0.00    +0.008 A 
ATOM     19  C   UNL     1      -4.302 -11.488   9.506  0.00  0.00    +0.038 A 
ATOM     20  C   UNL     1      -3.854  -9.113   9.466  0.00  0.00    +0.000 A 
ATOM     23  C   UNL     1      -4.532 -10.223   8.963  0.00  0.00    +0.003 A 
ENDBRANCH  13  14
ENDBRANCH   5  13
ENDBRANCH   8   5
BRANCH  10  12
ATOM     12  C   UNL     1      -4.823 -10.276  15.952  0.00  0.00    +0.140 C 
BRANCH  12   6
ATOM      4  O   UNL     1      -7.328 -10.616  14.560  0.00  0.00    -0.253 OA
ATOM      6  N   UNL     1      -5.077 -10.041  14.560  0.00  0.00    -0.297 N 
ATOM      7  N   UNL     1      -6.291  -9.928  12.602  0.00  0.00    -0.297 N 
ATOM     15  C   UNL     1      -6.325 -10.231  13.960  0.00  0.00    +0.300 C 
ATOM     26  H   UNL     1      -4.306  -9.728  13.978  0.00  0.00    +0.150 HD
ATOM     27  H   UNL     1      -5.399  -9.686  12.182  0.00  0.00    +0.150 HD
BRANCH   7  18
ATOM     18  C   UNL     1      -7.450 -10.040  11.746  0.00  0.00    +0.068 C 
ATOM     21  C   UNL     1      -7.413  -8.978  10.655  0.00  0.00    +0.027 C 
ATOM     22  C   UNL     1      -7.536 -11.439  11.152  0.00  0.00    +0.027 C 
ENDBRANCH   7  18
ENDBRANCH  12   6
ENDBRANCH  10  12
TORSDOF 7
ENDMDL
MODEL 7
REMARK VINA RESULT:      -6.1     25.949     27.840
REMARK  Name = 75536740
REMARK  9 active torsions:
REMARK  status: ('A' for Active; 'I' for Inactive)
REMARK    1  A    between atoms: O_3  and  C_9
REMARK    2  A    between atoms: N_5  and  C_8
REMARK    3  A    between atoms: N_5  and  C_13
REMARK    4  A    between atoms: N_6  and  C_12
REMARK    5  A    between atoms: N_7  and  C_18
REMARK    6  A    between atoms: C_10  and  C_12
REMARK    7  A    between atoms: C_13  and  C_14
REMARK    8  A    between atoms: C_18  and  C_21
REMARK    9  A    between atoms: C_18  and  C_22
REMARK                            x       y       z     vdW  Elec       q    Type
REMARK                         _______ _______ _______ _____ _____    ______ ____
ROOT
ATOM      2  O   UNL     1      -3.952 -12.227  15.676  0.00  0.00    -0.371 OA
ATOM      8  C   UNL     1      -2.138 -11.189  14.563  0.00  0.00    +0.111 C 
ATOM      9  C   UNL     1      -2.256 -10.569  15.944  0.00  0.00    +0.164 C 
ATOM     10  C   UNL     1      -3.563 -11.120  16.511  0.00  0.00    +0.165 C 
ATOM     11  C   UNL     1      -2.899 -12.494  14.742  0.00  0.00    +0.181 C 
ENDROOT
BRANCH   9   3
ATOM      3  O   UNL     1      -1.165 -11.051  16.733  0.00  0.00    -0.388 OA
ATOM     25  H   UNL     1      -1.291 -10.717  17.638  0.00  0.00    +0.210 HD
ENDBRANCH   9   3
BRANCH   8   5
ATOM      5  N   UNL     1      -2.771 -10.357  13.542  0.00  0.00    -0.305 NA
ATOM     24  H   UNL     1      -3.699 -10.726  13.333  0.00  0.00    +0.123 HD
BRANCH   5  13
ATOM     13  C   UNL     1      -1.987 -10.349  12.313  0.00  0.00    +0.119 C 
BRANCH  13  14
ATOM      1  F   UNL     1      -3.023 -12.810  11.368  0.00  0.00    -0.205 F 
ATOM     14  C   UNL     1      -2.860 -10.458  11.092  0.00  0.00    +0.002 A 
ATOM     16  C   UNL     1      -3.337 -11.704  10.680  0.00  0.00    +0.128 A 
ATOM     17  C   UNL     1      -3.192  -9.312  10.369  0.00  0.00    +0.008 A 
ATOM     19  C   UNL     1      -4.145 -11.802   9.548  0.00  0.00    +0.038 A 
ATOM     20  C   UNL     1      -4.001  -9.410   9.237  0.00  0.00    +0.000 A 
ATOM     23  C   UNL     1      -4.477 -10.655   8.826  0.00  0.00    +0.003 A 
ENDBRANCH  13  14
ENDBRANCH   5  13
ENDBRANCH   8   5
BRANCH  10  12
ATOM     12  C   UNL     1      -4.697 -10.107  16.519  0.00  0.00    +0.140 C 
BRANCH  12   6
ATOM      4  O   UNL     1      -5.749 -10.374  19.193  0.00  0.00    -0.253 OA
ATOM      6  N   UNL     1      -5.938 -10.715  16.903  0.00  0.00    -0.297 N 
ATOM      7  N   UNL     1      -7.612 -11.441  18.315  0.00  0.00    -0.297 N 
ATOM     15  C   UNL     1      -6.377 -10.805  18.227  0.00  0.00    +0.300 C 
ATOM     26  H   UNL     1      -6.525 -11.109  16.174  0.00  0.00    +0.150 HD
ATOM     27  H   UNL     1      -8.019 -11.826  17.467  0.00  0.00    +0.150 HD
BRANCH   7  18
ATOM     18  C   UNL     1      -8.291 -11.664  19.571  0.00  0.00    +0.068 C 
ATOM     21  C   UNL     1      -9.633 -10.944  19.588  0.00  0.00    +0.027 C 
ATOM     22  C   UNL     1      -8.460 -13.156  19.823  0.00  0.00    +0.027 C 
ENDBRANCH   7  18
ENDBRANCH  12   6
ENDBRANCH  10  12
TORSDOF 7
ENDMDL
MODEL 8
REMARK VINA RESULT:      -6.0      2.889      5.902
REMARK  Name = 75536740
REMARK  9 active torsions:
REMARK  status: ('A' for Active; 'I' for Inactive)
REMARK    1  A    between atoms: O_3  and  C_9
REMARK    2  A    between atoms: N_5  and  C_8
REMARK    3  A    between atoms: N_5  and  C_13
REMARK    4  A    between atoms: N_6  and  C_12
REMARK    5  A    between atoms: N_7  and  C_18
REMARK    6  A    between atoms: C_10  and  C_12
REMARK    7  A    between atoms: C_13  and  C_14
REMARK    8  A    between atoms: C_18  and  C_21
REMARK    9  A    between atoms: C_18  and  C_22
REMARK                            x       y       z     vdW  Elec       q    Type
REMARK                         _______ _______ _______ _____ _____    ______ ____
ROOT
ATOM      2  O   UNL     1      12.450  12.940  23.485  0.00  0.00    -0.371 OA
ATOM      8  C   UNL     1      10.747  11.361  23.946  0.00  0.00    +0.111 C 
ATOM      9  C   UNL     1      11.386  11.757  25.265  0.00  0.00    +0.164 C 
ATOM     10  C   UNL     1      12.604  12.593  24.874  0.00  0.00    +0.165 C 
ATOM     11  C   UNL     1      11.155  12.515  23.044  0.00  0.00    +0.181 C 
ENDROOT
BRANCH   9   3
ATOM      3  O   UNL     1      10.458  12.585  25.969  0.00  0.00    -0.388 OA
ATOM     25  H   UNL     1      10.205  12.112  26.781  0.00  0.00    +0.210 HD
ENDBRANCH   9   3
BRANCH   8   5
ATOM      5  N   UNL     1      11.281  10.098  23.444  0.00  0.00    -0.305 NA
ATOM     24  H   UNL     1      12.225  10.248  23.087  0.00  0.00    +0.123 HD
BRANCH   5  13
ATOM     13  C   UNL     1      10.455   9.571  22.364  0.00  0.00    +0.119 C 
BRANCH  13  14
ATOM      1  F   UNL     1      12.016  10.324  20.123  0.00  0.00    -0.205 F 
ATOM     14  C   UNL     1      11.208   8.580  21.516  0.00  0.00    +0.002 A 
ATOM     16  C   UNL     1      11.959   9.020  20.425  0.00  0.00    +0.128 A 
ATOM     17  C   UNL     1      11.153   7.220  21.821  0.00  0.00    +0.008 A 
ATOM     19  C   UNL     1      12.654   8.101  19.640  0.00  0.00    +0.038 A 
ATOM     20  C   UNL     1      11.849   6.300  21.037  0.00  0.00    +0.000 A 
ATOM     23  C   UNL     1      12.600   6.740  19.947  0.00  0.00    +0.003 A 
ENDBRANCH  13  14
ENDBRANCH   5  13
ENDBRANCH   8   5
BRANCH  10  12
ATOM     12  C   UNL     1      13.925  11.858  25.040  0.00  0.00    +0.140 C 
BRANCH  12   6
ATOM      4  O   UNL     1      16.055  11.568  23.115  0.00  0.00    -0.253 OA
ATOM      6  N   UNL     1      14.070  10.819  24.062  0.00  0.00    -0.297 N 
ATOM      7  N   UNL     1      15.031   9.642  22.325  0.00  0.00    -0.297 N 
ATOM     15  C   UNL     1      15.137  10.750  23.161  0.00  0.00    +0.300 C 
ATOM     26  H   UNL     1      13.356  10.100  24.016  0.00  0.00    +0.150 HD
ATOM     27  H   UNL     1      14.199   9.064  22.392  0.00  0.00    +0.150 HD
BRANCH   7  18
ATOM     18  C   UNL     1      16.005   9.337  21.302  0.00  0.00    +0.068 C 
ATOM     21  C   UNL     1      16.109   7.832  21.096  0.00  0.00    +0.027 C 
ATOM     22  C   UNL     1      15.648  10.049  20.004  0.00  0.00    +0.027 C 
ENDBRANCH   7  18
ENDBRANCH  12   6
ENDBRANCH  10  12
TORSDOF 7
ENDMDL
MODEL 9
REMARK VINA RESULT:      -6.0     15.861     18.502
REMARK  Name = 75536740
REMARK  9 active torsions:
REMARK  status: ('A' for Active; 'I' for Inactive)
REMARK    1  A    between atoms: O_3  and  C_9
REMARK    2  A    between atoms: N_5  and  C_8
REMARK    3  A    between atoms: N_5  and  C_13
REMARK    4  A    between atoms: N_6  and  C_12
REMARK    5  A    between atoms: N_7  and  C_18
REMARK    6  A    between atoms: C_10  and  C_12
REMARK    7  A    between atoms: C_13  and  C_14
REMARK    8  A    between atoms: C_18  and  C_21
REMARK    9  A    between atoms: C_18  and  C_22
REMARK                            x       y       z     vdW  Elec       q    Type
REMARK                         _______ _______ _______ _____ _____    ______ ____
ROOT
ATOM      2  O   UNL     1      10.632   7.944   7.521  0.00  0.00    -0.371 OA
ATOM      8  C   UNL     1       9.158   6.109   7.266  0.00  0.00    +0.111 C 
ATOM      9  C   UNL     1      10.577   5.570   7.273  0.00  0.00    +0.164 C 
ATOM     10  C   UNL     1      11.467   6.811   7.216  0.00  0.00    +0.165 C 
ATOM     11  C   UNL     1       9.339   7.471   7.916  0.00  0.00    +0.181 C 
ENDROOT
BRANCH   9   3
ATOM      3  O   UNL     1      10.784   4.903   8.520  0.00  0.00    -0.388 OA
ATOM     25  H   UNL     1      11.566   5.304   8.938  0.00  0.00    +0.210 HD
ENDBRANCH   9   3
BRANCH   8   5
ATOM      5  N   UNL     1       8.640   6.249   5.907  0.00  0.00    -0.305 NA
ATOM     24  H   UNL     1       9.411   6.179   5.243  0.00  0.00    +0.123 HD
BRANCH   5  13
ATOM     13  C   UNL     1       7.986   7.540   5.725  0.00  0.00    +0.119 C 
BRANCH  13  14
ATOM      1  F   UNL     1       6.585   9.801   4.751  0.00  0.00    -0.205 F 
ATOM     14  C   UNL     1       8.107   8.033   4.308  0.00  0.00    +0.002 A 
ATOM     16  C   UNL     1       7.387   9.155   3.893  0.00  0.00    +0.128 A 
ATOM     17  C   UNL     1       8.938   7.367   3.407  0.00  0.00    +0.008 A 
ATOM     19  C   UNL     1       7.500   9.610   2.580  0.00  0.00    +0.038 A 
ATOM     20  C   UNL     1       9.052   7.822   2.094  0.00  0.00    +0.000 A 
ATOM     23  C   UNL     1       8.333   8.944   1.680  0.00  0.00    +0.003 A 
ENDBRANCH  13  14
ENDBRANCH   5  13
ENDBRANCH   8   5
BRANCH  10  12
ATOM     12  C   UNL     1      12.105   7.039   5.855  0.00  0.00    +0.140 C 
BRANCH  12   6
ATOM      4  O   UNL     1      12.587   6.957   3.011  0.00  0.00    -0.253 OA
ATOM      6  N   UNL     1      11.845   5.945   4.966  0.00  0.00    -0.297 N 
ATOM      7  N   UNL     1      11.761   4.789   2.970  0.00  0.00    -0.297 N 
ATOM     15  C   UNL     1      12.107   5.985   3.594  0.00  0.00    +0.300 C 
ATOM     26  H   UNL     1      11.440   5.098   5.353  0.00  0.00    +0.150 HD
ATOM     27  H   UNL     1      11.306   4.069   3.524  0.00  0.00    +0.150 HD
BRANCH   7  18
ATOM     18  C   UNL     1      11.931   4.566   1.553  0.00  0.00    +0.068 C 
ATOM     21  C   UNL     1      12.813   3.350   1.305  0.00  0.00    +0.027 C 
ATOM     22  C   UNL     1      10.576   4.414   0.876  0.00  0.00    +0.027 C 
ENDBRANCH   7  18
ENDBRANCH  12   6
ENDBRANCH  10  12
TORSDOF 7
ENDMDL
MODEL 10
REMARK VINA RESULT:      -6.0     26.293     27.708
REMARK  Name = 75536740
REMARK  9 active torsions:
REMARK  status: ('A' for Active; 'I' for Inactive)
REMARK    1  A    between atoms: O_3  and  C_9
REMARK    2  A    between atoms: N_5  and  C_8
REMARK    3  A    between atoms: N_5  and  C_13
REMARK    4  A    between atoms: N_6  and  C_12
REMARK    5  A    between atoms: N_7  and  C_18
REMARK    6  A    between atoms: C_10  and  C_12
REMARK    7  A    between atoms: C_13  and  C_14
REMARK    8  A    between atoms: C_18  and  C_21
REMARK    9  A    between atoms: C_18  and  C_22
REMARK                            x       y       z     vdW  Elec       q    Type
REMARK                         _______ _______ _______ _____ _____    ______ ____
ROOT
ATOM      2  O   UNL     1      -4.691 -12.384  16.633  0.00  0.00    -0.371 OA
ATOM      8  C   UNL     1      -3.398 -11.092  15.129  0.00  0.00    +0.111 C 
ATOM      9  C   UNL     1      -3.028 -10.674  16.541  0.00  0.00    +0.164 C 
ATOM     10  C   UNL     1      -4.046 -11.378  17.436  0.00  0.00    +0.165 C 
ATOM     11  C   UNL     1      -4.031 -12.454  15.364  0.00  0.00    +0.181 C 
ENDROOT
BRANCH   9   3
ATOM      3  O   UNL     1      -1.725 -11.187  16.821  0.00  0.00    -0.388 OA
ATOM     25  H   UNL     1      -1.359 -11.525  15.986  0.00  0.00    +0.210 HD
ENDBRANCH   9   3
BRANCH   8   5
ATOM      5  N   UNL     1      -4.359 -10.171  14.526  0.00  0.00    -0.305 NA
ATOM     24  H   UNL     1      -5.066  -9.921  15.218  0.00  0.00    +0.123 HD
BRANCH   5  13
ATOM     13  C   UNL     1      -5.025 -10.783  13.382  0.00  0.00    +0.119 C 
BRANCH  13  14
ATOM      1  F   UNL     1      -2.662 -11.276  11.901  0.00  0.00    -0.205 F 
ATOM     14  C   UNL     1      -4.698 -10.071  12.097  0.00  0.00    +0.002 A 
ATOM     16  C   UNL     1      -3.515 -10.363  11.417  0.00  0.00    +0.128 A 
ATOM     17  C   UNL     1      -5.578  -9.118  11.586  0.00  0.00    +0.008 A 
ATOM     19  C   UNL     1      -3.213  -9.701  10.227  0.00  0.00    +0.038 A 
ATOM     20  C   UNL     1      -5.278  -8.456  10.396  0.00  0.00    +0.000 A 
ATOM     23  C   UNL     1      -4.095  -8.748   9.716  0.00  0.00    +0.003 A 
ENDBRANCH  13  14
ENDBRANCH   5  13
ENDBRANCH   8   5
BRANCH  10  12
ATOM     12  C   UNL     1      -5.116 -10.449  17.988  0.00  0.00    +0.140 C 
BRANCH  12   6
ATOM      4  O   UNL     1      -7.992 -10.219  18.030  0.00  0.00    -0.253 OA
ATOM      6  N   UNL     1      -5.958  -9.944  16.943  0.00  0.00    -0.297 N 
ATOM      7  N   UNL     1      -7.918  -9.337  15.886  0.00  0.00    -0.297 N 
ATOM     15  C   UNL     1      -7.350  -9.865  17.042  0.00  0.00    +0.300 C 
ATOM     26  H   UNL     1      -5.520  -9.634  16.081  0.00  0.00    +0.150 HD
ATOM     27  H   UNL     1      -7.310  -9.140  15.096  0.00  0.00    +0.150 HD
BRANCH   7  18
ATOM     18  C   UNL     1      -9.341  -9.149  15.727  0.00  0.00    +0.068 C 
ATOM     21  C   UNL     1      -9.743  -7.738  16.137  0.00  0.00    +0.027 C 
ATOM     22  C   UNL     1      -9.758  -9.448  14.294  0.00  0.00    +0.027 C 
ENDBRANCH   7  18
ENDBRANCH  12   6
ENDBRANCH  10  12
TORSDOF 7
ENDMDL
