MODEL 1
REMARK VINA RESULT:      -7.5      0.000      0.000
REMARK  Name = 71693045
REMARK  9 active torsions:
REMARK  status: ('A' for Active; 'I' for Inactive)
REMARK    1  A    between atoms: N_1  and  C_12
REMARK    2  A    between atoms: C_4  and  C_8
REMARK    3  A    between atoms: C_6  and  C_12
REMARK    4  A    between atoms: C_7  and  C_11
REMARK    5  A    between atoms: C_8  and  C_13
REMARK    6  A    between atoms: C_8  and  C_14
REMARK    7  A    between atoms: C_9  and  C_15
REMARK    8  A    between atoms: C_11  and  C_16
REMARK    9  A    between atoms: C_21  and  C_23
REMARK                            x       y       z     vdW  Elec       q    Type
REMARK                         _______ _______ _______ _____ _____    ______ ____
ROOT
ATOM      4  C   UNL     1      12.456   8.638  21.943  0.00  0.00    +0.000 C 
ATOM      5  C   UNL     1      13.506   7.933  21.075  0.00  0.00    +0.012 C 
ATOM      6  C   UNL     1      11.031   8.341  21.418  0.00  0.00    +0.029 C 
ATOM      7  C   UNL     1      13.419   8.311  19.580  0.00  0.00    +0.022 C 
ATOM      9  C   UNL     1      11.989   8.441  19.081  0.00  0.00    -0.073 C 
ATOM     10  C   UNL     1      10.934   8.440  19.917  0.00  0.00    -0.023 C 
ATOM     15  C   UNL     1      11.784   8.631  17.603  0.00  0.00    +0.039 C 
ENDROOT
BRANCH   4   8
ATOM      8  C   UNL     1      12.720  10.148  22.017  0.00  0.00    -0.013 C 
ATOM     13  C   UNL     1      11.614  10.845  22.803  0.00  0.00    +0.007 C 
ATOM     14  C   UNL     1      14.083  10.419  22.647  0.00  0.00    +0.007 C 
ENDBRANCH   4   8
BRANCH   7  11
ATOM     11  C   UNL     1      14.245   7.303  18.771  0.00  0.00    +0.082 C 
BRANCH  11  16
ATOM      2  N   UNL     1      16.382   6.035  19.066  0.00  0.00    -0.342 N 
ATOM      3  N   UNL     1      16.250   7.976  20.139  0.00  0.00    -0.232 NA
ATOM     16  C   UNL     1      15.624   7.138  19.344  0.00  0.00    +0.109 A 
ATOM     17  C   UNL     1      17.577   6.170  19.724  0.00  0.00    +0.066 A 
ATOM     18  C   UNL     1      17.470   7.390  20.387  0.00  0.00    +0.089 A 
ATOM     19  C   UNL     1      18.707   5.356  19.796  0.00  0.00    +0.031 A 
ATOM     20  C   UNL     1      18.545   7.839  21.172  0.00  0.00    +0.030 A 
ATOM     21  C   UNL     1      19.768   5.818  20.581  0.00  0.00    -0.048 A 
ATOM     22  C   UNL     1      19.691   7.038  21.258  0.00  0.00    +0.005 A 
ATOM     23  C   UNL     1      21.007   4.991  20.697  0.00  0.00    +0.044 C 
ATOM     26  H   UNL     1      16.112   5.257  18.478  0.00  0.00    +0.167 HD
ENDBRANCH  11  16
ENDBRANCH   7  11
BRANCH   6  12
ATOM     12  C   UNL     1      10.540   6.961  21.866  0.00  0.00    +0.085 C 
BRANCH  12   1
ATOM      1  N   UNL     1      11.076   5.922  21.005  0.00  0.00    -0.329 NA
ATOM     24  H   UNL     1      10.319   5.393  20.574  0.00  0.00    +0.118 HD
ATOM     25  H   UNL     1      11.601   5.252  21.567  0.00  0.00    +0.118 HD
ENDBRANCH  12   1
ENDBRANCH   6  12
TORSDOF 5
ENDMDL
MODEL 2
REMARK VINA RESULT:      -6.8     26.857     28.119
REMARK  Name = 71693045
REMARK  9 active torsions:
REMARK  status: ('A' for Active; 'I' for Inactive)
REMARK    1  A    between atoms: N_1  and  C_12
REMARK    2  A    between atoms: C_4  and  C_8
REMARK    3  A    between atoms: C_6  and  C_12
REMARK    4  A    between atoms: C_7  and  C_11
REMARK    5  A    between atoms: C_8  and  C_13
REMARK    6  A    between atoms: C_8  and  C_14
REMARK    7  A    between atoms: C_9  and  C_15
REMARK    8  A    between atoms: C_11  and  C_16
REMARK    9  A    between atoms: C_21  and  C_23
REMARK                            x       y       z     vdW  Elec       q    Type
REMARK                         _______ _______ _______ _____ _____    ______ ____
ROOT
ATOM      4  C   UNL     1      -5.897 -10.578  17.910  0.00  0.00    +0.000 C 
ATOM      5  C   UNL     1      -4.844 -10.262  16.839  0.00  0.00    +0.012 C 
ATOM      6  C   UNL     1      -5.566 -11.913  18.619  0.00  0.00    +0.029 C 
ATOM      7  C   UNL     1      -4.688 -11.379  15.785  0.00  0.00    +0.022 C 
ATOM      9  C   UNL     1      -4.763 -12.775  16.382  0.00  0.00    -0.073 C 
ATOM     10  C   UNL     1      -5.146 -12.992  17.654  0.00  0.00    -0.023 C 
ATOM     15  C   UNL     1      -4.448 -13.935  15.478  0.00  0.00    +0.039 C 
ENDROOT
BRANCH   4   8
ATOM      8  C   UNL     1      -7.309 -10.600  17.309  0.00  0.00    -0.013 C 
ATOM     13  C   UNL     1      -8.321 -11.079  18.345  0.00  0.00    +0.007 C 
ATOM     14  C   UNL     1      -7.686  -9.218  16.785  0.00  0.00    +0.007 C 
ENDBRANCH   4   8
BRANCH   7  11
ATOM     11  C   UNL     1      -3.392 -11.135  15.001  0.00  0.00    +0.082 C 
BRANCH  11  16
ATOM      2  N   UNL     1      -4.948 -10.320  13.220  0.00  0.00    -0.342 N 
ATOM      3  N   UNL     1      -2.796 -10.386  12.672  0.00  0.00    -0.232 NA
ATOM     16  C   UNL     1      -3.676 -10.615  13.621  0.00  0.00    +0.109 A 
ATOM     17  C   UNL     1      -4.887  -9.870  11.926  0.00  0.00    +0.066 A 
ATOM     18  C   UNL     1      -3.533  -9.921  11.607  0.00  0.00    +0.089 A 
ATOM     19  C   UNL     1      -5.869  -9.437  11.035  0.00  0.00    +0.031 A 
ATOM     20  C   UNL     1      -3.116  -9.521  10.326  0.00  0.00    +0.030 A 
ATOM     21  C   UNL     1      -5.436  -9.042   9.764  0.00  0.00    -0.048 A 
ATOM     22  C   UNL     1      -4.085  -9.082   9.414  0.00  0.00    +0.005 A 
ATOM     23  C   UNL     1      -6.440  -8.568   8.765  0.00  0.00    +0.044 C 
ATOM     26  H   UNL     1      -5.788 -10.413  13.778  0.00  0.00    +0.167 HD
ENDBRANCH  11  16
ENDBRANCH   7  11
BRANCH   6  12
ATOM     12  C   UNL     1      -4.475 -11.733  19.680  0.00  0.00    +0.085 C 
BRANCH  12   1
ATOM      1  N   UNL     1      -3.268 -12.444  19.301  0.00  0.00    -0.329 NA
ATOM     24  H   UNL     1      -3.476 -13.424  19.116  0.00  0.00    +0.118 HD
ATOM     25  H   UNL     1      -2.612 -12.440  20.082  0.00  0.00    +0.118 HD
ENDBRANCH  12   1
ENDBRANCH   6  12
TORSDOF 5
ENDMDL
MODEL 3
REMARK VINA RESULT:      -6.8     25.090     28.027
REMARK  Name = 71693045
REMARK  9 active torsions:
REMARK  status: ('A' for Active; 'I' for Inactive)
REMARK    1  A    between atoms: N_1  and  C_12
REMARK    2  A    between atoms: C_4  and  C_8
REMARK    3  A    between atoms: C_6  and  C_12
REMARK    4  A    between atoms: C_7  and  C_11
REMARK    5  A    between atoms: C_8  and  C_13
REMARK    6  A    between atoms: C_8  and  C_14
REMARK    7  A    between atoms: C_9  and  C_15
REMARK    8  A    between atoms: C_11  and  C_16
REMARK    9  A    between atoms: C_21  and  C_23
REMARK                            x       y       z     vdW  Elec       q    Type
REMARK                         _______ _______ _______ _____ _____    ______ ____
ROOT
ATOM      4  C   UNL     1      -5.045 -12.304  15.643  0.00  0.00    +0.000 C 
ATOM      5  C   UNL     1      -4.059 -12.751  14.556  0.00  0.00    +0.012 C 
ATOM      6  C   UNL     1      -4.915 -10.783  15.900  0.00  0.00    +0.029 C 
ATOM      7  C   UNL     1      -2.589 -12.409  14.883  0.00  0.00    +0.022 C 
ATOM      9  C   UNL     1      -2.426 -11.045  15.536  0.00  0.00    -0.073 C 
ATOM     10  C   UNL     1      -3.479 -10.329  15.972  0.00  0.00    -0.023 C 
ATOM     15  C   UNL     1      -1.026 -10.534  15.736  0.00  0.00    +0.039 C 
ENDROOT
BRANCH   4   8
ATOM      8  C   UNL     1      -4.848 -13.107  16.936  0.00  0.00    -0.013 C 
ATOM     13  C   UNL     1      -5.676 -12.507  18.068  0.00  0.00    +0.007 C 
ATOM     14  C   UNL     1      -5.217 -14.570  16.714  0.00  0.00    +0.007 C 
ENDBRANCH   4   8
BRANCH   7  11
ATOM     11  C   UNL     1      -1.754 -12.563  13.606  0.00  0.00    +0.082 C 
BRANCH  11  16
ATOM      2  N   UNL     1      -3.049 -12.461  11.467  0.00  0.00    -0.342 N 
ATOM      3  N   UNL     1      -2.330 -10.514  12.260  0.00  0.00    -0.232 NA
ATOM     16  C   UNL     1      -2.366 -11.812  12.457  0.00  0.00    +0.109 A 
ATOM     17  C   UNL     1      -3.485 -11.519  10.571  0.00  0.00    +0.066 A 
ATOM     18  C   UNL     1      -3.023 -10.311  11.089  0.00  0.00    +0.089 A 
ATOM     19  C   UNL     1      -4.220 -11.616   9.390  0.00  0.00    +0.031 A 
ATOM     20  C   UNL     1      -3.302  -9.120  10.398  0.00  0.00    +0.030 A 
ATOM     21  C   UNL     1      -4.488 -10.420   8.715  0.00  0.00    -0.048 A 
ATOM     22  C   UNL     1      -4.039  -9.193   9.208  0.00  0.00    +0.005 A 
ATOM     23  C   UNL     1      -5.272 -10.458   7.444  0.00  0.00    +0.044 C 
ATOM     26  H   UNL     1      -3.209 -13.459  11.406  0.00  0.00    +0.167 HD
ENDBRANCH  11  16
ENDBRANCH   7  11
BRANCH   6  12
ATOM     12  C   UNL     1      -5.649  -9.965  14.833  0.00  0.00    +0.085 C 
BRANCH  12   1
ATOM      1  N   UNL     1      -6.949  -9.537  15.318  0.00  0.00    -0.329 NA
ATOM     24  H   UNL     1      -7.228  -8.668  14.866  0.00  0.00    +0.118 HD
ATOM     25  H   UNL     1      -6.888  -9.329  16.314  0.00  0.00    +0.118 HD
ENDBRANCH  12   1
ENDBRANCH   6  12
TORSDOF 5
ENDMDL
MODEL 4
REMARK VINA RESULT:      -6.7      4.362      6.018
REMARK  Name = 71693045
REMARK  9 active torsions:
REMARK  status: ('A' for Active; 'I' for Inactive)
REMARK    1  A    between atoms: N_1  and  C_12
REMARK    2  A    between atoms: C_4  and  C_8
REMARK    3  A    between atoms: C_6  and  C_12
REMARK    4  A    between atoms: C_7  and  C_11
REMARK    5  A    between atoms: C_8  and  C_13
REMARK    6  A    between atoms: C_8  and  C_14
REMARK    7  A    between atoms: C_9  and  C_15
REMARK    8  A    between atoms: C_11  and  C_16
REMARK    9  A    between atoms: C_21  and  C_23
REMARK                            x       y       z     vdW  Elec       q    Type
REMARK                         _______ _______ _______ _____ _____    ______ ____
ROOT
ATOM      4  C   UNL     1      14.093   6.913  19.604  0.00  0.00    +0.000 C 
ATOM      5  C   UNL     1      13.732   7.617  18.290  0.00  0.00    +0.012 C 
ATOM      6  C   UNL     1      13.194   7.421  20.757  0.00  0.00    +0.029 C 
ATOM      7  C   UNL     1      13.824   9.157  18.375  0.00  0.00    +0.022 C 
ATOM      9  C   UNL     1      13.314   9.712  19.695  0.00  0.00    -0.073 C 
ATOM     10  C   UNL     1      13.027   8.918  20.744  0.00  0.00    -0.023 C 
ATOM     15  C   UNL     1      13.192  11.206  19.819  0.00  0.00    +0.039 C 
ENDROOT
BRANCH   4   8
ATOM      8  C   UNL     1      15.581   7.089  19.938  0.00  0.00    -0.013 C 
ATOM     13  C   UNL     1      15.838   6.779  21.409  0.00  0.00    +0.007 C 
ATOM     14  C   UNL     1      16.436   6.200  19.040  0.00  0.00    +0.007 C 
ENDBRANCH   4   8
BRANCH   7  11
ATOM     11  C   UNL     1      13.109   9.757  17.158  0.00  0.00    +0.082 C 
BRANCH  11  16
ATOM      2  N   UNL     1      15.139  11.152  16.720  0.00  0.00    -0.342 N 
ATOM      3  N   UNL     1      14.035  10.456  14.923  0.00  0.00    -0.232 NA
ATOM     16  C   UNL     1      14.076  10.443  16.236  0.00  0.00    +0.109 A 
ATOM     17  C   UNL     1      15.832  11.655  15.649  0.00  0.00    +0.066 A 
ATOM     18  C   UNL     1      15.122  11.205  14.538  0.00  0.00    +0.089 A 
ATOM     19  C   UNL     1      16.982  12.439  15.558  0.00  0.00    +0.031 A 
ATOM     20  C   UNL     1      15.572  11.551  13.253  0.00  0.00    +0.030 A 
ATOM     21  C   UNL     1      17.416  12.773  14.271  0.00  0.00    -0.048 A 
ATOM     22  C   UNL     1      16.726  12.338  13.137  0.00  0.00    +0.005 A 
ATOM     23  C   UNL     1      18.642  13.611  14.108  0.00  0.00    +0.044 C 
ATOM     26  H   UNL     1      15.377  11.282  17.696  0.00  0.00    +0.167 HD
ENDBRANCH  11  16
ENDBRANCH   7  11
BRANCH   6  12
ATOM     12  C   UNL     1      11.813   6.759  20.729  0.00  0.00    +0.085 C 
BRANCH  12   1
ATOM      1  N   UNL     1      11.796   5.569  21.561  0.00  0.00    -0.329 NA
ATOM     24  H   UNL     1      10.959   5.554  22.141  0.00  0.00    +0.118 HD
ATOM     25  H   UNL     1      12.584   5.595  22.207  0.00  0.00    +0.118 HD
ENDBRANCH  12   1
ENDBRANCH   6  12
TORSDOF 5
ENDMDL
MODEL 5
REMARK VINA RESULT:      -6.7     16.957     20.334
REMARK  Name = 71693045
REMARK  9 active torsions:
REMARK  status: ('A' for Active; 'I' for Inactive)
REMARK    1  A    between atoms: N_1  and  C_12
REMARK    2  A    between atoms: C_4  and  C_8
REMARK    3  A    between atoms: C_6  and  C_12
REMARK    4  A    between atoms: C_7  and  C_11
REMARK    5  A    between atoms: C_8  and  C_13
REMARK    6  A    between atoms: C_8  and  C_14
REMARK    7  A    between atoms: C_9  and  C_15
REMARK    8  A    between atoms: C_11  and  C_16
REMARK    9  A    between atoms: C_21  and  C_23
REMARK                            x       y       z     vdW  Elec       q    Type
REMARK                         _______ _______ _______ _____ _____    ______ ____
ROOT
ATOM      4  C   UNL     1      11.016   4.352  -1.379  0.00  0.00    +0.000 C 
ATOM      5  C   UNL     1      10.672   4.086   0.093  0.00  0.00    +0.012 C 
ATOM      6  C   UNL     1      12.153   3.414  -1.849  0.00  0.00    +0.029 C 
ATOM      7  C   UNL     1      11.883   4.231   1.040  0.00  0.00    +0.022 C 
ATOM      9  C   UNL     1      13.170   3.674   0.452  0.00  0.00    -0.073 C 
ATOM     10  C   UNL     1      13.267   3.303  -0.839  0.00  0.00    -0.023 C 
ATOM     15  C   UNL     1      14.372   3.602   1.353  0.00  0.00    +0.039 C 
ENDROOT
BRANCH   4   8
ATOM      8  C   UNL     1      11.378   5.826  -1.606  0.00  0.00    -0.013 C 
ATOM     13  C   UNL     1      11.847   6.044  -3.041  0.00  0.00    +0.007 C 
ATOM     14  C   UNL     1      10.186   6.722  -1.285  0.00  0.00    +0.007 C 
ENDBRANCH   4   8
BRANCH   7  11
ATOM     11  C   UNL     1      11.525   3.602   2.393  0.00  0.00    +0.082 C 
BRANCH  11  16
ATOM      2  N   UNL     1      10.839   4.429   4.652  0.00  0.00    -0.342 N 
ATOM      3  N   UNL     1      10.203   5.678   2.927  0.00  0.00    -0.232 NA
ATOM     16  C   UNL     1      10.845   4.592   3.295  0.00  0.00    +0.109 A 
ATOM     17  C   UNL     1      10.149   5.481   5.198  0.00  0.00    +0.066 A 
ATOM     18  C   UNL     1       9.763   6.247   4.100  0.00  0.00    +0.089 A 
ATOM     19  C   UNL     1       9.839   5.819   6.515  0.00  0.00    +0.031 A 
ATOM     20  C   UNL     1       9.022   7.422   4.312  0.00  0.00    +0.030 A 
ATOM     21  C   UNL     1       9.101   6.992   6.707  0.00  0.00    -0.048 A 
ATOM     22  C   UNL     1       8.699   7.781   5.627  0.00  0.00    +0.005 A 
ATOM     23  C   UNL     1       8.738   7.407   8.096  0.00  0.00    +0.044 C 
ATOM     26  H   UNL     1      11.268   3.670   5.165  0.00  0.00    +0.167 HD
ENDBRANCH  11  16
ENDBRANCH   7  11
BRANCH   6  12
ATOM     12  C   UNL     1      11.629   2.012  -2.177  0.00  0.00    +0.085 C 
BRANCH  12   1
ATOM      1  N   UNL     1      10.315   2.086  -2.791  0.00  0.00    -0.329 NA
ATOM     24  H   UNL     1      10.381   2.489  -3.724  0.00  0.00    +0.118 HD
ATOM     25  H   UNL     1       9.724   2.718  -2.253  0.00  0.00    +0.118 HD
ENDBRANCH  12   1
ENDBRANCH   6  12
TORSDOF 5
ENDMDL
MODEL 6
REMARK VINA RESULT:      -6.6     24.971     28.522
REMARK  Name = 71693045
REMARK  9 active torsions:
REMARK  status: ('A' for Active; 'I' for Inactive)
REMARK    1  A    between atoms: N_1  and  C_12
REMARK    2  A    between atoms: C_4  and  C_8
REMARK    3  A    between atoms: C_6  and  C_12
REMARK    4  A    between atoms: C_7  and  C_11
REMARK    5  A    between atoms: C_8  and  C_13
REMARK    6  A    between atoms: C_8  and  C_14
REMARK    7  A    between atoms: C_9  and  C_15
REMARK    8  A    between atoms: C_11  and  C_16
REMARK    9  A    between atoms: C_21  and  C_23
REMARK                            x       y       z     vdW  Elec       q    Type
REMARK                         _______ _______ _______ _____ _____    ______ ____
ROOT
ATOM      4  C   UNL     1      -4.049 -11.485  12.734  0.00  0.00    +0.000 C 
ATOM      5  C   UNL     1      -4.462 -11.479  14.213  0.00  0.00    +0.012 C 
ATOM      6  C   UNL     1      -2.584 -11.959  12.583  0.00  0.00    +0.029 C 
ATOM      7  C   UNL     1      -3.546 -10.609  15.100  0.00  0.00    +0.022 C 
ATOM      9  C   UNL     1      -2.076 -10.718  14.726  0.00  0.00    -0.073 C 
ATOM     10  C   UNL     1      -1.666 -11.336  13.603  0.00  0.00    -0.023 C 
ATOM     15  C   UNL     1      -1.077 -10.055  15.634  0.00  0.00    +0.039 C 
ENDROOT
BRANCH   4   8
ATOM      8  C   UNL     1      -4.260 -10.106  12.094  0.00  0.00    -0.013 C 
ATOM     13  C   UNL     1      -3.687 -10.082  10.680  0.00  0.00    +0.007 C 
ATOM     14  C   UNL     1      -5.742  -9.746  12.082  0.00  0.00    +0.007 C 
ENDBRANCH   4   8
BRANCH   7  11
ATOM     11  C   UNL     1      -3.815 -10.956  16.570  0.00  0.00    +0.082 C 
BRANCH  11  16
ATOM      2  N   UNL     1      -5.922  -9.609  16.503  0.00  0.00    -0.342 N 
ATOM      3  N   UNL     1      -6.014 -11.495  17.673  0.00  0.00    -0.232 NA
ATOM     16  C   UNL     1      -5.252 -10.719  16.935  0.00  0.00    +0.109 A 
ATOM     17  C   UNL     1      -7.201  -9.673  16.992  0.00  0.00    +0.066 A 
ATOM     18  C   UNL     1      -7.233 -10.860  17.720  0.00  0.00    +0.089 A 
ATOM     19  C   UNL     1      -8.299  -8.821  16.866  0.00  0.00    +0.031 A 
ATOM     20  C   UNL     1      -8.423 -11.234  18.366  0.00  0.00    +0.030 A 
ATOM     21  C   UNL     1      -9.475  -9.209  17.516  0.00  0.00    -0.048 A 
ATOM     22  C   UNL     1      -9.539 -10.394  18.254  0.00  0.00    +0.005 A 
ATOM     23  C   UNL     1     -10.685  -8.339  17.419  0.00  0.00    +0.044 C 
ATOM     26  H   UNL     1      -5.544  -8.871  15.922  0.00  0.00    +0.167 HD
ENDBRANCH  11  16
ENDBRANCH   7  11
BRANCH   6  12
ATOM     12  C   UNL     1      -2.472 -13.484  12.668  0.00  0.00    +0.085 C 
BRANCH  12   1
ATOM      1  N   UNL     1      -1.145 -13.878  13.106  0.00  0.00    -0.329 NA
ATOM     24  H   UNL     1      -1.165 -14.166  14.083  0.00  0.00    +0.118 HD
ATOM     25  H   UNL     1      -0.520 -13.074  13.063  0.00  0.00    +0.118 HD
ENDBRANCH  12   1
ENDBRANCH   6  12
TORSDOF 5
ENDMDL
MODEL 7
REMARK VINA RESULT:      -6.4     25.498     28.679
REMARK  Name = 71693045
REMARK  9 active torsions:
REMARK  status: ('A' for Active; 'I' for Inactive)
REMARK    1  A    between atoms: N_1  and  C_12
REMARK    2  A    between atoms: C_4  and  C_8
REMARK    3  A    between atoms: C_6  and  C_12
REMARK    4  A    between atoms: C_7  and  C_11
REMARK    5  A    between atoms: C_8  and  C_13
REMARK    6  A    between atoms: C_8  and  C_14
REMARK    7  A    between atoms: C_9  and  C_15
REMARK    8  A    between atoms: C_11  and  C_16
REMARK    9  A    between atoms: C_21  and  C_23
REMARK                            x       y       z     vdW  Elec       q    Type
REMARK                         _______ _______ _______ _____ _____    ______ ____
ROOT
ATOM      4  C   UNL     1      -9.393 -10.034  18.161  0.00  0.00    +0.000 C 
ATOM      5  C   UNL     1      -7.872 -10.183  18.307  0.00  0.00    +0.012 C 
ATOM      6  C   UNL     1     -10.109 -11.334  18.600  0.00  0.00    +0.029 C 
ATOM      7  C   UNL     1      -7.296 -11.379  17.518  0.00  0.00    +0.022 C 
ATOM      9  C   UNL     1      -8.185 -12.611  17.572  0.00  0.00    -0.073 C 
ATOM     10  C   UNL     1      -9.435 -12.573  18.070  0.00  0.00    -0.023 C 
ATOM     15  C   UNL     1      -7.640 -13.886  16.989  0.00  0.00    +0.039 C 
ENDROOT
BRANCH   4   8
ATOM      8  C   UNL     1      -9.778  -9.641  16.729  0.00  0.00    -0.013 C 
ATOM     13  C   UNL     1     -11.277  -9.820  16.511  0.00  0.00    +0.007 C 
ATOM     14  C   UNL     1      -9.359  -8.202  16.442  0.00  0.00    +0.007 C 
ENDBRANCH   4   8
BRANCH   7  11
ATOM     11  C   UNL     1      -5.870 -11.649  18.012  0.00  0.00    +0.082 C 
BRANCH  11  16
ATOM      2  N   UNL     1      -5.183 -11.287  15.634  0.00  0.00    -0.342 N 
ATOM      3  N   UNL     1      -3.584 -11.030  17.155  0.00  0.00    -0.232 NA
ATOM     16  C   UNL     1      -4.852 -11.318  16.959  0.00  0.00    +0.109 A 
ATOM     17  C   UNL     1      -4.056 -10.957  14.926  0.00  0.00    +0.066 A 
ATOM     18  C   UNL     1      -3.072 -10.802  15.899  0.00  0.00    +0.089 A 
ATOM     19  C   UNL     1      -3.820 -10.786  13.562  0.00  0.00    +0.031 A 
ATOM     20  C   UNL     1      -1.768 -10.457  15.504  0.00  0.00    +0.030 A 
ATOM     21  C   UNL     1      -2.517 -10.442  13.187  0.00  0.00    -0.048 A 
ATOM     22  C   UNL     1      -1.508 -10.280  14.138  0.00  0.00    +0.005 A 
ATOM     23  C   UNL     1      -2.201 -10.245  11.740  0.00  0.00    +0.044 C 
ATOM     26  H   UNL     1      -6.098 -11.472  15.242  0.00  0.00    +0.167 HD
ENDBRANCH  11  16
ENDBRANCH   7  11
BRANCH   6  12
ATOM     12  C   UNL     1     -10.218 -11.431  20.125  0.00  0.00    +0.085 C 
BRANCH  12   1
ATOM      1  N   UNL     1     -10.415 -10.117  20.711  0.00  0.00    -0.329 NA
ATOM     24  H   UNL     1     -10.968 -10.188  21.563  0.00  0.00    +0.118 HD
ATOM     25  H   UNL     1     -10.957  -9.537  20.071  0.00  0.00    +0.118 HD
ENDBRANCH  12   1
ENDBRANCH   6  12
TORSDOF 5
ENDMDL
MODEL 8
REMARK VINA RESULT:      -6.4     25.961     28.547
REMARK  Name = 71693045
REMARK  9 active torsions:
REMARK  status: ('A' for Active; 'I' for Inactive)
REMARK    1  A    between atoms: N_1  and  C_12
REMARK    2  A    between atoms: C_4  and  C_8
REMARK    3  A    between atoms: C_6  and  C_12
REMARK    4  A    between atoms: C_7  and  C_11
REMARK    5  A    between atoms: C_8  and  C_13
REMARK    6  A    between atoms: C_8  and  C_14
REMARK    7  A    between atoms: C_9  and  C_15
REMARK    8  A    between atoms: C_11  and  C_16
REMARK    9  A    between atoms: C_21  and  C_23
REMARK                            x       y       z     vdW  Elec       q    Type
REMARK                         _______ _______ _______ _____ _____    ______ ____
ROOT
ATOM      4  C   UNL     1      -7.764 -11.507  17.502  0.00  0.00    +0.000 C 
ATOM      5  C   UNL     1      -6.925 -12.669  16.954  0.00  0.00    +0.012 C 
ATOM      6  C   UNL     1      -6.868 -10.279  17.789  0.00  0.00    +0.029 C 
ATOM      7  C   UNL     1      -5.769 -13.084  17.890  0.00  0.00    +0.022 C 
ATOM      9  C   UNL     1      -5.080 -11.898  18.547  0.00  0.00    -0.073 C 
ATOM     10  C   UNL     1      -5.581 -10.650  18.480  0.00  0.00    -0.023 C 
ATOM     15  C   UNL     1      -3.831 -12.172  19.338  0.00  0.00    +0.039 C 
ENDROOT
BRANCH   4   8
ATOM      8  C   UNL     1      -8.549 -11.930  18.751  0.00  0.00    -0.013 C 
ATOM     13  C   UNL     1      -9.368 -10.761  19.287  0.00  0.00    +0.007 C 
ATOM     14  C   UNL     1      -9.449 -13.121  18.435  0.00  0.00    +0.007 C 
ENDBRANCH   4   8
BRANCH   7  11
ATOM     11  C   UNL     1      -4.799 -13.976  17.105  0.00  0.00    +0.082 C 
BRANCH  11  16
ATOM      2  N   UNL     1      -3.367 -12.391  15.804  0.00  0.00    -0.342 N 
ATOM      3  N   UNL     1      -4.858 -13.541  14.625  0.00  0.00    -0.232 NA
ATOM     16  C   UNL     1      -4.367 -13.322  15.824  0.00  0.00    +0.109 A 
ATOM     17  C   UNL     1      -3.200 -11.982  14.505  0.00  0.00    +0.066 A 
ATOM     18  C   UNL     1      -4.143 -12.715  13.789  0.00  0.00    +0.089 A 
ATOM     19  C   UNL     1      -2.333 -11.062  13.914  0.00  0.00    +0.031 A 
ATOM     20  C   UNL     1      -4.240 -12.531  12.400  0.00  0.00    +0.030 A 
ATOM     21  C   UNL     1      -2.444 -10.892  12.530  0.00  0.00    -0.048 A 
ATOM     22  C   UNL     1      -3.380 -11.613  11.784  0.00  0.00    +0.005 A 
ATOM     23  C   UNL     1      -1.543  -9.922  11.839  0.00  0.00    +0.044 C 
ATOM     26  H   UNL     1      -2.840 -12.062  16.603  0.00  0.00    +0.167 HD
ENDBRANCH  11  16
ENDBRANCH   7  11
BRANCH   6  12
ATOM     12  C   UNL     1      -6.546  -9.503  16.508  0.00  0.00    +0.085 C 
BRANCH  12   1
ATOM      1  N   UNL     1      -5.123  -9.547  16.224  0.00  0.00    -0.329 NA
ATOM     24  H   UNL     1      -4.696  -8.641  16.411  0.00  0.00    +0.118 HD
ATOM     25  H   UNL     1      -4.980  -9.725  15.231  0.00  0.00    +0.118 HD
ENDBRANCH  12   1
ENDBRANCH   6  12
TORSDOF 5
ENDMDL
MODEL 9
REMARK VINA RESULT:      -6.3     15.442     18.160
REMARK  Name = 71693045
REMARK  9 active torsions:
REMARK  status: ('A' for Active; 'I' for Inactive)
REMARK    1  A    between atoms: N_1  and  C_12
REMARK    2  A    between atoms: C_4  and  C_8
REMARK    3  A    between atoms: C_6  and  C_12
REMARK    4  A    between atoms: C_7  and  C_11
REMARK    5  A    between atoms: C_8  and  C_13
REMARK    6  A    between atoms: C_8  and  C_14
REMARK    7  A    between atoms: C_9  and  C_15
REMARK    8  A    between atoms: C_11  and  C_16
REMARK    9  A    between atoms: C_21  and  C_23
REMARK                            x       y       z     vdW  Elec       q    Type
REMARK                         _______ _______ _______ _____ _____    ______ ____
ROOT
ATOM      4  C   UNL     1      11.171   7.202   6.730  0.00  0.00    +0.000 C 
ATOM      5  C   UNL     1      11.005   5.909   5.920  0.00  0.00    +0.012 C 
ATOM      6  C   UNL     1       9.950   8.130   6.525  0.00  0.00    +0.029 C 
ATOM      7  C   UNL     1      10.794   6.155   4.410  0.00  0.00    +0.022 C 
ATOM      9  C   UNL     1       9.897   7.348   4.121  0.00  0.00    -0.073 C 
ATOM     10  C   UNL     1       9.521   8.213   5.082  0.00  0.00    -0.023 C 
ATOM     15  C   UNL     1       9.480   7.574   2.694  0.00  0.00    +0.039 C 
ENDROOT
BRANCH   4   8
ATOM      8  C   UNL     1      12.481   7.916   6.373  0.00  0.00    -0.013 C 
ATOM     13  C   UNL     1      12.538   9.288   7.037  0.00  0.00    +0.007 C 
ATOM     14  C   UNL     1      13.679   7.066   6.786  0.00  0.00    +0.007 C 
ENDBRANCH   4   8
BRANCH   7  11
ATOM     11  C   UNL     1      10.286   4.858   3.769  0.00  0.00    +0.082 C 
BRANCH  11  16
ATOM      2  N   UNL     1      10.424   4.205   1.357  0.00  0.00    -0.342 N 
ATOM      3  N   UNL     1      12.366   4.485   2.398  0.00  0.00    -0.232 NA
ATOM     16  C   UNL     1      11.059   4.521   2.526  0.00  0.00    +0.109 A 
ATOM     17  C   UNL     1      11.384   3.950   0.413  0.00  0.00    +0.066 A 
ATOM     18  C   UNL     1      12.589   4.132   1.088  0.00  0.00    +0.089 A 
ATOM     19  C   UNL     1      11.306   3.588  -0.932  0.00  0.00    +0.031 A 
ATOM     20  C   UNL     1      13.796   3.943   0.395  0.00  0.00    +0.030 A 
ATOM     21  C   UNL     1      12.518   3.404  -1.606  0.00  0.00    -0.048 A 
ATOM     22  C   UNL     1      13.742   3.578  -0.957  0.00  0.00    +0.005 A 
ATOM     23  C   UNL     1      12.500   3.016  -3.048  0.00  0.00    +0.044 C 
ATOM     26  H   UNL     1       9.422   4.169   1.212  0.00  0.00    +0.167 HD
ENDBRANCH  11  16
ENDBRANCH   7  11
BRANCH   6  12
ATOM     12  C   UNL     1       8.758   7.692   7.381  0.00  0.00    +0.085 C 
BRANCH  12   1
ATOM      1  N   UNL     1       7.542   7.652   6.588  0.00  0.00    -0.329 NA
ATOM     24  H   UNL     1       7.223   6.691   6.475  0.00  0.00    +0.118 HD
ATOM     25  H   UNL     1       7.739   7.994   5.648  0.00  0.00    +0.118 HD
ENDBRANCH  12   1
ENDBRANCH   6  12
TORSDOF 5
ENDMDL
MODEL 10
REMARK VINA RESULT:      -6.3     25.379     28.947
REMARK  Name = 71693045
REMARK  9 active torsions:
REMARK  status: ('A' for Active; 'I' for Inactive)
REMARK    1  A    between atoms: N_1  and  C_12
REMARK    2  A    between atoms: C_4  and  C_8
REMARK    3  A    between atoms: C_6  and  C_12
REMARK    4  A    between atoms: C_7  and  C_11
REMARK    5  A    between atoms: C_8  and  C_13
REMARK    6  A    between atoms: C_8  and  C_14
REMARK    7  A    between atoms: C_9  and  C_15
REMARK    8  A    between atoms: C_11  and  C_16
REMARK    9  A    between atoms: C_21  and  C_23
REMARK                            x       y       z     vdW  Elec       q    Type
REMARK                         _______ _______ _______ _____ _____    ______ ____
ROOT
ATOM      4  C   UNL     1      -3.584 -10.534  15.233  0.00  0.00    +0.000 C 
ATOM      5  C   UNL     1      -3.928 -10.403  16.723  0.00  0.00    +0.012 C 
ATOM      6  C   UNL     1      -4.754 -11.193  14.463  0.00  0.00    +0.029 C 
ATOM      7  C   UNL     1      -4.289 -11.749  17.389  0.00  0.00    +0.022 C 
ATOM      9  C   UNL     1      -5.128 -12.649  16.496  0.00  0.00    -0.073 C 
ATOM     10  C   UNL     1      -5.334 -12.377  15.193  0.00  0.00    -0.023 C 
ATOM     15  C   UNL     1      -5.686 -13.906  17.104  0.00  0.00    +0.039 C 
ENDROOT
BRANCH   4   8
ATOM      8  C   UNL     1      -2.276 -11.310  15.032  0.00  0.00    -0.013 C 
ATOM     13  C   UNL     1      -2.023 -11.554  13.547  0.00  0.00    +0.007 C 
ATOM     14  C   UNL     1      -1.108 -10.556  15.662  0.00  0.00    +0.007 C 
ENDBRANCH   4   8
BRANCH   7  11
ATOM     11  C   UNL     1      -4.954 -11.463  18.741  0.00  0.00    +0.082 C 
BRANCH  11  16
ATOM      2  N   UNL     1      -6.589  -9.851  17.746  0.00  0.00    -0.342 N 
ATOM      3  N   UNL     1      -7.439 -11.359  19.138  0.00  0.00    -0.232 NA
ATOM     16  C   UNL     1      -6.342 -10.917  18.566  0.00  0.00    +0.109 A 
ATOM     17  C   UNL     1      -7.934  -9.589  17.792  0.00  0.00    +0.066 A 
ATOM     18  C   UNL     1      -8.442 -10.544  18.668  0.00  0.00    +0.089 A 
ATOM     19  C   UNL     1      -8.725  -8.628  17.162  0.00  0.00    +0.031 A 
ATOM     20  C   UNL     1      -9.820 -10.555  18.943  0.00  0.00    +0.030 A 
ATOM     21  C   UNL     1     -10.094  -8.654  17.448  0.00  0.00    -0.048 A 
ATOM     22  C   UNL     1     -10.634  -9.599  18.322  0.00  0.00    +0.005 A 
ATOM     23  C   UNL     1     -10.994  -7.650  16.804  0.00  0.00    +0.044 C 
ATOM     26  H   UNL     1      -5.902  -9.346  17.200  0.00  0.00    +0.167 HD
ENDBRANCH  11  16
ENDBRANCH   7  11
BRANCH   6  12
ATOM     12  C   UNL     1      -5.870 -10.188  14.163  0.00  0.00    +0.085 C 
BRANCH  12   1
ATOM      1  N   UNL     1      -7.162 -10.726  14.549  0.00  0.00    -0.329 NA
ATOM     24  H   UNL     1      -7.582 -11.233  13.772  0.00  0.00    +0.118 HD
ATOM     25  H   UNL     1      -7.800  -9.959  14.760  0.00  0.00    +0.118 HD
ENDBRANCH  12   1
ENDBRANCH   6  12
TORSDOF 5
ENDMDL
