MODEL 1
REMARK VINA RESULT:      -6.4      0.000      0.000
REMARK  Name = 11867599
REMARK  11 active torsions:
REMARK  status: ('A' for Active; 'I' for Inactive)
REMARK    1  A    between atoms: O_5  and  C_20
REMARK    2  A    between atoms: O_5  and  C_32
REMARK    3  A    between atoms: O_6  and  C_23
REMARK    4  A    between atoms: O_6  and  C_34
REMARK    5  A    between atoms: N_10  and  C_19
REMARK    6  A    between atoms: C_12  and  C_16
REMARK    7  A    between atoms: C_17  and  C_20
REMARK    8  A    between atoms: C_18  and  C_22
REMARK    9  A    between atoms: C_19  and  C_21
REMARK   10  A    between atoms: C_19  and  C_23
REMARK   11  A    between atoms: C_21  and  C_24
REMARK                            x       y       z     vdW  Elec       q    Type
REMARK                         _______ _______ _______ _____ _____    ______ ____
ROOT
ATOM      3  O   UNL     1      11.013   6.698   4.882  0.00  0.00    -0.273 OA
ATOM      4  O   UNL     1      17.018  10.122   3.494  0.00  0.00    -0.270 OA
ATOM      8  N   UNL     1      13.172   7.377   5.418  0.00  0.00    -0.285 N 
ATOM      9  N   UNL     1      15.723   8.625   4.737  0.00  0.00    -0.294 N 
ATOM     12  C   UNL     1      13.386   8.001   4.109  0.00  0.00    +0.179 C 
ATOM     13  C   UNL     1      14.469   9.077   4.132  0.00  0.00    +0.140 C 
ATOM     14  C   UNL     1      14.250   7.515   6.406  0.00  0.00    +0.127 C 
ATOM     15  C   UNL     1      15.630   7.581   5.763  0.00  0.00    +0.127 C 
ATOM     17  C   UNL     1      11.922   6.818   5.706  0.00  0.00    +0.242 C 
ATOM     18  C   UNL     1      16.918   9.245   4.350  0.00  0.00    +0.247 C 
ENDROOT
BRANCH  18  22
ATOM      1  F   UNL     1      20.993   6.613   4.409  0.00  0.00    -0.205 F 
ATOM     22  C   UNL     1      18.164   8.821   5.009  0.00  0.00    +0.040 A 
ATOM     25  C   UNL     1      19.005   7.899   4.384  0.00  0.00    +0.051 A 
ATOM     26  C   UNL     1      18.505   9.341   6.257  0.00  0.00    +0.013 A 
ATOM     28  C   UNL     1      20.186   7.497   5.009  0.00  0.00    +0.124 A 
ATOM     29  C   UNL     1      19.686   8.940   6.881  0.00  0.00    +0.004 A 
ATOM     31  C   UNL     1      20.526   8.018   6.257  0.00  0.00    +0.038 A 
ENDBRANCH  18  22
BRANCH  12  16
ATOM      2  O   UNL     1      14.881   6.504   2.999  0.00  0.00    -0.274 OA
ATOM     10  N   UNL     1      12.614   6.421   2.479  0.00  0.00    -0.301 N 
ATOM     16  C   UNL     1      13.728   6.896   3.151  0.00  0.00    +0.236 C 
ATOM     36  H   UNL     1      11.699   6.803   2.700  0.00  0.00    +0.150 HD
BRANCH  10  19
ATOM     19  C   UNL     1      12.676   5.374   1.486  0.00  0.00    +0.186 C 
BRANCH  19  23
ATOM      7  O   UNL     1      11.335   3.838   2.782  0.00  0.00    -0.249 OA
ATOM     23  C   UNL     1      12.315   4.013   2.064  0.00  0.00    +0.328 C 
BRANCH  23   6
ATOM      6  O   UNL     1      13.206   3.047   1.704  0.00  0.00    -0.467 OA
ATOM     34  C   UNL     1      14.571   3.467   1.608  0.00  0.00    +0.280 C 
ENDBRANCH  23   6
ENDBRANCH  19  23
BRANCH  19  21
ATOM     21  C   UNL     1      11.837   5.712   0.244  0.00  0.00    +0.070 C 
BRANCH  21  24
ATOM     11  N   UNL     1      10.829   2.976  -2.180  0.00  0.00    -0.263 NA
ATOM     24  C   UNL     1      11.916   4.693  -0.869  0.00  0.00    -0.027 A 
ATOM     27  C   UNL     1      13.088   4.515  -1.596  0.00  0.00    +0.006 A 
ATOM     30  C   UNL     1      10.824   3.906  -1.197  0.00  0.00    +0.114 A 
ATOM     33  C   UNL     1      13.132   3.569  -2.614  0.00  0.00    +0.020 A 
ATOM     35  C   UNL     1      11.986   2.832  -2.864  0.00  0.00    +0.111 A 
ENDBRANCH  21  24
ENDBRANCH  19  21
ENDBRANCH  10  19
ENDBRANCH  12  16
BRANCH  17  20
ATOM     20  C   UNL     1      11.714   6.333   7.119  0.00  0.00    +0.255 C 
BRANCH  20   5
ATOM      5  O   UNL     1      10.328   6.155   7.283  0.00  0.00    -0.374 OA
ATOM     32  C   UNL     1      10.027   5.143   8.242  0.00  0.00    +0.194 C 
ENDBRANCH  20   5
ENDBRANCH  17  20
TORSDOF 9
ENDMDL
MODEL 2
REMARK VINA RESULT:      -6.3     26.189     29.784
REMARK  Name = 11867599
REMARK  11 active torsions:
REMARK  status: ('A' for Active; 'I' for Inactive)
REMARK    1  A    between atoms: O_5  and  C_20
REMARK    2  A    between atoms: O_5  and  C_32
REMARK    3  A    between atoms: O_6  and  C_23
REMARK    4  A    between atoms: O_6  and  C_34
REMARK    5  A    between atoms: N_10  and  C_19
REMARK    6  A    between atoms: C_12  and  C_16
REMARK    7  A    between atoms: C_17  and  C_20
REMARK    8  A    between atoms: C_18  and  C_22
REMARK    9  A    between atoms: C_19  and  C_21
REMARK   10  A    between atoms: C_19  and  C_23
REMARK   11  A    between atoms: C_21  and  C_24
REMARK                            x       y       z     vdW  Elec       q    Type
REMARK                         _______ _______ _______ _____ _____    ______ ____
ROOT
ATOM      3  O   UNL     1     -10.494 -10.030  16.370  0.00  0.00    -0.273 OA
ATOM      4  O   UNL     1      -5.561 -12.763  12.138  0.00  0.00    -0.270 OA
ATOM      8  N   UNL     1      -9.209 -10.032  14.430  0.00  0.00    -0.285 N 
ATOM      9  N   UNL     1      -7.023 -11.060  12.790  0.00  0.00    -0.294 N 
ATOM     12  C   UNL     1      -8.406 -11.176  14.868  0.00  0.00    +0.179 C 
ATOM     13  C   UNL     1      -7.760 -11.930  13.708  0.00  0.00    +0.140 C 
ATOM     14  C   UNL     1      -8.944  -9.507  13.084  0.00  0.00    +0.127 C 
ATOM     15  C   UNL     1      -7.488  -9.674  12.667  0.00  0.00    +0.127 C 
ATOM     17  C   UNL     1     -10.264  -9.596  15.239  0.00  0.00    +0.242 C 
ATOM     18  C   UNL     1      -5.966 -11.605  12.050  0.00  0.00    +0.247 C 
ENDROOT
BRANCH  18  22
ATOM      1  F   UNL     1      -2.067  -9.054  10.697  0.00  0.00    -0.205 F 
ATOM     22  C   UNL     1      -5.271 -10.734  11.088  0.00  0.00    +0.040 A 
ATOM     25  C   UNL     1      -3.972 -10.298  11.354  0.00  0.00    +0.051 A 
ATOM     26  C   UNL     1      -5.909 -10.345   9.911  0.00  0.00    +0.013 A 
ATOM     28  C   UNL     1      -3.314  -9.472  10.443  0.00  0.00    +0.124 A 
ATOM     29  C   UNL     1      -5.251  -9.520   9.000  0.00  0.00    +0.004 A 
ATOM     31  C   UNL     1      -3.953  -9.084   9.265  0.00  0.00    +0.038 A 
ENDBRANCH  18  22
BRANCH  12  16
ATOM      2  O   UNL     1      -6.783  -9.589  15.614  0.00  0.00    -0.274 OA
ATOM     10  N   UNL     1      -7.178 -11.485  16.904  0.00  0.00    -0.301 N 
ATOM     16  C   UNL     1      -7.374 -10.645  15.822  0.00  0.00    +0.236 C 
ATOM     36  H   UNL     1      -7.741 -12.327  16.990  0.00  0.00    +0.150 HD
BRANCH  10  19
ATOM     19  C   UNL     1      -6.223 -11.214  17.954  0.00  0.00    +0.186 C 
BRANCH  19  23
ATOM      7  O   UNL     1      -6.284 -10.841  20.341  0.00  0.00    -0.249 OA
ATOM     23  C   UNL     1      -6.867 -11.230  19.333  0.00  0.00    +0.328 C 
BRANCH  23   6
ATOM      6  O   UNL     1      -8.133 -11.735  19.305  0.00  0.00    -0.467 OA
ATOM     34  C   UNL     1      -8.310 -13.002  19.945  0.00  0.00    +0.280 C 
ENDBRANCH  23   6
ENDBRANCH  19  23
BRANCH  19  21
ATOM     21  C   UNL     1      -5.007 -12.148  17.877  0.00  0.00    +0.070 C 
BRANCH  21  24
ATOM     11  N   UNL     1      -3.221 -12.250  14.533  0.00  0.00    -0.263 NA
ATOM     24  C   UNL     1      -4.027 -11.821  16.771  0.00  0.00    -0.027 A 
ATOM     27  C   UNL     1      -3.060 -10.837  16.939  0.00  0.00    +0.006 A 
ATOM     30  C   UNL     1      -4.067 -12.493  15.560  0.00  0.00    +0.114 A 
ATOM     33  C   UNL     1      -2.172 -10.559  15.906  0.00  0.00    +0.020 A 
ATOM     35  C   UNL     1      -2.294 -11.287  14.733  0.00  0.00    +0.111 A 
ENDBRANCH  21  24
ENDBRANCH  19  21
ENDBRANCH  10  19
ENDBRANCH  12  16
BRANCH  17  20
ATOM     20  C   UNL     1     -11.150  -8.518  14.663  0.00  0.00    +0.255 C 
BRANCH  20   5
ATOM      5  O   UNL     1     -11.375  -7.588  15.695  0.00  0.00    -0.374 OA
ATOM     32  C   UNL     1     -10.453  -6.501  15.647  0.00  0.00    +0.194 C 
ENDBRANCH  20   5
ENDBRANCH  17  20
TORSDOF 9
ENDMDL
MODEL 3
REMARK VINA RESULT:      -6.0      4.546      6.863
REMARK  Name = 11867599
REMARK  11 active torsions:
REMARK  status: ('A' for Active; 'I' for Inactive)
REMARK    1  A    between atoms: O_5  and  C_20
REMARK    2  A    between atoms: O_5  and  C_32
REMARK    3  A    between atoms: O_6  and  C_23
REMARK    4  A    between atoms: O_6  and  C_34
REMARK    5  A    between atoms: N_10  and  C_19
REMARK    6  A    between atoms: C_12  and  C_16
REMARK    7  A    between atoms: C_17  and  C_20
REMARK    8  A    between atoms: C_18  and  C_22
REMARK    9  A    between atoms: C_19  and  C_21
REMARK   10  A    between atoms: C_19  and  C_23
REMARK   11  A    between atoms: C_21  and  C_24
REMARK                            x       y       z     vdW  Elec       q    Type
REMARK                         _______ _______ _______ _____ _____    ______ ____
ROOT
ATOM      3  O   UNL     1       8.501   7.512   7.772  0.00  0.00    -0.273 OA
ATOM      4  O   UNL     1      12.580   8.075   2.049  0.00  0.00    -0.270 OA
ATOM      8  N   UNL     1       9.903   6.624   6.142  0.00  0.00    -0.285 N 
ATOM      9  N   UNL     1      11.419   6.836   3.655  0.00  0.00    -0.294 N 
ATOM     12  C   UNL     1       9.979   7.889   5.405  0.00  0.00    +0.179 C 
ATOM     13  C   UNL     1      11.225   7.994   4.529  0.00  0.00    +0.140 C 
ATOM     14  C   UNL     1      10.717   5.510   5.639  0.00  0.00    +0.127 C 
ATOM     15  C   UNL     1      10.894   5.550   4.126  0.00  0.00    +0.127 C 
ATOM     17  C   UNL     1       9.187   6.582   7.343  0.00  0.00    +0.242 C 
ATOM     18  C   UNL     1      12.132   7.007   2.462  0.00  0.00    +0.247 C 
ENDROOT
BRANCH  18  22
ATOM      1  F   UNL     1      14.823   3.167   1.216  0.00  0.00    -0.205 F 
ATOM     22  C   UNL     1      12.370   5.823   1.620  0.00  0.00    +0.040 A 
ATOM     25  C   UNL     1      13.507   5.040   1.821  0.00  0.00    +0.051 A 
ATOM     26  C   UNL     1      11.457   5.483   0.622  0.00  0.00    +0.013 A 
ATOM     28  C   UNL     1      13.732   3.919   1.023  0.00  0.00    +0.124 A 
ATOM     29  C   UNL     1      11.682   4.361  -0.176  0.00  0.00    +0.004 A 
ATOM     31  C   UNL     1      12.819   3.579   0.025  0.00  0.00    +0.038 A 
ENDBRANCH  18  22
BRANCH  12  16
ATOM      2  O   UNL     1       7.884   7.098   4.573  0.00  0.00    -0.274 OA
ATOM     10  N   UNL     1       8.657   9.179   3.877  0.00  0.00    -0.301 N 
ATOM     16  C   UNL     1       8.722   7.995   4.590  0.00  0.00    +0.236 C 
ATOM     36  H   UNL     1       9.399   9.866   3.983  0.00  0.00    +0.150 HD
BRANCH  10  19
ATOM     19  C   UNL     1       7.561   9.514   2.998  0.00  0.00    +0.186 C 
BRANCH  19  23
ATOM      7  O   UNL     1       6.643  11.094   4.580  0.00  0.00    -0.249 OA
ATOM     23  C   UNL     1       6.436  10.231   3.733  0.00  0.00    +0.328 C 
BRANCH  23   6
ATOM      6  O   UNL     1       5.206   9.788   3.348  0.00  0.00    -0.467 OA
ATOM     34  C   UNL     1       4.501  10.629   2.430  0.00  0.00    +0.280 C 
ENDBRANCH  23   6
ENDBRANCH  19  23
BRANCH  19  21
ATOM     21  C   UNL     1       8.034  10.300   1.766  0.00  0.00    +0.070 C 
BRANCH  21  24
ATOM     11  N   UNL     1       7.045   8.875  -1.605  0.00  0.00    -0.263 NA
ATOM     24  C   UNL     1       8.086   9.497   0.486  0.00  0.00    -0.027 A 
ATOM     27  C   UNL     1       9.165   8.666   0.204  0.00  0.00    +0.006 A 
ATOM     30  C   UNL     1       7.061   9.567  -0.443  0.00  0.00    +0.114 A 
ATOM     33  C   UNL     1       9.184   7.939  -0.981  0.00  0.00    +0.020 A 
ATOM     35  C   UNL     1       8.110   8.077  -1.844  0.00  0.00    +0.111 A 
ENDBRANCH  21  24
ENDBRANCH  19  21
ENDBRANCH  10  19
ENDBRANCH  12  16
BRANCH  17  20
ATOM     20  C   UNL     1       9.276   5.299   8.132  0.00  0.00    +0.255 C 
BRANCH  20   5
ATOM      5  O   UNL     1       9.338   5.664   9.489  0.00  0.00    -0.374 OA
ATOM     32  C   UNL     1       8.835   4.639  10.344  0.00  0.00    +0.194 C 
ENDBRANCH  20   5
ENDBRANCH  17  20
TORSDOF 9
ENDMDL
MODEL 4
REMARK VINA RESULT:      -6.0      6.119     10.447
REMARK  Name = 11867599
REMARK  11 active torsions:
REMARK  status: ('A' for Active; 'I' for Inactive)
REMARK    1  A    between atoms: O_5  and  C_20
REMARK    2  A    between atoms: O_5  and  C_32
REMARK    3  A    between atoms: O_6  and  C_23
REMARK    4  A    between atoms: O_6  and  C_34
REMARK    5  A    between atoms: N_10  and  C_19
REMARK    6  A    between atoms: C_12  and  C_16
REMARK    7  A    between atoms: C_17  and  C_20
REMARK    8  A    between atoms: C_18  and  C_22
REMARK    9  A    between atoms: C_19  and  C_21
REMARK   10  A    between atoms: C_19  and  C_23
REMARK   11  A    between atoms: C_21  and  C_24
REMARK                            x       y       z     vdW  Elec       q    Type
REMARK                         _______ _______ _______ _____ _____    ______ ____
ROOT
ATOM      3  O   UNL     1      11.719   5.839   8.173  0.00  0.00    -0.273 OA
ATOM      4  O   UNL     1       9.827  10.343   3.090  0.00  0.00    -0.270 OA
ATOM      8  N   UNL     1      10.194   6.701   6.643  0.00  0.00    -0.285 N 
ATOM      9  N   UNL     1       9.358   8.703   4.688  0.00  0.00    -0.294 N 
ATOM     12  C   UNL     1      11.083   7.798   6.254  0.00  0.00    +0.179 C 
ATOM     13  C   UNL     1      10.770   8.357   4.867  0.00  0.00    +0.140 C 
ATOM     14  C   UNL     1       8.920   6.587   5.920  0.00  0.00    +0.127 C 
ATOM     15  C   UNL     1       8.380   7.938   5.468  0.00  0.00    +0.127 C 
ATOM     17  C   UNL     1      10.651   5.751   7.562  0.00  0.00    +0.242 C 
ATOM     18  C   UNL     1       9.022   9.690   3.754  0.00  0.00    +0.247 C 
ENDROOT
BRANCH  18  22
ATOM      1  F   UNL     1       4.854  11.703   5.205  0.00  0.00    -0.205 F 
ATOM     22  C   UNL     1       7.597   9.988   3.541  0.00  0.00    +0.040 A 
ATOM     25  C   UNL     1       6.886  10.719   4.493  0.00  0.00    +0.051 A 
ATOM     26  C   UNL     1       6.955   9.539   2.387  0.00  0.00    +0.013 A 
ATOM     28  C   UNL     1       5.535  11.001   4.292  0.00  0.00    +0.124 A 
ATOM     29  C   UNL     1       5.604   9.821   2.185  0.00  0.00    +0.004 A 
ATOM     31  C   UNL     1       4.894  10.552   3.137  0.00  0.00    +0.038 A 
ENDBRANCH  18  22
BRANCH  12  16
ATOM      2  O   UNL     1      10.123   8.780   8.209  0.00  0.00    -0.274 OA
ATOM     10  N   UNL     1      11.867   9.886   7.135  0.00  0.00    -0.301 N 
ATOM     16  C   UNL     1      10.961   8.855   7.315  0.00  0.00    +0.236 C 
ATOM     36  H   UNL     1      12.535   9.835   6.371  0.00  0.00    +0.150 HD
BRANCH  10  19
ATOM     19  C   UNL     1      11.940  11.036   8.006  0.00  0.00    +0.186 C 
BRANCH  19  23
ATOM      7  O   UNL     1      13.474  12.856   8.417  0.00  0.00    -0.249 OA
ATOM     23  C   UNL     1      13.254  11.789   7.854  0.00  0.00    +0.328 C 
BRANCH  23   6
ATOM      6  O   UNL     1      14.120  11.148   7.019  0.00  0.00    -0.467 OA
ATOM     34  C   UNL     1      15.499  11.502   7.165  0.00  0.00    +0.280 C 
ENDBRANCH  23   6
ENDBRANCH  19  23
BRANCH  19  21
ATOM     21  C   UNL     1      10.725  11.960   7.836  0.00  0.00    +0.070 C 
BRANCH  21  24
ATOM     11  N   UNL     1       9.617  11.805  11.459  0.00  0.00    -0.263 NA
ATOM     24  C   UNL     1       9.874  12.121   9.076  0.00  0.00    -0.027 A 
ATOM     27  C   UNL     1       8.614  12.705   9.010  0.00  0.00    +0.006 A 
ATOM     30  C   UNL     1      10.327  11.692  10.313  0.00  0.00    +0.114 A 
ATOM     33  C   UNL     1       7.855  12.840  10.167  0.00  0.00    +0.020 A 
ATOM     35  C   UNL     1       8.397  12.377  11.355  0.00  0.00    +0.111 A 
ENDBRANCH  21  24
ENDBRANCH  19  21
ENDBRANCH  10  19
ENDBRANCH  12  16
BRANCH  17  20
ATOM     20  C   UNL     1       9.753   4.563   7.803  0.00  0.00    +0.255 C 
BRANCH  20   5
ATOM      5  O   UNL     1      10.018   4.117   9.111  0.00  0.00    -0.374 OA
ATOM     32  C   UNL     1       9.054   4.597  10.046  0.00  0.00    +0.194 C 
ENDBRANCH  20   5
ENDBRANCH  17  20
TORSDOF 9
ENDMDL
MODEL 5
REMARK VINA RESULT:      -6.0      3.772      6.897
REMARK  Name = 11867599
REMARK  11 active torsions:
REMARK  status: ('A' for Active; 'I' for Inactive)
REMARK    1  A    between atoms: O_5  and  C_20
REMARK    2  A    between atoms: O_5  and  C_32
REMARK    3  A    between atoms: O_6  and  C_23
REMARK    4  A    between atoms: O_6  and  C_34
REMARK    5  A    between atoms: N_10  and  C_19
REMARK    6  A    between atoms: C_12  and  C_16
REMARK    7  A    between atoms: C_17  and  C_20
REMARK    8  A    between atoms: C_18  and  C_22
REMARK    9  A    between atoms: C_19  and  C_21
REMARK   10  A    between atoms: C_19  and  C_23
REMARK   11  A    between atoms: C_21  and  C_24
REMARK                            x       y       z     vdW  Elec       q    Type
REMARK                         _______ _______ _______ _____ _____    ______ ____
ROOT
ATOM      3  O   UNL     1      17.069   7.754   4.377  0.00  0.00    -0.273 OA
ATOM      4  O   UNL     1      10.792   7.445   7.572  0.00  0.00    -0.270 OA
ATOM      8  N   UNL     1      15.326   8.695   5.596  0.00  0.00    -0.285 N 
ATOM      9  N   UNL     1      12.638   8.608   6.733  0.00  0.00    -0.294 N 
ATOM     12  C   UNL     1      14.493   7.495   5.481  0.00  0.00    +0.179 C 
ATOM     13  C   UNL     1      13.440   7.393   6.584  0.00  0.00    +0.140 C 
ATOM     14  C   UNL     1      14.797   9.799   6.406  0.00  0.00    +0.127 C 
ATOM     15  C   UNL     1      13.276   9.878   6.369  0.00  0.00    +0.127 C 
ATOM     17  C   UNL     1      16.617   8.677   5.059  0.00  0.00    +0.242 C 
ATOM     18  C   UNL     1      11.345   8.498   7.260  0.00  0.00    +0.247 C 
ENDROOT
BRANCH  18  22
ATOM      1  F   UNL     1       8.268  11.876   5.629  0.00  0.00    -0.205 F 
ATOM     22  C   UNL     1      10.570   9.734   7.459  0.00  0.00    +0.040 A 
ATOM     25  C   UNL     1       9.770  10.230   6.429  0.00  0.00    +0.051 A 
ATOM     26  C   UNL     1      10.634  10.409   8.678  0.00  0.00    +0.013 A 
ATOM     28  C   UNL     1       9.036  11.400   6.617  0.00  0.00    +0.124 A 
ATOM     29  C   UNL     1       9.899  11.579   8.866  0.00  0.00    +0.004 A 
ATOM     31  C   UNL     1       9.100  12.075   7.837  0.00  0.00    +0.038 A 
ENDBRANCH  18  22
BRANCH  12  16
ATOM      2  O   UNL     1      13.966   8.508   3.383  0.00  0.00    -0.274 OA
ATOM     10  N   UNL     1      13.160   6.372   3.835  0.00  0.00    -0.301 N 
ATOM     16  C   UNL     1      13.861   7.531   4.119  0.00  0.00    +0.236 C 
ATOM     36  H   UNL     1      13.158   5.613   4.510  0.00  0.00    +0.150 HD
BRANCH  10  19
ATOM     19  C   UNL     1      12.442   6.165   2.598  0.00  0.00    +0.186 C 
BRANCH  19  23
ATOM      7  O   UNL     1      13.191   6.017   0.306  0.00  0.00    -0.249 OA
ATOM     23  C   UNL     1      13.357   5.691   1.477  0.00  0.00    +0.328 C 
BRANCH  23   6
ATOM      6  O   UNL     1      14.344   4.869   1.931  0.00  0.00    -0.467 OA
ATOM     34  C   UNL     1      14.302   3.522   1.449  0.00  0.00    +0.280 C 
ENDBRANCH  23   6
ENDBRANCH  19  23
BRANCH  19  21
ATOM     21  C   UNL     1      11.235   5.234   2.787  0.00  0.00    +0.070 C 
BRANCH  21  24
ATOM     11  N   UNL     1       8.780   5.582   5.656  0.00  0.00    -0.263 NA
ATOM     24  C   UNL     1      10.138   5.791   3.666  0.00  0.00    -0.027 A 
ATOM     27  C   UNL     1       9.486   6.973   3.336  0.00  0.00    +0.006 A 
ATOM     30  C   UNL     1       9.753   5.139   4.827  0.00  0.00    +0.114 A 
ATOM     33  C   UNL     1       8.481   7.461   4.164  0.00  0.00    +0.020 A 
ATOM     35  C   UNL     1       8.169   6.734   5.302  0.00  0.00    +0.111 A 
ENDBRANCH  21  24
ENDBRANCH  19  21
ENDBRANCH  10  19
ENDBRANCH  12  16
BRANCH  17  20
ATOM     20  C   UNL     1      17.480   9.881   5.344  0.00  0.00    +0.255 C 
BRANCH  20   5
ATOM      5  O   UNL     1      18.165   9.611   6.543  0.00  0.00    -0.374 OA
ATOM     32  C   UNL     1      19.463   9.067   6.308  0.00  0.00    +0.194 C 
ENDBRANCH  20   5
ENDBRANCH  17  20
TORSDOF 9
ENDMDL
MODEL 6
REMARK VINA RESULT:      -5.9     25.239     29.106
REMARK  Name = 11867599
REMARK  11 active torsions:
REMARK  status: ('A' for Active; 'I' for Inactive)
REMARK    1  A    between atoms: O_5  and  C_20
REMARK    2  A    between atoms: O_5  and  C_32
REMARK    3  A    between atoms: O_6  and  C_23
REMARK    4  A    between atoms: O_6  and  C_34
REMARK    5  A    between atoms: N_10  and  C_19
REMARK    6  A    between atoms: C_12  and  C_16
REMARK    7  A    between atoms: C_17  and  C_20
REMARK    8  A    between atoms: C_18  and  C_22
REMARK    9  A    between atoms: C_19  and  C_21
REMARK   10  A    between atoms: C_19  and  C_23
REMARK   11  A    between atoms: C_21  and  C_24
REMARK                            x       y       z     vdW  Elec       q    Type
REMARK                         _______ _______ _______ _____ _____    ______ ____
ROOT
ATOM      3  O   UNL     1      -1.853 -14.539  14.464  0.00  0.00    -0.273 OA
ATOM      4  O   UNL     1      -2.302  -8.796  10.399  0.00  0.00    -0.270 OA
ATOM      8  N   UNL     1      -2.760 -13.327  12.698  0.00  0.00    -0.285 N 
ATOM      9  N   UNL     1      -3.077 -10.867  11.157  0.00  0.00    -0.294 N 
ATOM     12  C   UNL     1      -1.997 -12.121  13.029  0.00  0.00    +0.179 C 
ATOM     13  C   UNL     1      -1.820 -11.181  11.839  0.00  0.00    +0.140 C 
ATOM     14  C   UNL     1      -3.595 -13.277  11.491  0.00  0.00    +0.127 C 
ATOM     15  C   UNL     1      -4.136 -11.881  11.209  0.00  0.00    +0.127 C 
ATOM     17  C   UNL     1      -2.552 -14.489  13.449  0.00  0.00    +0.242 C 
ATOM     18  C   UNL     1      -3.177  -9.658  10.456  0.00  0.00    +0.247 C 
ENDROOT
BRANCH  18  22
ATOM      1  F   UNL     1      -5.901  -9.962   6.453  0.00  0.00    -0.205 F 
ATOM     22  C   UNL     1      -4.425  -9.380   9.727  0.00  0.00    +0.040 A 
ATOM     25  C   UNL     1      -4.575  -9.811   8.408  0.00  0.00    +0.051 A 
ATOM     26  C   UNL     1      -5.460  -8.687  10.355  0.00  0.00    +0.013 A 
ATOM     28  C   UNL     1      -5.757  -9.548   7.718  0.00  0.00    +0.124 A 
ATOM     29  C   UNL     1      -6.642  -8.423   9.664  0.00  0.00    +0.004 A 
ATOM     31  C   UNL     1      -6.792  -8.854   8.346  0.00  0.00    +0.038 A 
ENDBRANCH  18  22
BRANCH  12  16
ATOM      2  O   UNL     1      -2.449 -10.300  14.509  0.00  0.00    -0.274 OA
ATOM     10  N   UNL     1      -3.667 -12.269  14.743  0.00  0.00    -0.301 N 
ATOM     16  C   UNL     1      -2.718 -11.446  14.161  0.00  0.00    +0.236 C 
ATOM     36  H   UNL     1      -3.826 -13.196  14.359  0.00  0.00    +0.150 HD
BRANCH  10  19
ATOM     19  C   UNL     1      -4.482 -11.866  15.866  0.00  0.00    +0.186 C 
BRANCH  19  23
ATOM      7  O   UNL     1      -6.541 -11.551  14.641  0.00  0.00    -0.249 OA
ATOM     23  C   UNL     1      -5.719 -11.093  15.429  0.00  0.00    +0.328 C 
BRANCH  23   6
ATOM      6  O   UNL     1      -5.782  -9.857  15.999  0.00  0.00    -0.467 OA
ATOM     34  C   UNL     1      -7.008  -9.542  16.666  0.00  0.00    +0.280 C 
ENDBRANCH  23   6
ENDBRANCH  19  23
BRANCH  19  21
ATOM     21  C   UNL     1      -4.837 -13.055  16.772  0.00  0.00    +0.070 C 
BRANCH  21  24
ATOM     11  N   UNL     1      -6.300 -11.618  19.962  0.00  0.00    -0.263 NA
ATOM     24  C   UNL     1      -5.825 -12.738  17.872  0.00  0.00    -0.027 A 
ATOM     27  C   UNL     1      -7.121 -13.240  17.838  0.00  0.00    +0.006 A 
ATOM     30  C   UNL     1      -5.466 -11.938  18.945  0.00  0.00    +0.114 A 
ATOM     33  C   UNL     1      -8.007 -12.933  18.865  0.00  0.00    +0.020 A 
ATOM     35  C   UNL     1      -7.551 -12.125  19.894  0.00  0.00    +0.111 A 
ENDBRANCH  21  24
ENDBRANCH  19  21
ENDBRANCH  10  19
ENDBRANCH  12  16
BRANCH  17  20
ATOM     20  C   UNL     1      -3.247 -15.736  12.963  0.00  0.00    +0.255 C 
BRANCH  20   5
ATOM      5  O   UNL     1      -4.126 -16.132  13.987  0.00  0.00    -0.374 OA
ATOM     32  C   UNL     1      -5.450 -15.642  13.777  0.00  0.00    +0.194 C 
ENDBRANCH  20   5
ENDBRANCH  17  20
TORSDOF 9
ENDMDL
MODEL 7
REMARK VINA RESULT:      -5.9     23.859     26.380
REMARK  Name = 11867599
REMARK  11 active torsions:
REMARK  status: ('A' for Active; 'I' for Inactive)
REMARK    1  A    between atoms: O_5  and  C_20
REMARK    2  A    between atoms: O_5  and  C_32
REMARK    3  A    between atoms: O_6  and  C_23
REMARK    4  A    between atoms: O_6  and  C_34
REMARK    5  A    between atoms: N_10  and  C_19
REMARK    6  A    between atoms: C_12  and  C_16
REMARK    7  A    between atoms: C_17  and  C_20
REMARK    8  A    between atoms: C_18  and  C_22
REMARK    9  A    between atoms: C_19  and  C_21
REMARK   10  A    between atoms: C_19  and  C_23
REMARK   11  A    between atoms: C_21  and  C_24
REMARK                            x       y       z     vdW  Elec       q    Type
REMARK                         _______ _______ _______ _____ _____    ______ ____
ROOT
ATOM      3  O   UNL     1      -4.744 -14.916  -0.422  0.00  0.00    -0.273 OA
ATOM      4  O   UNL     1       1.583 -15.327  -3.504  0.00  0.00    -0.270 OA
ATOM      8  N   UNL     1      -3.244 -14.416  -2.128  0.00  0.00    -0.285 N 
ATOM      9  N   UNL     1      -0.562 -14.426  -3.284  0.00  0.00    -0.294 N 
ATOM     12  C   UNL     1      -2.125 -15.070  -1.443  0.00  0.00    +0.179 C 
ATOM     13  C   UNL     1      -1.012 -15.500  -2.397  0.00  0.00    +0.140 C 
ATOM     14  C   UNL     1      -2.981 -13.876  -3.468  0.00  0.00    +0.127 C 
ATOM     15  C   UNL     1      -1.545 -13.395  -3.635  0.00  0.00    +0.127 C 
ATOM     17  C   UNL     1      -4.515 -14.464  -1.546  0.00  0.00    +0.242 C 
ATOM     18  C   UNL     1       0.744 -14.472  -3.786  0.00  0.00    +0.247 C 
ENDROOT
BRANCH  18  22
ATOM      1  F   UNL     1       2.258  -9.948  -4.666  0.00  0.00    -0.205 F 
ATOM     22  C   UNL     1       1.165 -13.418  -4.722  0.00  0.00    +0.040 A 
ATOM     25  C   UNL     1       1.519 -12.157  -4.241  0.00  0.00    +0.051 A 
ATOM     26  C   UNL     1       1.212 -13.679  -6.092  0.00  0.00    +0.013 A 
ATOM     28  C   UNL     1       1.918 -11.157  -5.128  0.00  0.00    +0.124 A 
ATOM     29  C   UNL     1       1.611 -12.680  -6.979  0.00  0.00    +0.004 A 
ATOM     31  C   UNL     1       1.964 -11.419  -6.498  0.00  0.00    +0.038 A 
ENDBRANCH  18  22
BRANCH  12  16
ATOM      2  O   UNL     1      -1.766 -12.890  -0.533  0.00  0.00    -0.274 OA
ATOM     10  N   UNL     1      -0.984 -14.743   0.640  0.00  0.00    -0.301 N 
ATOM     16  C   UNL     1      -1.622 -14.103  -0.409  0.00  0.00    +0.236 C 
ATOM     36  H   UNL     1      -0.942 -15.758   0.653  0.00  0.00    +0.150 HD
BRANCH  10  19
ATOM     19  C   UNL     1      -0.391 -14.037   1.752  0.00  0.00    +0.186 C 
BRANCH  19  23
ATOM      7  O   UNL     1      -2.152 -12.694   2.719  0.00  0.00    -0.249 OA
ATOM     23  C   UNL     1      -1.419 -13.673   2.815  0.00  0.00    +0.328 C 
BRANCH  23   6
ATOM      6  O   UNL     1      -1.406 -14.544   3.863  0.00  0.00    -0.467 OA
ATOM     34  C   UNL     1      -2.680 -15.060   4.258  0.00  0.00    +0.280 C 
ENDBRANCH  23   6
ENDBRANCH  19  23
BRANCH  19  21
ATOM     21  C   UNL     1       0.802 -14.803   2.345  0.00  0.00    +0.070 C 
BRANCH  21  24
ATOM     11  N   UNL     1       4.160 -15.776   0.878  0.00  0.00    -0.263 NA
ATOM     24  C   UNL     1       2.061 -14.756   1.509  0.00  0.00    -0.027 A 
ATOM     27  C   UNL     1       2.300 -13.704   0.631  0.00  0.00    +0.006 A 
ATOM     30  C   UNL     1       3.013 -15.759   1.595  0.00  0.00    +0.114 A 
ATOM     33  C   UNL     1       3.468 -13.687  -0.124  0.00  0.00    +0.020 A 
ATOM     35  C   UNL     1       4.357 -14.738   0.035  0.00  0.00    +0.111 A 
ENDBRANCH  21  24
ENDBRANCH  19  21
ENDBRANCH  10  19
ENDBRANCH  12  16
BRANCH  17  20
ATOM     20  C   UNL     1      -5.652 -13.912  -2.370  0.00  0.00    +0.255 C 
BRANCH  20   5
ATOM      5  O   UNL     1      -5.885 -12.604  -1.908  0.00  0.00    -0.374 OA
ATOM     32  C   UNL     1      -6.744 -11.872  -2.781  0.00  0.00    +0.194 C 
ENDBRANCH  20   5
ENDBRANCH  17  20
TORSDOF 9
ENDMDL
MODEL 8
REMARK VINA RESULT:      -5.9     25.628     29.608
REMARK  Name = 11867599
REMARK  11 active torsions:
REMARK  status: ('A' for Active; 'I' for Inactive)
REMARK    1  A    between atoms: O_5  and  C_20
REMARK    2  A    between atoms: O_5  and  C_32
REMARK    3  A    between atoms: O_6  and  C_23
REMARK    4  A    between atoms: O_6  and  C_34
REMARK    5  A    between atoms: N_10  and  C_19
REMARK    6  A    between atoms: C_12  and  C_16
REMARK    7  A    between atoms: C_17  and  C_20
REMARK    8  A    between atoms: C_18  and  C_22
REMARK    9  A    between atoms: C_19  and  C_21
REMARK   10  A    between atoms: C_19  and  C_23
REMARK   11  A    between atoms: C_21  and  C_24
REMARK                            x       y       z     vdW  Elec       q    Type
REMARK                         _______ _______ _______ _____ _____    ______ ____
ROOT
ATOM      3  O   UNL     1      -7.903 -13.662  16.666  0.00  0.00    -0.273 OA
ATOM      4  O   UNL     1      -4.353 -13.668  10.575  0.00  0.00    -0.270 OA
ATOM      8  N   UNL     1      -7.272 -12.699  14.645  0.00  0.00    -0.285 N 
ATOM      9  N   UNL     1      -5.636 -12.625  12.226  0.00  0.00    -0.294 N 
ATOM     12  C   UNL     1      -6.313 -13.766  14.345  0.00  0.00    +0.179 C 
ATOM     13  C   UNL     1      -6.011 -13.894  12.853  0.00  0.00    +0.140 C 
ATOM     14  C   UNL     1      -7.457 -11.663  13.621  0.00  0.00    +0.127 C 
ATOM     15  C   UNL     1      -6.191 -11.402  12.815  0.00  0.00    +0.127 C 
ATOM     17  C   UNL     1      -8.052 -12.795  15.802  0.00  0.00    +0.242 C 
ATOM     18  C   UNL     1      -4.827 -12.654  11.084  0.00  0.00    +0.247 C 
ENDROOT
BRANCH  18  22
ATOM      1  F   UNL     1      -1.957  -8.781  10.536  0.00  0.00    -0.205 F 
ATOM     22  C   UNL     1      -4.506 -11.375  10.429  0.00  0.00    +0.040 A 
ATOM     25  C   UNL     1      -3.361 -10.669  10.800  0.00  0.00    +0.051 A 
ATOM     26  C   UNL     1      -5.345 -10.868   9.438  0.00  0.00    +0.013 A 
ATOM     28  C   UNL     1      -3.056  -9.458  10.181  0.00  0.00    +0.124 A 
ATOM     29  C   UNL     1      -5.041  -9.657   8.818  0.00  0.00    +0.004 A 
ATOM     31  C   UNL     1      -3.897  -8.952   9.189  0.00  0.00    +0.038 A 
ENDBRANCH  18  22
BRANCH  12  16
ATOM      2  O   UNL     1      -4.511 -14.328  15.810  0.00  0.00    -0.274 OA
ATOM     10  N   UNL     1      -4.678 -12.146  15.018  0.00  0.00    -0.301 N 
ATOM     16  C   UNL     1      -5.070 -13.468  15.135  0.00  0.00    +0.236 C 
ATOM     36  H   UNL     1      -5.202 -11.523  14.411  0.00  0.00    +0.150 HD
BRANCH  10  19
ATOM     19  C   UNL     1      -3.526 -11.600  15.698  0.00  0.00    +0.186 C 
BRANCH  19  23
ATOM      7  O   UNL     1      -2.171 -10.244  14.226  0.00  0.00    -0.249 OA
ATOM     23  C   UNL     1      -2.367 -11.339  14.744  0.00  0.00    +0.328 C 
BRANCH  23   6
ATOM      6  O   UNL     1      -1.612 -12.454  14.535  0.00  0.00    -0.467 OA
ATOM     34  C   UNL     1      -1.797 -13.102  13.273  0.00  0.00    +0.280 C 
ENDBRANCH  23   6
ENDBRANCH  19  23
BRANCH  19  21
ATOM     21  C   UNL     1      -3.885 -10.353  16.520  0.00  0.00    +0.070 C 
BRANCH  21  24
ATOM     11  N   UNL     1      -7.192 -10.129  18.361  0.00  0.00    -0.263 NA
ATOM     24  C   UNL     1      -4.952 -10.574  17.569  0.00  0.00    -0.027 A 
ATOM     27  C   UNL     1      -4.714 -11.384  18.673  0.00  0.00    +0.006 A 
ATOM     30  C   UNL     1      -6.196  -9.975  17.459  0.00  0.00    +0.114 A 
ATOM     33  C   UNL     1      -5.714 -11.568  19.622  0.00  0.00    +0.020 A 
ATOM     35  C   UNL     1      -6.924 -10.924  19.421  0.00  0.00    +0.111 A 
ENDBRANCH  21  24
ENDBRANCH  19  21
ENDBRANCH  10  19
ENDBRANCH  12  16
BRANCH  17  20
ATOM     20  C   UNL     1      -9.128 -11.751  15.974  0.00  0.00    +0.255 C 
BRANCH  20   5
ATOM      5  O   UNL     1      -9.749 -12.014  17.209  0.00  0.00    -0.374 OA
ATOM     32  C   UNL     1     -11.166 -12.126  17.084  0.00  0.00    +0.194 C 
ENDBRANCH  20   5
ENDBRANCH  17  20
TORSDOF 9
ENDMDL
MODEL 9
REMARK VINA RESULT:      -5.9      3.255      4.792
REMARK  Name = 11867599
REMARK  11 active torsions:
REMARK  status: ('A' for Active; 'I' for Inactive)
REMARK    1  A    between atoms: O_5  and  C_20
REMARK    2  A    between atoms: O_5  and  C_32
REMARK    3  A    between atoms: O_6  and  C_23
REMARK    4  A    between atoms: O_6  and  C_34
REMARK    5  A    between atoms: N_10  and  C_19
REMARK    6  A    between atoms: C_12  and  C_16
REMARK    7  A    between atoms: C_17  and  C_20
REMARK    8  A    between atoms: C_18  and  C_22
REMARK    9  A    between atoms: C_19  and  C_21
REMARK   10  A    between atoms: C_19  and  C_23
REMARK   11  A    between atoms: C_21  and  C_24
REMARK                            x       y       z     vdW  Elec       q    Type
REMARK                         _______ _______ _______ _____ _____    ______ ____
ROOT
ATOM      3  O   UNL     1       9.341   7.281   7.419  0.00  0.00    -0.273 OA
ATOM      4  O   UNL     1      15.135  11.131   6.273  0.00  0.00    -0.270 OA
ATOM      8  N   UNL     1      11.635   7.516   7.108  0.00  0.00    -0.285 N 
ATOM      9  N   UNL     1      13.993   9.098   6.428  0.00  0.00    -0.294 N 
ATOM     12  C   UNL     1      11.530   8.949   6.821  0.00  0.00    +0.179 C 
ATOM     13  C   UNL     1      12.831   9.706   7.078  0.00  0.00    +0.140 C 
ATOM     14  C   UNL     1      12.986   6.943   7.156  0.00  0.00    +0.127 C 
ATOM     15  C   UNL     1      13.955   7.647   6.215  0.00  0.00    +0.127 C 
ATOM     17  C   UNL     1      10.480   6.808   7.457  0.00  0.00    +0.242 C 
ATOM     18  C   UNL     1      15.084   9.914   6.102  0.00  0.00    +0.247 C 
ENDROOT
BRANCH  18  22
ATOM      1  F   UNL     1      19.573   8.114   6.482  0.00  0.00    -0.205 F 
ATOM     22  C   UNL     1      16.269   9.281   5.502  0.00  0.00    +0.040 A 
ATOM     25  C   UNL     1      17.382   8.992   6.292  0.00  0.00    +0.051 A 
ATOM     26  C   UNL     1      16.280   8.970   4.142  0.00  0.00    +0.013 A 
ATOM     28  C   UNL     1      18.505   8.392   5.723  0.00  0.00    +0.124 A 
ATOM     29  C   UNL     1      17.404   8.370   3.573  0.00  0.00    +0.004 A 
ATOM     31  C   UNL     1      18.515   8.081   4.363  0.00  0.00    +0.038 A 
ENDBRANCH  18  22
BRANCH  12  16
ATOM      2  O   UNL     1      10.918  10.169   4.859  0.00  0.00    -0.274 OA
ATOM     10  N   UNL     1      10.903   7.842   4.788  0.00  0.00    -0.301 N 
ATOM     16  C   UNL     1      11.093   9.075   5.389  0.00  0.00    +0.236 C 
ATOM     36  H   UNL     1      11.101   6.996   5.314  0.00  0.00    +0.150 HD
BRANCH  10  19
ATOM     19  C   UNL     1      10.461   7.689   3.421  0.00  0.00    +0.186 C 
BRANCH  19  23
ATOM      7  O   UNL     1      11.683   6.897   1.492  0.00  0.00    -0.249 OA
ATOM     23  C   UNL     1      11.322   6.698   2.648  0.00  0.00    +0.328 C 
BRANCH  23   6
ATOM      6  O   UNL     1      11.614   5.588   3.382  0.00  0.00    -0.467 OA
ATOM     34  C   UNL     1      11.335   4.335   2.751  0.00  0.00    +0.280 C 
ENDBRANCH  23   6
ENDBRANCH  19  23
BRANCH  19  21
ATOM     21  C   UNL     1       8.968   7.339   3.338  0.00  0.00    +0.070 C 
BRANCH  21  24
ATOM     11  N   UNL     1       6.636  10.148   4.363  0.00  0.00    -0.263 NA
ATOM     24  C   UNL     1       8.044   8.532   3.243  0.00  0.00    -0.027 A 
ATOM     27  C   UNL     1       7.742   9.110   2.015  0.00  0.00    +0.006 A 
ATOM     30  C   UNL     1       7.471   9.084   4.378  0.00  0.00    +0.114 A 
ATOM     33  C   UNL     1       6.889  10.206   1.959  0.00  0.00    +0.020 A 
ATOM     35  C   UNL     1       6.367  10.682   3.151  0.00  0.00    +0.111 A 
ENDBRANCH  21  24
ENDBRANCH  19  21
ENDBRANCH  10  19
ENDBRANCH  12  16
BRANCH  17  20
ATOM     20  C   UNL     1      10.675   5.377   7.893  0.00  0.00    +0.255 C 
BRANCH  20   5
ATOM      5  O   UNL     1      10.512   5.356   9.290  0.00  0.00    -0.374 OA
ATOM     32  C   UNL     1       9.374   4.592   9.686  0.00  0.00    +0.194 C 
ENDBRANCH  20   5
ENDBRANCH  17  20
TORSDOF 9
ENDMDL
MODEL 10
REMARK VINA RESULT:      -5.9      4.738      7.016
REMARK  Name = 11867599
REMARK  11 active torsions:
REMARK  status: ('A' for Active; 'I' for Inactive)
REMARK    1  A    between atoms: O_5  and  C_20
REMARK    2  A    between atoms: O_5  and  C_32
REMARK    3  A    between atoms: O_6  and  C_23
REMARK    4  A    between atoms: O_6  and  C_34
REMARK    5  A    between atoms: N_10  and  C_19
REMARK    6  A    between atoms: C_12  and  C_16
REMARK    7  A    between atoms: C_17  and  C_20
REMARK    8  A    between atoms: C_18  and  C_22
REMARK    9  A    between atoms: C_19  and  C_21
REMARK   10  A    between atoms: C_19  and  C_23
REMARK   11  A    between atoms: C_21  and  C_24
REMARK                            x       y       z     vdW  Elec       q    Type
REMARK                         _______ _______ _______ _____ _____    ______ ____
ROOT
ATOM      3  O   UNL     1       8.792   8.980  -0.657  0.00  0.00    -0.273 OA
ATOM      4  O   UNL     1      12.347   7.447   5.235  0.00  0.00    -0.270 OA
ATOM      8  N   UNL     1       8.936   8.667   1.643  0.00  0.00    -0.285 N 
ATOM      9  N   UNL     1      10.373   7.829   4.044  0.00  0.00    -0.294 N 
ATOM     12  C   UNL     1      10.327   8.212   1.575  0.00  0.00    +0.179 C 
ATOM     13  C   UNL     1      11.079   8.392   2.892  0.00  0.00    +0.140 C 
ATOM     14  C   UNL     1       8.342   8.796   2.981  0.00  0.00    +0.127 C 
ATOM     15  C   UNL     1       8.908   7.788   3.973  0.00  0.00    +0.127 C 
ATOM     17  C   UNL     1       8.301   9.085   0.469  0.00  0.00    +0.242 C 
ATOM     18  C   UNL     1      11.120   7.420   5.156  0.00  0.00    +0.247 C 
ENDROOT
BRANCH  18  22
ATOM      1  F   UNL     1       9.730   3.752   8.011  0.00  0.00    -0.205 F 
ATOM     22  C   UNL     1      10.393   6.910   6.330  0.00  0.00    +0.040 A 
ATOM     25  C   UNL     1      10.406   5.545   6.620  0.00  0.00    +0.051 A 
ATOM     26  C   UNL     1       9.693   7.791   7.154  0.00  0.00    +0.013 A 
ATOM     28  C   UNL     1       9.717   5.062   7.732  0.00  0.00    +0.124 A 
ATOM     29  C   UNL     1       9.004   7.308   8.266  0.00  0.00    +0.004 A 
ATOM     31  C   UNL     1       9.017   5.944   8.556  0.00  0.00    +0.038 A 
ENDBRANCH  18  22
BRANCH  12  16
ATOM      2  O   UNL     1      10.035   5.870   1.944  0.00  0.00    -0.274 OA
ATOM     10  N   UNL     1      10.605   6.610  -0.188  0.00  0.00    -0.301 N 
ATOM     16  C   UNL     1      10.294   6.771   1.151  0.00  0.00    +0.236 C 
ATOM     36  H   UNL     1      10.780   7.431  -0.761  0.00  0.00    +0.150 HD
BRANCH  10  19
ATOM     19  C   UNL     1      10.664   5.321  -0.836  0.00  0.00    +0.186 C 
BRANCH  19  23
ATOM      7  O   UNL     1       8.723   6.016  -2.097  0.00  0.00    -0.249 OA
ATOM     23  C   UNL     1       9.573   5.156  -1.886  0.00  0.00    +0.328 C 
BRANCH  23   6
ATOM      6  O   UNL     1       9.654   3.957  -2.528  0.00  0.00    -0.467 OA
ATOM     34  C   UNL     1       9.143   3.932  -3.865  0.00  0.00    +0.280 C 
ENDBRANCH  23   6
ENDBRANCH  19  23
BRANCH  19  21
ATOM     21  C   UNL     1      12.060   5.032  -1.408  0.00  0.00    +0.070 C 
BRANCH  21  24
ATOM     11  N   UNL     1      15.363   4.326   0.315  0.00  0.00    -0.263 NA
ATOM     24  C   UNL     1      13.061   4.514  -0.400  0.00  0.00    -0.027 A 
ATOM     27  C   UNL     1      12.650   3.775   0.704  0.00  0.00    +0.006 A 
ATOM     30  C   UNL     1      14.417   4.761  -0.548  0.00  0.00    +0.114 A 
ATOM     33  C   UNL     1      13.593   3.312   1.614  0.00  0.00    +0.020 A 
ATOM     35  C   UNL     1      14.925   3.612   1.376  0.00  0.00    +0.111 A 
ENDBRANCH  21  24
ENDBRANCH  19  21
ENDBRANCH  10  19
ENDBRANCH  12  16
BRANCH  17  20
ATOM     20  C   UNL     1       6.927   9.688   0.627  0.00  0.00    +0.255 C 
BRANCH  20   5
ATOM      5  O   UNL     1       6.703  10.483  -0.511  0.00  0.00    -0.374 OA
ATOM     32  C   UNL     1       5.594  10.020  -1.279  0.00  0.00    +0.194 C 
ENDBRANCH  20   5
ENDBRANCH  17  20
TORSDOF 9
ENDMDL
