MODEL 1
REMARK VINA RESULT:      -7.3      0.000      0.000
REMARK  Name = 7113976
REMARK  6 active torsions:
REMARK  status: ('A' for Active; 'I' for Inactive)
REMARK    1  A    between atoms: S_1  and  N_11
REMARK    2  A    between atoms: S_1  and  C_25
REMARK    3  A    between atoms: N_10  and  C_24
REMARK    4  A    between atoms: N_11  and  C_22
REMARK    5  A    between atoms: C_32  and  C_36
REMARK    6  A    between atoms: C_36  and  C_37
REMARK                            x       y       z     vdW  Elec       q    Type
REMARK                         _______ _______ _______ _____ _____    ______ ____
ROOT
ATOM      3  O   UNL     1      -4.535 -14.165  15.591  0.00  0.00    -0.266 OA
ATOM      4  O   UNL     1      -9.224 -11.797  15.544  0.00  0.00    -0.252 OA
ATOM      8  N   UNL     1      -7.945 -10.864  17.231  0.00  0.00    -0.284 N 
ATOM      9  N   UNL     1      -5.141 -12.369  16.969  0.00  0.00    -0.310 N 
ATOM     10  N   UNL     1      -8.210  -9.747  15.169  0.00  0.00    -0.269 N 
ATOM     12  C   UNL     1      -6.936 -12.546  18.783  0.00  0.00    +0.027 C 
ATOM     13  C   UNL     1      -5.796 -10.402  18.403  0.00  0.00    +0.054 C 
ATOM     14  C   UNL     1      -6.156 -11.431  19.470  0.00  0.00    +0.018 C 
ATOM     15  C   UNL     1      -8.213 -11.985  18.135  0.00  0.00    +0.114 C 
ATOM     16  C   UNL     1      -6.026 -13.235  17.760  0.00  0.00    +0.130 C 
ATOM     17  C   UNL     1      -7.082  -9.808  17.791  0.00  0.00    +0.119 C 
ATOM     18  C   UNL     1      -4.949 -11.024  17.307  0.00  0.00    +0.027 A 
ATOM     19  C   UNL     1      -4.046 -10.277  16.643  0.00  0.00    +0.024 A 
ATOM     20  C   UNL     1      -4.423 -12.986  15.923  0.00  0.00    +0.274 A 
ATOM     21  C   UNL     1      -8.511 -10.871  15.937  0.00  0.00    +0.306 C 
ATOM     22  C   UNL     1      -3.461 -12.105  15.213  0.00  0.00    +0.112 A 
ATOM     23  C   UNL     1      -3.278 -10.831  15.562  0.00  0.00    +0.031 A 
ATOM     38  H   UNL     1      -8.020  -8.874  15.650  0.00  0.00    +0.156 HD
ENDROOT
BRANCH  10  24
ATOM     24  C   UNL     1      -8.185  -9.657  13.755  0.00  0.00    +0.035 A 
ATOM     26  C   UNL     1      -6.968  -9.547  13.090  0.00  0.00    +0.024 A 
ATOM     27  C   UNL     1      -9.380  -9.678  13.040  0.00  0.00    +0.024 A 
ATOM     28  C   UNL     1      -6.944  -9.457  11.698  0.00  0.00    +0.013 A 
ATOM     29  C   UNL     1      -9.356  -9.589  11.648  0.00  0.00    +0.013 A 
ATOM     32  C   UNL     1      -8.138  -9.479  10.977  0.00  0.00    +0.017 A 
BRANCH  32  36
ATOM      7  O   UNL     1      -9.022  -8.809   8.895  0.00  0.00    -0.292 OA
ATOM     36  C   UNL     1      -8.113  -9.386   9.526  0.00  0.00    +0.160 C 
ATOM     37  C   UNL     1      -6.964 -10.001   8.736  0.00  0.00    +0.091 C 
ENDBRANCH  32  36
ENDBRANCH  10  24
BRANCH  22  11
ATOM     11  N   UNL     1      -2.695 -12.608  14.147  0.00  0.00    -0.211 N 
ATOM     39  H   UNL     1      -1.734 -12.236  14.136  0.00  0.00    +0.174 HD
BRANCH  11   1
ATOM      1  S   UNL     1      -3.439 -12.677  12.628  0.00  0.00    +0.073 S 
ATOM      5  O   UNL     1      -2.913 -13.803  11.878  0.00  0.00    -0.150 OA
ATOM      6  O   UNL     1      -4.872 -12.505  12.779  0.00  0.00    -0.150 OA
BRANCH   1  25
ATOM      2  F   UNL     1      -3.741  -8.798   9.345  0.00  0.00    -0.205 F 
ATOM     25  C   UNL     1      -2.805 -11.205  11.883  0.00  0.00    +0.111 A 
ATOM     30  C   UNL     1      -3.542 -10.579  10.894  0.00  0.00    +0.067 A 
ATOM     31  C   UNL     1      -1.584 -10.708  12.302  0.00  0.00    +0.029 A 
ATOM     33  C   UNL     1      -3.042  -9.418  10.305  0.00  0.00    +0.125 A 
ATOM     34  C   UNL     1      -1.083  -9.547  11.712  0.00  0.00    +0.005 A 
ATOM     35  C   UNL     1      -1.812  -8.902  10.714  0.00  0.00    +0.038 A 
ENDBRANCH   1  25
ENDBRANCH  11   1
ENDBRANCH  22  11
TORSDOF 5
ENDMDL
MODEL 2
REMARK VINA RESULT:      -7.2     24.635     28.126
REMARK  Name = 7113976
REMARK  6 active torsions:
REMARK  status: ('A' for Active; 'I' for Inactive)
REMARK    1  A    between atoms: S_1  and  N_11
REMARK    2  A    between atoms: S_1  and  C_25
REMARK    3  A    between atoms: N_10  and  C_24
REMARK    4  A    between atoms: N_11  and  C_22
REMARK    5  A    between atoms: C_32  and  C_36
REMARK    6  A    between atoms: C_36  and  C_37
REMARK                            x       y       z     vdW  Elec       q    Type
REMARK                         _______ _______ _______ _____ _____    ______ ____
ROOT
ATOM      3  O   UNL     1      14.284   6.564   6.948  0.00  0.00    -0.266 OA
ATOM      4  O   UNL     1      10.152   3.985   4.981  0.00  0.00    -0.252 OA
ATOM      8  N   UNL     1       9.476   6.118   5.570  0.00  0.00    -0.284 N 
ATOM      9  N   UNL     1      12.163   7.499   6.606  0.00  0.00    -0.310 N 
ATOM     10  N   UNL     1       9.921   5.581   3.316  0.00  0.00    -0.269 N 
ATOM     12  C   UNL     1      10.087   6.763   7.908  0.00  0.00    +0.027 C 
ATOM     13  C   UNL     1       9.888   8.499   6.179  0.00  0.00    +0.054 C 
ATOM     14  C   UNL     1       9.586   8.177   7.640  0.00  0.00    +0.018 C 
ATOM     15  C   UNL     1       9.374   5.759   6.986  0.00  0.00    +0.114 C 
ATOM     16  C   UNL     1      11.609   6.730   7.729  0.00  0.00    +0.130 C 
ATOM     17  C   UNL     1       9.132   7.518   5.259  0.00  0.00    +0.119 C 
ATOM     18  C   UNL     1      11.378   8.417   5.897  0.00  0.00    +0.027 A 
ATOM     19  C   UNL     1      11.931   9.197   4.949  0.00  0.00    +0.024 A 
ATOM     20  C   UNL     1      13.541   7.340   6.349  0.00  0.00    +0.274 A 
ATOM     21  C   UNL     1       9.880   5.138   4.637  0.00  0.00    +0.306 C 
ATOM     22  C   UNL     1      14.087   8.210   5.277  0.00  0.00    +0.112 A 
ATOM     23  C   UNL     1      13.328   9.092   4.627  0.00  0.00    +0.031 A 
ATOM     38  H   UNL     1       9.300   6.335   3.042  0.00  0.00    +0.156 HD
ENDROOT
BRANCH  10  24
ATOM     24  C   UNL     1      10.710   5.058   2.261  0.00  0.00    +0.035 A 
ATOM     26  C   UNL     1      12.067   4.825   2.462  0.00  0.00    +0.024 A 
ATOM     27  C   UNL     1      10.123   4.781   1.030  0.00  0.00    +0.024 A 
ATOM     28  C   UNL     1      12.844   4.310   1.423  0.00  0.00    +0.013 A 
ATOM     29  C   UNL     1      10.899   4.266  -0.009  0.00  0.00    +0.013 A 
ATOM     32  C   UNL     1      12.259   4.031   0.188  0.00  0.00    +0.017 A 
BRANCH  32  36
ATOM      7  O   UNL     1      14.295   3.712  -0.959  0.00  0.00    -0.292 OA
ATOM     36  C   UNL     1      13.069   3.494  -0.894  0.00  0.00    +0.160 C 
ATOM     37  C   UNL     1      12.428   2.646  -1.986  0.00  0.00    +0.091 C 
ENDBRANCH  32  36
ENDBRANCH  10  24
BRANCH  22  11
ATOM     11  N   UNL     1      15.447   8.133   4.928  0.00  0.00    -0.211 N 
ATOM     39  H   UNL     1      15.882   7.244   5.212  0.00  0.00    +0.174 HD
BRANCH  11   1
ATOM      1  S   UNL     1      16.396   9.505   5.218  0.00  0.00    +0.073 S 
ATOM      5  O   UNL     1      16.387  10.362   4.047  0.00  0.00    -0.150 OA
ATOM      6  O   UNL     1      16.078  10.050   6.525  0.00  0.00    -0.150 OA
BRANCH   1  25
ATOM      2  F   UNL     1      20.692   8.419   7.725  0.00  0.00    -0.205 F 
ATOM     25  C   UNL     1      18.003   8.776   5.326  0.00  0.00    +0.111 A 
ATOM     30  C   UNL     1      18.717   8.891   6.506  0.00  0.00    +0.067 A 
ATOM     31  C   UNL     1      18.517   8.109   4.229  0.00  0.00    +0.029 A 
ATOM     33  C   UNL     1      19.985   8.317   6.591  0.00  0.00    +0.125 A 
ATOM     34  C   UNL     1      19.786   7.536   4.314  0.00  0.00    +0.005 A 
ATOM     35  C   UNL     1      20.520   7.640   5.495  0.00  0.00    +0.038 A 
ENDBRANCH   1  25
ENDBRANCH  11   1
ENDBRANCH  22  11
TORSDOF 5
ENDMDL
MODEL 3
REMARK VINA RESULT:      -7.0      2.520      3.535
REMARK  Name = 7113976
REMARK  6 active torsions:
REMARK  status: ('A' for Active; 'I' for Inactive)
REMARK    1  A    between atoms: S_1  and  N_11
REMARK    2  A    between atoms: S_1  and  C_25
REMARK    3  A    between atoms: N_10  and  C_24
REMARK    4  A    between atoms: N_11  and  C_22
REMARK    5  A    between atoms: C_32  and  C_36
REMARK    6  A    between atoms: C_36  and  C_37
REMARK                            x       y       z     vdW  Elec       q    Type
REMARK                         _______ _______ _______ _____ _____    ______ ____
ROOT
ATOM      3  O   UNL     1      -6.848 -13.725  14.605  0.00  0.00    -0.266 OA
ATOM      4  O   UNL     1      -9.226 -11.150  18.517  0.00  0.00    -0.252 OA
ATOM      8  N   UNL     1      -6.941 -10.841  18.714  0.00  0.00    -0.284 N 
ATOM      9  N   UNL     1      -5.753 -12.381  16.181  0.00  0.00    -0.310 N 
ATOM     10  N   UNL     1      -8.304  -9.151  17.790  0.00  0.00    -0.269 N 
ATOM     12  C   UNL     1      -5.626 -12.968  18.668  0.00  0.00    +0.027 C 
ATOM     13  C   UNL     1      -4.603 -10.886  17.854  0.00  0.00    +0.054 C 
ATOM     14  C   UNL     1      -4.335 -12.159  18.652  0.00  0.00    +0.018 C 
ATOM     15  C   UNL     1      -6.756 -12.159  19.326  0.00  0.00    +0.114 C 
ATOM     16  C   UNL     1      -5.973 -13.382  17.233  0.00  0.00    +0.130 C 
ATOM     17  C   UNL     1      -5.705 -10.056  18.546  0.00  0.00    +0.119 C 
ATOM     18  C   UNL     1      -5.026 -11.210  16.432  0.00  0.00    +0.027 A 
ATOM     19  C   UNL     1      -4.734 -10.361  15.429  0.00  0.00    +0.024 A 
ATOM     20  C   UNL     1      -6.220 -12.707  14.890  0.00  0.00    +0.274 A 
ATOM     21  C   UNL     1      -8.240 -10.429  18.342  0.00  0.00    +0.306 C 
ATOM     22  C   UNL     1      -5.888 -11.720  13.832  0.00  0.00    +0.112 A 
ATOM     23  C   UNL     1      -5.178 -10.621  14.086  0.00  0.00    +0.031 A 
ATOM     38  H   UNL     1      -7.602  -8.472  18.066  0.00  0.00    +0.156 HD
ENDROOT
BRANCH  10  24
ATOM     24  C   UNL     1      -9.289  -8.649  16.903  0.00  0.00    +0.035 A 
ATOM     26  C   UNL     1     -10.206  -7.703  17.350  0.00  0.00    +0.024 A 
ATOM     27  C   UNL     1      -9.334  -9.108  15.589  0.00  0.00    +0.024 A 
ATOM     28  C   UNL     1     -11.176  -7.210  16.477  0.00  0.00    +0.013 A 
ATOM     29  C   UNL     1     -10.304  -8.615  14.716  0.00  0.00    +0.013 A 
ATOM     32  C   UNL     1     -11.225  -7.666  15.160  0.00  0.00    +0.017 A 
BRANCH  32  36
ATOM      7  O   UNL     1     -12.532  -7.755  13.198  0.00  0.00    -0.292 OA
ATOM     36  C   UNL     1     -12.235  -7.152  14.249  0.00  0.00    +0.160 C 
ATOM     37  C   UNL     1     -12.961  -5.848  14.562  0.00  0.00    +0.091 C 
ENDBRANCH  32  36
ENDBRANCH  10  24
BRANCH  22  11
ATOM     11  N   UNL     1      -6.308 -11.935  12.507  0.00  0.00    -0.211 N 
ATOM     39  H   UNL     1      -7.244 -12.361  12.450  0.00  0.00    +0.174 HD
BRANCH  11   1
ATOM      1  S   UNL     1      -5.173 -12.586  11.434  0.00  0.00    +0.073 S 
ATOM      5  O   UNL     1      -4.032 -13.090  12.176  0.00  0.00    -0.150 OA
ATOM      6  O   UNL     1      -5.845 -13.431  10.465  0.00  0.00    -0.150 OA
BRANCH   1  25
ATOM      2  F   UNL     1      -1.803  -8.886  10.496  0.00  0.00    -0.205 F 
ATOM     25  C   UNL     1      -4.646 -11.126  10.586  0.00  0.00    +0.111 A 
ATOM     30  C   UNL     1      -3.411 -10.581  10.886  0.00  0.00    +0.067 A 
ATOM     31  C   UNL     1      -5.482 -10.555   9.642  0.00  0.00    +0.029 A 
ATOM     33  C   UNL     1      -2.996  -9.428  10.219  0.00  0.00    +0.125 A 
ATOM     34  C   UNL     1      -5.067  -9.402   8.975  0.00  0.00    +0.005 A 
ATOM     35  C   UNL     1      -3.824  -8.839   9.263  0.00  0.00    +0.038 A 
ENDBRANCH   1  25
ENDBRANCH  11   1
ENDBRANCH  22  11
TORSDOF 5
ENDMDL
MODEL 4
REMARK VINA RESULT:      -6.8     24.630     27.904
REMARK  Name = 7113976
REMARK  6 active torsions:
REMARK  status: ('A' for Active; 'I' for Inactive)
REMARK    1  A    between atoms: S_1  and  N_11
REMARK    2  A    between atoms: S_1  and  C_25
REMARK    3  A    between atoms: N_10  and  C_24
REMARK    4  A    between atoms: N_11  and  C_22
REMARK    5  A    between atoms: C_32  and  C_36
REMARK    6  A    between atoms: C_36  and  C_37
REMARK                            x       y       z     vdW  Elec       q    Type
REMARK                         _______ _______ _______ _____ _____    ______ ____
ROOT
ATOM      3  O   UNL     1       9.167   8.241   2.870  0.00  0.00    -0.266 OA
ATOM      4  O   UNL     1      12.447   9.592   6.744  0.00  0.00    -0.252 OA
ATOM      8  N   UNL     1      11.224   7.750   7.425  0.00  0.00    -0.284 N 
ATOM      9  N   UNL     1       9.422   7.062   4.879  0.00  0.00    -0.310 N 
ATOM     10  N   UNL     1      13.443   7.501   6.661  0.00  0.00    -0.269 N 
ATOM     12  C   UNL     1       8.752   8.020   7.155  0.00  0.00    +0.027 C 
ATOM     13  C   UNL     1       9.752   5.779   7.024  0.00  0.00    +0.054 C 
ATOM     14  C   UNL     1       8.557   6.564   7.557  0.00  0.00    +0.018 C 
ATOM     15  C   UNL     1      10.057   8.571   7.754  0.00  0.00    +0.114 C 
ATOM     16  C   UNL     1       8.732   8.123   5.625  0.00  0.00    +0.130 C 
ATOM     17  C   UNL     1      11.053   6.305   7.666  0.00  0.00    +0.119 C 
ATOM     18  C   UNL     1       9.849   5.888   5.513  0.00  0.00    +0.027 A 
ATOM     19  C   UNL     1      10.373   4.878   4.793  0.00  0.00    +0.024 A 
ATOM     20  C   UNL     1       9.538   7.242   3.484  0.00  0.00    +0.274 A 
ATOM     21  C   UNL     1      12.386   8.373   6.919  0.00  0.00    +0.306 C 
ATOM     22  C   UNL     1      10.146   6.104   2.750  0.00  0.00    +0.112 A 
ATOM     23  C   UNL     1      10.528   4.986   3.368  0.00  0.00    +0.031 A 
ATOM     38  H   UNL     1      13.505   6.647   7.204  0.00  0.00    +0.156 HD
ENDROOT
BRANCH  10  24
ATOM     24  C   UNL     1      14.503   7.689   5.739  0.00  0.00    +0.035 A 
ATOM     26  C   UNL     1      14.347   7.294   4.414  0.00  0.00    +0.024 A 
ATOM     27  C   UNL     1      15.695   8.268   6.166  0.00  0.00    +0.024 A 
ATOM     28  C   UNL     1      15.391   7.479   3.508  0.00  0.00    +0.013 A 
ATOM     29  C   UNL     1      16.740   8.453   5.260  0.00  0.00    +0.013 A 
ATOM     32  C   UNL     1      16.587   8.059   3.931  0.00  0.00    +0.017 A 
BRANCH  32  36
ATOM      7  O   UNL     1      17.479   8.232   1.754  0.00  0.00    -0.292 OA
ATOM     36  C   UNL     1      17.675   8.252   2.986  0.00  0.00    +0.160 C 
ATOM     37  C   UNL     1      19.097   8.484   3.486  0.00  0.00    +0.091 C 
ENDBRANCH  32  36
ENDBRANCH  10  24
BRANCH  22  11
ATOM     11  N   UNL     1      10.320   6.173   1.357  0.00  0.00    -0.211 N 
ATOM     39  H   UNL     1      10.177   5.265   0.891  0.00  0.00    +0.174 HD
BRANCH  11   1
ATOM      1  S   UNL     1      11.650   7.053   0.789  0.00  0.00    +0.073 S 
ATOM      5  O   UNL     1      11.307   7.701  -0.464  0.00  0.00    -0.150 OA
ATOM      6  O   UNL     1      12.225   7.823   1.876  0.00  0.00    -0.150 OA
BRANCH   1  25
ATOM      2  F   UNL     1      15.118   3.573   2.121  0.00  0.00    -0.205 F 
ATOM     25  C   UNL     1      12.776   5.743   0.414  0.00  0.00    +0.111 A 
ATOM     30  C   UNL     1      13.510   5.171   1.438  0.00  0.00    +0.067 A 
ATOM     31  C   UNL     1      12.904   5.317  -0.896  0.00  0.00    +0.029 A 
ATOM     33  C   UNL     1      14.399   4.138   1.143  0.00  0.00    +0.125 A 
ATOM     34  C   UNL     1      13.794   4.284  -1.192  0.00  0.00    +0.005 A 
ATOM     35  C   UNL     1      14.542   3.695  -0.172  0.00  0.00    +0.038 A 
ENDBRANCH   1  25
ENDBRANCH  11   1
ENDBRANCH  22  11
TORSDOF 5
ENDMDL
MODEL 5
REMARK VINA RESULT:      -6.7     24.759     27.824
REMARK  Name = 7113976
REMARK  6 active torsions:
REMARK  status: ('A' for Active; 'I' for Inactive)
REMARK    1  A    between atoms: S_1  and  N_11
REMARK    2  A    between atoms: S_1  and  C_25
REMARK    3  A    between atoms: N_10  and  C_24
REMARK    4  A    between atoms: N_11  and  C_22
REMARK    5  A    between atoms: C_32  and  C_36
REMARK    6  A    between atoms: C_36  and  C_37
REMARK                            x       y       z     vdW  Elec       q    Type
REMARK                         _______ _______ _______ _____ _____    ______ ____
ROOT
ATOM      3  O   UNL     1       9.415   7.588   1.997  0.00  0.00    -0.266 OA
ATOM      4  O   UNL     1      12.011   9.965   5.896  0.00  0.00    -0.252 OA
ATOM      8  N   UNL     1      10.725   8.267   6.797  0.00  0.00    -0.284 N 
ATOM      9  N   UNL     1       9.364   6.918   4.242  0.00  0.00    -0.310 N 
ATOM     10  N   UNL     1      13.041   7.966   6.459  0.00  0.00    -0.269 N 
ATOM     12  C   UNL     1       8.324   8.338   6.099  0.00  0.00    +0.027 C 
ATOM     13  C   UNL     1       9.367   6.183   6.653  0.00  0.00    +0.054 C 
ATOM     14  C   UNL     1       8.090   7.005   6.798  0.00  0.00    +0.018 C 
ATOM     15  C   UNL     1       9.507   9.080   6.743  0.00  0.00    +0.114 C 
ATOM     16  C   UNL     1       8.547   8.085   4.603  0.00  0.00    +0.130 C 
ATOM     17  C   UNL     1      10.540   6.910   7.343  0.00  0.00    +0.119 C 
ATOM     18  C   UNL     1       9.702   5.946   5.191  0.00  0.00    +0.027 A 
ATOM     19  C   UNL     1      10.350   4.826   4.818  0.00  0.00    +0.024 A 
ATOM     20  C   UNL     1       9.698   6.778   2.878  0.00  0.00    +0.274 A 
ATOM     21  C   UNL     1      11.943   8.817   6.341  0.00  0.00    +0.306 C 
ATOM     22  C   UNL     1      10.434   5.535   2.534  0.00  0.00    +0.112 A 
ATOM     23  C   UNL     1      10.730   4.612   3.448  0.00  0.00    +0.031 A 
ATOM     38  H   UNL     1      13.028   7.264   7.192  0.00  0.00    +0.156 HD
ENDROOT
BRANCH  10  24
ATOM     24  C   UNL     1      14.231   7.993   5.691  0.00  0.00    +0.035 A 
ATOM     26  C   UNL     1      15.391   8.542   6.231  0.00  0.00    +0.024 A 
ATOM     27  C   UNL     1      14.234   7.470   4.401  0.00  0.00    +0.024 A 
ATOM     28  C   UNL     1      16.563   8.569   5.475  0.00  0.00    +0.013 A 
ATOM     29  C   UNL     1      15.407   7.497   3.645  0.00  0.00    +0.013 A 
ATOM     32  C   UNL     1      16.570   8.047   4.182  0.00  0.00    +0.017 A 
BRANCH  32  36
ATOM      7  O   UNL     1      17.762   8.150   2.149  0.00  0.00    -0.292 OA
ATOM     36  C   UNL     1      17.792   8.074   3.394  0.00  0.00    +0.160 C 
ATOM     37  C   UNL     1      19.151   8.008   4.080  0.00  0.00    +0.091 C 
ENDBRANCH  32  36
ENDBRANCH  10  24
BRANCH  22  11
ATOM     11  N   UNL     1      10.827   5.291   1.206  0.00  0.00    -0.211 N 
ATOM     39  H   UNL     1      10.452   4.407   0.835  0.00  0.00    +0.174 HD
BRANCH  11   1
ATOM      1  S   UNL     1      12.448   5.586   0.816  0.00  0.00    +0.073 S 
ATOM      5  O   UNL     1      12.622   6.987   0.480  0.00  0.00    -0.150 OA
ATOM      6  O   UNL     1      13.309   4.959   1.801  0.00  0.00    -0.150 OA
BRANCH   1  25
ATOM      2  F   UNL     1      11.040   1.838  -2.329  0.00  0.00    -0.205 F 
ATOM     25  C   UNL     1      12.599   4.662  -0.684  0.00  0.00    +0.111 A 
ATOM     30  C   UNL     1      11.741   3.600  -0.911  0.00  0.00    +0.067 A 
ATOM     31  C   UNL     1      13.573   5.016  -1.600  0.00  0.00    +0.029 A 
ATOM     33  C   UNL     1      11.861   2.870  -2.093  0.00  0.00    +0.125 A 
ATOM     34  C   UNL     1      13.693   4.285  -2.782  0.00  0.00    +0.005 A 
ATOM     35  C   UNL     1      12.837   3.212  -3.029  0.00  0.00    +0.038 A 
ENDBRANCH   1  25
ENDBRANCH  11   1
ENDBRANCH  22  11
TORSDOF 5
ENDMDL
MODEL 6
REMARK VINA RESULT:      -6.6     30.413     32.109
REMARK  Name = 7113976
REMARK  6 active torsions:
REMARK  status: ('A' for Active; 'I' for Inactive)
REMARK    1  A    between atoms: S_1  and  N_11
REMARK    2  A    between atoms: S_1  and  C_25
REMARK    3  A    between atoms: N_10  and  C_24
REMARK    4  A    between atoms: N_11  and  C_22
REMARK    5  A    between atoms: C_32  and  C_36
REMARK    6  A    between atoms: C_36  and  C_37
REMARK                            x       y       z     vdW  Elec       q    Type
REMARK                         _______ _______ _______ _____ _____    ______ ____
ROOT
ATOM      3  O   UNL     1      -0.781  12.365  38.962  0.00  0.00    -0.266 OA
ATOM      4  O   UNL     1      -4.144  14.733  35.695  0.00  0.00    -0.252 OA
ATOM      8  N   UNL     1      -2.138  14.417  34.585  0.00  0.00    -0.284 N 
ATOM      9  N   UNL     1      -0.334  12.870  36.718  0.00  0.00    -0.310 N 
ATOM     10  N   UNL     1      -3.963  12.972  34.197  0.00  0.00    -0.269 N 
ATOM     12  C   UNL     1      -0.146  15.265  35.837  0.00  0.00    +0.027 C 
ATOM     13  C   UNL     1       0.104  13.374  34.287  0.00  0.00    +0.054 C 
ATOM     14  C   UNL     1       0.766  14.658  34.779  0.00  0.00    +0.018 C 
ATOM     15  C   UNL     1      -1.527  15.578  35.237  0.00  0.00    +0.114 C 
ATOM     16  C   UNL     1      -0.239  14.303  37.027  0.00  0.00    +0.130 C 
ATOM     17  C   UNL     1      -1.259  13.701  33.643  0.00  0.00    +0.119 C 
ATOM     18  C   UNL     1      -0.092  12.389  35.425  0.00  0.00    +0.027 A 
ATOM     19  C   UNL     1      -0.068  11.064  35.185  0.00  0.00    +0.024 A 
ATOM     20  C   UNL     1      -0.578  12.003  37.804  0.00  0.00    +0.274 A 
ATOM     21  C   UNL     1      -3.475  14.079  34.891  0.00  0.00    +0.306 C 
ATOM     22  C   UNL     1      -0.563  10.556  37.471  0.00  0.00    +0.112 A 
ATOM     23  C   UNL     1      -0.312  10.116  36.239  0.00  0.00    +0.031 A 
ATOM     38  H   UNL     1      -3.569  12.764  33.286  0.00  0.00    +0.156 HD
ENDROOT
BRANCH  10  24
ATOM     24  C   UNL     1      -5.010  12.105  34.597  0.00  0.00    +0.035 A 
ATOM     26  C   UNL     1      -6.304  12.322  34.133  0.00  0.00    +0.024 A 
ATOM     27  C   UNL     1      -4.738  11.040  35.452  0.00  0.00    +0.024 A 
ATOM     28  C   UNL     1      -7.335  11.469  34.527  0.00  0.00    +0.013 A 
ATOM     29  C   UNL     1      -5.769  10.187  35.846  0.00  0.00    +0.013 A 
ATOM     32  C   UNL     1      -7.067  10.401  35.383  0.00  0.00    +0.017 A 
BRANCH  32  36
ATOM      7  O   UNL     1      -9.243   9.508  35.208  0.00  0.00    -0.292 OA
ATOM     36  C   UNL     1      -8.141   9.511  35.793  0.00  0.00    +0.160 C 
ATOM     37  C   UNL     1      -7.943   8.553  36.962  0.00  0.00    +0.091 C 
ENDBRANCH  32  36
ENDBRANCH  10  24
BRANCH  22  11
ATOM     11  N   UNL     1      -0.803   9.598  38.472  0.00  0.00    -0.211 N 
ATOM     39  H   UNL     1       0.004   8.977  38.631  0.00  0.00    +0.174 HD
BRANCH  11   1
ATOM      1  S   UNL     1      -2.301   8.811  38.444  0.00  0.00    +0.073 S 
ATOM      5  O   UNL     1      -3.228   9.493  39.328  0.00  0.00    -0.150 OA
ATOM      6  O   UNL     1      -2.676   8.526  37.071  0.00  0.00    -0.150 OA
BRANCH   1  25
ATOM      2  F   UNL     1       0.788   4.825  39.145  0.00  0.00    -0.205 F 
ATOM     25  C   UNL     1      -1.880   7.273  39.207  0.00  0.00    +0.111 A 
ATOM     30  C   UNL     1      -0.691   6.654  38.864  0.00  0.00    +0.067 A 
ATOM     31  C   UNL     1      -2.748   6.717  40.129  0.00  0.00    +0.029 A 
ATOM     33  C   UNL     1      -0.359   5.440  39.465  0.00  0.00    +0.125 A 
ATOM     34  C   UNL     1      -2.415   5.502  40.730  0.00  0.00    +0.005 A 
ATOM     35  C   UNL     1      -1.221   4.864  40.398  0.00  0.00    +0.038 A 
ENDBRANCH   1  25
ENDBRANCH  11   1
ENDBRANCH  22  11
TORSDOF 5
ENDMDL
MODEL 7
REMARK VINA RESULT:      -6.6      3.585      6.820
REMARK  Name = 7113976
REMARK  6 active torsions:
REMARK  status: ('A' for Active; 'I' for Inactive)
REMARK    1  A    between atoms: S_1  and  N_11
REMARK    2  A    between atoms: S_1  and  C_25
REMARK    3  A    between atoms: N_10  and  C_24
REMARK    4  A    between atoms: N_11  and  C_22
REMARK    5  A    between atoms: C_32  and  C_36
REMARK    6  A    between atoms: C_36  and  C_37
REMARK                            x       y       z     vdW  Elec       q    Type
REMARK                         _______ _______ _______ _____ _____    ______ ____
ROOT
ATOM      3  O   UNL     1      -8.472  -8.179  17.309  0.00  0.00    -0.266 OA
ATOM      4  O   UNL     1      -3.694 -10.307  16.831  0.00  0.00    -0.252 OA
ATOM      8  N   UNL     1      -5.155 -11.940  17.574  0.00  0.00    -0.284 N 
ATOM      9  N   UNL     1      -7.974 -10.441  17.660  0.00  0.00    -0.310 N 
ATOM     10  N   UNL     1      -4.509 -11.850  15.306  0.00  0.00    -0.269 N 
ATOM     12  C   UNL     1      -6.493 -11.264  19.576  0.00  0.00    +0.027 C 
ATOM     13  C   UNL     1      -7.426 -12.881  17.979  0.00  0.00    +0.054 C 
ATOM     14  C   UNL     1      -7.298 -12.553  19.463  0.00  0.00    +0.018 C 
ATOM     15  C   UNL     1      -5.099 -11.447  18.952  0.00  0.00    +0.114 C 
ATOM     16  C   UNL     1      -7.277 -10.126  18.913  0.00  0.00    +0.130 C 
ATOM     17  C   UNL     1      -6.027 -13.111  17.369  0.00  0.00    +0.119 C 
ATOM     18  C   UNL     1      -8.132 -11.765  17.230  0.00  0.00    +0.027 A 
ATOM     19  C   UNL     1      -8.874 -12.044  16.141  0.00  0.00    +0.024 A 
ATOM     20  C   UNL     1      -8.561  -9.358  16.972  0.00  0.00    +0.274 A 
ATOM     21  C   UNL     1      -4.400 -11.285  16.576  0.00  0.00    +0.306 C 
ATOM     22  C   UNL     1      -9.346  -9.728  15.767  0.00  0.00    +0.112 A 
ATOM     23  C   UNL     1      -9.501 -10.995  15.384  0.00  0.00    +0.031 A 
ATOM     38  H   UNL     1      -4.716 -12.841  15.237  0.00  0.00    +0.156 HD
ENDROOT
BRANCH  10  24
ATOM     24  C   UNL     1      -4.312 -11.203  14.061  0.00  0.00    +0.035 A 
ATOM     26  C   UNL     1      -3.054 -11.217  13.465  0.00  0.00    +0.024 A 
ATOM     27  C   UNL     1      -5.377 -10.557  13.440  0.00  0.00    +0.024 A 
ATOM     28  C   UNL     1      -2.859 -10.580  12.240  0.00  0.00    +0.013 A 
ATOM     29  C   UNL     1      -5.183  -9.919  12.215  0.00  0.00    +0.013 A 
ATOM     32  C   UNL     1      -3.924  -9.931  11.615  0.00  0.00    +0.017 A 
BRANCH  32  36
ATOM      7  O   UNL     1      -2.586  -8.908   9.963  0.00  0.00    -0.292 OA
ATOM     36  C   UNL     1      -3.721  -9.267  10.337  0.00  0.00    +0.160 C 
ATOM     37  C   UNL     1      -4.905  -8.990   9.418  0.00  0.00    +0.091 C 
ENDBRANCH  32  36
ENDBRANCH  10  24
BRANCH  22  11
ATOM     11  N   UNL     1      -9.970  -8.730  14.996  0.00  0.00    -0.211 N 
ATOM     39  H   UNL     1      -9.340  -7.946  14.773  0.00  0.00    +0.174 HD
BRANCH  11   1
ATOM      1  S   UNL     1     -11.533  -8.268  15.453  0.00  0.00    +0.073 S 
ATOM      5  O   UNL     1     -12.410  -9.424  15.429  0.00  0.00    -0.150 OA
ATOM      6  O   UNL     1     -11.468  -7.426  16.632  0.00  0.00    -0.150 OA
BRANCH   1  25
ATOM      2  F   UNL     1     -12.332  -3.716  13.319  0.00  0.00    -0.205 F 
ATOM     25  C   UNL     1     -11.983  -7.236  14.090  0.00  0.00    +0.111 A 
ATOM     30  C   UNL     1     -11.976  -5.862  14.254  0.00  0.00    +0.067 A 
ATOM     31  C   UNL     1     -12.336  -7.822  12.887  0.00  0.00    +0.029 A 
ATOM     33  C   UNL     1     -12.332  -5.048  13.179  0.00  0.00    +0.125 A 
ATOM     34  C   UNL     1     -12.692  -7.007  11.812  0.00  0.00    +0.005 A 
ATOM     35  C   UNL     1     -12.691  -5.620  11.958  0.00  0.00    +0.038 A 
ENDBRANCH   1  25
ENDBRANCH  11   1
ENDBRANCH  22  11
TORSDOF 5
ENDMDL
MODEL 8
REMARK VINA RESULT:      -6.3      2.895      7.902
REMARK  Name = 7113976
REMARK  6 active torsions:
REMARK  status: ('A' for Active; 'I' for Inactive)
REMARK    1  A    between atoms: S_1  and  N_11
REMARK    2  A    between atoms: S_1  and  C_25
REMARK    3  A    between atoms: N_10  and  C_24
REMARK    4  A    between atoms: N_11  and  C_22
REMARK    5  A    between atoms: C_32  and  C_36
REMARK    6  A    between atoms: C_36  and  C_37
REMARK                            x       y       z     vdW  Elec       q    Type
REMARK                         _______ _______ _______ _____ _____    ______ ____
ROOT
ATOM      3  O   UNL     1      -8.313 -12.659  11.101  0.00  0.00    -0.266 OA
ATOM      4  O   UNL     1      -3.205 -12.807  12.317  0.00  0.00    -0.252 OA
ATOM      8  N   UNL     1      -3.553 -11.087  10.809  0.00  0.00    -0.284 N 
ATOM      9  N   UNL     1      -6.711 -11.131  10.335  0.00  0.00    -0.310 N 
ATOM     10  N   UNL     1      -3.308 -10.631  13.111  0.00  0.00    -0.269 N 
ATOM     12  C   UNL     1      -4.805 -11.780   8.757  0.00  0.00    +0.027 C 
ATOM     13  C   UNL     1      -4.980  -9.466   9.567  0.00  0.00    +0.054 C 
ATOM     14  C   UNL     1      -4.862 -10.324   8.311  0.00  0.00    +0.018 C 
ATOM     15  C   UNL     1      -3.591 -12.012   9.673  0.00  0.00    +0.114 C 
ATOM     16  C   UNL     1      -6.125 -12.143   9.447  0.00  0.00    +0.130 C 
ATOM     17  C   UNL     1      -3.737  -9.667  10.459  0.00  0.00    +0.119 C 
ATOM     18  C   UNL     1      -6.233  -9.815  10.352  0.00  0.00    +0.027 A 
ATOM     19  C   UNL     1      -6.856  -8.872  11.085  0.00  0.00    +0.024 A 
ATOM     20  C   UNL     1      -7.837 -11.525  11.088  0.00  0.00    +0.274 A 
ATOM     21  C   UNL     1      -3.350 -11.600  12.109  0.00  0.00    +0.306 C 
ATOM     22  C   UNL     1      -8.465 -10.448  11.894  0.00  0.00    +0.112 A 
ATOM     23  C   UNL     1      -8.008  -9.196  11.882  0.00  0.00    +0.031 A 
ATOM     38  H   UNL     1      -2.996  -9.698  12.865  0.00  0.00    +0.156 HD
ENDROOT
BRANCH  10  24
ATOM     24  C   UNL     1      -3.608 -10.807  14.485  0.00  0.00    +0.035 A 
ATOM     26  C   UNL     1      -2.576 -10.880  15.415  0.00  0.00    +0.024 A 
ATOM     27  C   UNL     1      -4.935 -10.908  14.896  0.00  0.00    +0.024 A 
ATOM     28  C   UNL     1      -2.872 -11.053  16.768  0.00  0.00    +0.013 A 
ATOM     29  C   UNL     1      -5.230 -11.082  16.248  0.00  0.00    +0.013 A 
ATOM     32  C   UNL     1      -4.199 -11.154  17.184  0.00  0.00    +0.017 A 
BRANCH  32  36
ATOM      7  O   UNL     1      -3.711 -11.906  19.365  0.00  0.00    -0.292 OA
ATOM     36  C   UNL     1      -4.507 -11.335  18.593  0.00  0.00    +0.160 C 
ATOM     37  C   UNL     1      -5.826 -10.826  19.164  0.00  0.00    +0.091 C 
ENDBRANCH  32  36
ENDBRANCH  10  24
BRANCH  22  11
ATOM     11  N   UNL     1      -9.590 -10.726  12.691  0.00  0.00    -0.211 N 
ATOM     39  H   UNL     1     -10.266  -9.949  12.712  0.00  0.00    +0.174 HD
BRANCH  11   1
ATOM      1  S   UNL     1      -9.309 -11.455  14.193  0.00  0.00    +0.073 S 
ATOM      5  O   UNL     1     -10.412 -12.340  14.520  0.00  0.00    -0.150 OA
ATOM      6  O   UNL     1      -7.943 -11.938  14.253  0.00  0.00    -0.150 OA
BRANCH   1  25
ATOM      2  F   UNL     1     -10.955  -6.773  15.332  0.00  0.00    -0.205 F 
ATOM     25  C   UNL     1      -9.423 -10.053  15.265  0.00  0.00    +0.111 A 
ATOM     30  C   UNL     1     -10.159  -8.954  14.862  0.00  0.00    +0.067 A 
ATOM     31  C   UNL     1      -8.771 -10.082  16.485  0.00  0.00    +0.029 A 
ATOM     33  C   UNL     1     -10.247  -7.847  15.706  0.00  0.00    +0.125 A 
ATOM     34  C   UNL     1      -8.859  -8.975  17.330  0.00  0.00    +0.005 A 
ATOM     35  C   UNL     1      -9.597  -7.858  16.940  0.00  0.00    +0.038 A 
ENDBRANCH   1  25
ENDBRANCH  11   1
ENDBRANCH  22  11
TORSDOF 5
ENDMDL
MODEL 9
REMARK VINA RESULT:      -6.3     20.372     23.593
REMARK  Name = 7113976
REMARK  6 active torsions:
REMARK  status: ('A' for Active; 'I' for Inactive)
REMARK    1  A    between atoms: S_1  and  N_11
REMARK    2  A    between atoms: S_1  and  C_25
REMARK    3  A    between atoms: N_10  and  C_24
REMARK    4  A    between atoms: N_11  and  C_22
REMARK    5  A    between atoms: C_32  and  C_36
REMARK    6  A    between atoms: C_36  and  C_37
REMARK                            x       y       z     vdW  Elec       q    Type
REMARK                         _______ _______ _______ _____ _____    ______ ____
ROOT
ATOM      3  O   UNL     1      -6.169  11.278   5.411  0.00  0.00    -0.266 OA
ATOM      4  O   UNL     1      -1.718  12.256   2.798  0.00  0.00    -0.252 OA
ATOM      8  N   UNL     1      -1.330  10.534   4.294  0.00  0.00    -0.284 N 
ATOM      9  N   UNL     1      -4.183  10.057   5.647  0.00  0.00    -0.310 N 
ATOM     10  N   UNL     1      -1.679  10.078   2.005  0.00  0.00    -0.269 N 
ATOM     12  C   UNL     1      -2.042  11.049   6.636  0.00  0.00    +0.027 C 
ATOM     13  C   UNL     1      -2.053   8.723   5.845  0.00  0.00    +0.054 C 
ATOM     14  C   UNL     1      -1.726   9.615   7.039  0.00  0.00    +0.018 C 
ATOM     15  C   UNL     1      -1.196  11.463   5.419  0.00  0.00    +0.114 C 
ATOM     16  C   UNL     1      -3.546  11.171   6.360  0.00  0.00    +0.130 C 
ATOM     17  C   UNL     1      -1.166   9.111   4.642  0.00  0.00    +0.119 C 
ATOM     18  C   UNL     1      -3.517   8.839   5.458  0.00  0.00    +0.027 A 
ATOM     19  C   UNL     1      -4.157   7.791   4.907  0.00  0.00    +0.024 A 
ATOM     20  C   UNL     1      -5.526  10.240   5.257  0.00  0.00    +0.274 A 
ATOM     21  C   UNL     1      -1.594  11.046   3.005  0.00  0.00    +0.306 C 
ATOM     22  C   UNL     1      -6.169   9.056   4.633  0.00  0.00    +0.112 A 
ATOM     23  C   UNL     1      -5.525   7.900   4.480  0.00  0.00    +0.031 A 
ATOM     38  H   UNL     1      -1.158   9.215   2.127  0.00  0.00    +0.156 HD
ENDROOT
BRANCH  10  24
ATOM     24  C   UNL     1      -2.383  10.172   0.779  0.00  0.00    +0.035 A 
ATOM     26  C   UNL     1      -1.691  10.086  -0.425  0.00  0.00    +0.024 A 
ATOM     27  C   UNL     1      -3.764  10.351   0.786  0.00  0.00    +0.024 A 
ATOM     28  C   UNL     1      -2.384  10.179  -1.632  0.00  0.00    +0.013 A 
ATOM     29  C   UNL     1      -4.457  10.444  -0.421  0.00  0.00    +0.013 A 
ATOM     32  C   UNL     1      -3.767  10.358  -1.629  0.00  0.00    +0.017 A 
BRANCH  32  36
ATOM      7  O   UNL     1      -5.654  10.022  -3.004  0.00  0.00    -0.292 OA
ATOM     36  C   UNL     1      -4.489  10.455  -2.887  0.00  0.00    +0.160 C 
ATOM     37  C   UNL     1      -3.832  11.093  -4.105  0.00  0.00    +0.091 C 
ENDBRANCH  32  36
ENDBRANCH  10  24
BRANCH  22  11
ATOM     11  N   UNL     1      -7.505   9.125   4.197  0.00  0.00    -0.211 N 
ATOM     39  H   UNL     1      -7.716  10.000   3.697  0.00  0.00    +0.174 HD
BRANCH  11   1
ATOM      1  S   UNL     1      -8.699   8.633   5.291  0.00  0.00    +0.073 S 
ATOM      5  O   UNL     1      -8.150   8.607   6.634  0.00  0.00    -0.150 OA
ATOM      6  O   UNL     1      -9.933   9.347   5.020  0.00  0.00    -0.150 OA
BRANCH   1  25
ATOM      2  F   UNL     1     -10.530   5.098   2.117  0.00  0.00    -0.205 F 
ATOM     25  C   UNL     1      -8.937   6.955   4.786  0.00  0.00    +0.111 A 
ATOM     30  C   UNL     1      -9.651   6.694   3.631  0.00  0.00    +0.067 A 
ATOM     31  C   UNL     1      -8.408   5.937   5.558  0.00  0.00    +0.029 A 
ATOM     33  C   UNL     1      -9.841   5.371   3.233  0.00  0.00    +0.125 A 
ATOM     34  C   UNL     1      -8.598   4.613   5.160  0.00  0.00    +0.005 A 
ATOM     35  C   UNL     1      -9.314   4.330   3.998  0.00  0.00    +0.038 A 
ENDBRANCH   1  25
ENDBRANCH  11   1
ENDBRANCH  22  11
TORSDOF 5
ENDMDL
MODEL 10
REMARK VINA RESULT:      -6.3     30.498     32.331
REMARK  Name = 7113976
REMARK  6 active torsions:
REMARK  status: ('A' for Active; 'I' for Inactive)
REMARK    1  A    between atoms: S_1  and  N_11
REMARK    2  A    between atoms: S_1  and  C_25
REMARK    3  A    between atoms: N_10  and  C_24
REMARK    4  A    between atoms: N_11  and  C_22
REMARK    5  A    between atoms: C_32  and  C_36
REMARK    6  A    between atoms: C_36  and  C_37
REMARK                            x       y       z     vdW  Elec       q    Type
REMARK                         _______ _______ _______ _____ _____    ______ ____
ROOT
ATOM      3  O   UNL     1      -1.233  10.410  40.173  0.00  0.00    -0.266 OA
ATOM      4  O   UNL     1      -3.962  13.596  37.011  0.00  0.00    -0.252 OA
ATOM      8  N   UNL     1      -1.939  13.110  35.998  0.00  0.00    -0.284 N 
ATOM      9  N   UNL     1      -0.544  11.087  38.038  0.00  0.00    -0.310 N 
ATOM     10  N   UNL     1      -3.913  12.004  35.327  0.00  0.00    -0.269 N 
ATOM     12  C   UNL     1       0.048  13.509  37.465  0.00  0.00    +0.027 C 
ATOM     13  C   UNL     1       0.151  11.784  35.717  0.00  0.00    +0.054 C 
ATOM     14  C   UNL     1       0.946  12.893  36.400  0.00  0.00    +0.018 C 
ATOM     15  C   UNL     1      -1.224  14.088  36.822  0.00  0.00    +0.114 C 
ATOM     16  C   UNL     1      -0.274  12.447  38.523  0.00  0.00    +0.130 C 
ATOM     17  C   UNL     1      -1.098  12.379  35.033  0.00  0.00    +0.119 C 
ATOM     18  C   UNL     1      -0.271  10.720  36.714  0.00  0.00    +0.027 A 
ATOM     19  C   UNL     1      -0.415   9.440  36.319  0.00  0.00    +0.024 A 
ATOM     20  C   UNL     1      -0.993  10.152  38.995  0.00  0.00    +0.274 A 
ATOM     21  C   UNL     1      -3.330  12.943  36.178  0.00  0.00    +0.306 C 
ATOM     22  C   UNL     1      -1.155   8.764  38.492  0.00  0.00    +0.112 A 
ATOM     23  C   UNL     1      -0.871   8.430  37.233  0.00  0.00    +0.031 A 
ATOM     38  H   UNL     1      -3.481  11.840  34.424  0.00  0.00    +0.156 HD
ENDROOT
BRANCH  10  24
ATOM     24  C   UNL     1      -5.099  11.263  35.554  0.00  0.00    +0.035 A 
ATOM     26  C   UNL     1      -6.288  11.658  34.947  0.00  0.00    +0.024 A 
ATOM     27  C   UNL     1      -5.069  10.145  36.383  0.00  0.00    +0.024 A 
ATOM     28  C   UNL     1      -7.456  10.929  35.171  0.00  0.00    +0.013 A 
ATOM     29  C   UNL     1      -6.238   9.416  36.607  0.00  0.00    +0.013 A 
ATOM     32  C   UNL     1      -7.431   9.808  36.001  0.00  0.00    +0.017 A 
BRANCH  32  36
ATOM      7  O   UNL     1      -8.634   7.974  36.867  0.00  0.00    -0.292 OA
ATOM     36  C   UNL     1      -8.648   9.049  36.233  0.00  0.00    +0.160 C 
ATOM     37  C   UNL     1      -9.984   9.553  35.699  0.00  0.00    +0.091 C 
ENDBRANCH  32  36
ENDBRANCH  10  24
BRANCH  22  11
ATOM     11  N   UNL     1      -1.605   7.748  39.354  0.00  0.00    -0.211 N 
ATOM     39  H   UNL     1      -2.314   8.078  40.024  0.00  0.00    +0.174 HD
BRANCH  11   1
ATOM      1  S   UNL     1      -0.431   6.726  40.019  0.00  0.00    +0.073 S 
ATOM      5  O   UNL     1      -0.077   5.698  39.057  0.00  0.00    -0.150 OA
ATOM      6  O   UNL     1       0.604   7.520  40.653  0.00  0.00    -0.150 OA
BRANCH   1  25
ATOM      2  F   UNL     1      -4.816   5.304  42.179  0.00  0.00    -0.205 F 
ATOM     25  C   UNL     1      -1.362   5.947  41.304  0.00  0.00    +0.111 A 
ATOM     30  C   UNL     1      -2.743   5.936  41.224  0.00  0.00    +0.067 A 
ATOM     31  C   UNL     1      -0.692   5.366  42.366  0.00  0.00    +0.029 A 
ATOM     33  C   UNL     1      -3.478   5.323  42.238  0.00  0.00    +0.125 A 
ATOM     34  C   UNL     1      -1.428   4.753  43.381  0.00  0.00    +0.005 A 
ATOM     35  C   UNL     1      -2.821   4.732  43.318  0.00  0.00    +0.038 A 
ENDBRANCH   1  25
ENDBRANCH  11   1
ENDBRANCH  22  11
TORSDOF 5
ENDMDL
