MODEL 1
REMARK VINA RESULT:      -7.4      0.000      0.000
REMARK  Name = 45783677
REMARK  6 active torsions:
REMARK  status: ('A' for Active; 'I' for Inactive)
REMARK    1  A    between atoms: N_2  and  C_13
REMARK    2  A    between atoms: N_3  and  C_22
REMARK    3  A    between atoms: N_7  and  C_29
REMARK    4  A    between atoms: C_9  and  C_14
REMARK    5  A    between atoms: C_13  and  C_15
REMARK    6  A    between atoms: C_20  and  C_25
REMARK                            x       y       z     vdW  Elec       q    Type
REMARK                         _______ _______ _______ _____ _____    ______ ____
ROOT
ATOM      2  N   UNL     1      -3.092 -10.717  14.542  0.00  0.00    -0.287 NA
ATOM      9  C   UNL     1      -2.779 -11.356  15.836  0.00  0.00    +0.146 C 
ATOM     10  C   UNL     1      -1.485 -10.666  16.309  0.00  0.00    +0.030 C 
ATOM     11  C   UNL     1      -1.814 -10.280  13.977  0.00  0.00    +0.085 C 
ATOM     12  C   UNL     1      -1.116  -9.703  15.191  0.00  0.00    +0.017 C 
ENDROOT
BRANCH   9  14
ATOM      1  O   UNL     1      -3.587 -11.428  18.142  0.00  0.00    -0.336 OA
ATOM      4  N   UNL     1      -5.171 -10.952  16.631  0.00  0.00    -0.190 NA
ATOM      5  N   UNL     1      -4.775 -11.261  18.864  0.00  0.00    -0.056 NA
ATOM     14  C   UNL     1      -3.909 -11.228  16.836  0.00  0.00    +0.245 A 
ATOM     20  C   UNL     1      -5.663 -10.984  17.904  0.00  0.00    +0.204 A 
BRANCH  20  25
ATOM      6  N   UNL     1      -8.938 -11.002  19.667  0.00  0.00    -0.237 NA
ATOM     25  C   UNL     1      -7.047 -10.730  18.184  0.00  0.00    +0.041 A 
ATOM     26  C   UNL     1      -7.836 -10.005  17.298  0.00  0.00    +0.017 A 
ATOM     27  C   UNL     1      -7.639 -11.203  19.344  0.00  0.00    +0.124 A 
ATOM     28  C   UNL     1      -9.176  -9.778  17.595  0.00  0.00    +0.047 A 
ATOM     29  C   UNL     1      -9.673 -10.292  18.781  0.00  0.00    +0.139 A 
BRANCH  29   7
ATOM      7  N   UNL     1     -11.007 -10.068  19.082  0.00  0.00    -0.290 N 
ATOM      8  N   UNL     1     -12.869  -9.885  20.281  0.00  0.00    -0.244 NA
ATOM     30  C   UNL     1     -11.990  -9.721  18.198  0.00  0.00    +0.114 A 
ATOM     31  C   UNL     1     -11.582 -10.155  20.319  0.00  0.00    +0.205 A 
ATOM     32  C   UNL     1     -13.128  -9.613  18.961  0.00  0.00    +0.130 A 
ENDBRANCH  29   7
ENDBRANCH  20  25
ENDBRANCH   9  14
BRANCH   2  13
ATOM     13  C   UNL     1      -3.823 -11.590  13.633  0.00  0.00    +0.122 C 
BRANCH  13  15
ATOM      3  N   UNL     1      -6.794  -9.959  12.197  0.00  0.00    -0.349 N 
ATOM     15  C   UNL     1      -4.858 -10.835  12.842  0.00  0.00    -0.008 A 
ATOM     16  C   UNL     1      -4.639 -10.111  11.636  0.00  0.00    +0.004 A 
ATOM     17  C   UNL     1      -6.191 -10.724  13.161  0.00  0.00    +0.091 A 
ATOM     18  C   UNL     1      -5.870  -9.571  11.254  0.00  0.00    +0.049 A 
ATOM     19  C   UNL     1      -3.510  -9.861  10.832  0.00  0.00    +0.010 A 
ATOM     21  C   UNL     1      -6.028  -8.793  10.102  0.00  0.00    +0.026 A 
ATOM     22  C   UNL     1      -8.200  -9.618  12.188  0.00  0.00    +0.149 C 
ATOM     23  C   UNL     1      -3.653  -9.083   9.677  0.00  0.00    +0.001 A 
ATOM     24  C   UNL     1      -4.893  -8.558   9.320  0.00  0.00    +0.002 A 
ENDBRANCH  13  15
ENDBRANCH   2  13
TORSDOF 5
ENDMDL
MODEL 2
REMARK VINA RESULT:      -7.4      3.196      8.709
REMARK  Name = 45783677
REMARK  6 active torsions:
REMARK  status: ('A' for Active; 'I' for Inactive)
REMARK    1  A    between atoms: N_2  and  C_13
REMARK    2  A    between atoms: N_3  and  C_22
REMARK    3  A    between atoms: N_7  and  C_29
REMARK    4  A    between atoms: C_9  and  C_14
REMARK    5  A    between atoms: C_13  and  C_15
REMARK    6  A    between atoms: C_20  and  C_25
REMARK                            x       y       z     vdW  Elec       q    Type
REMARK                         _______ _______ _______ _____ _____    ______ ____
ROOT
ATOM      2  N   UNL     1      -3.474 -11.784  14.166  0.00  0.00    -0.287 NA
ATOM      9  C   UNL     1      -2.501 -11.750  13.055  0.00  0.00    +0.146 C 
ATOM     10  C   UNL     1      -2.317 -13.225  12.651  0.00  0.00    +0.030 C 
ATOM     11  C   UNL     1      -3.313 -13.086  14.815  0.00  0.00    +0.085 C 
ATOM     12  C   UNL     1      -3.176 -14.015  13.627  0.00  0.00    +0.017 C 
ENDROOT
BRANCH   9  14
ATOM      1  O   UNL     1      -2.067  -9.976  11.431  0.00  0.00    -0.336 OA
ATOM      4  N   UNL     1      -4.116 -10.869  11.284  0.00  0.00    -0.190 NA
ATOM      5  N   UNL     1      -2.712  -9.301  10.387  0.00  0.00    -0.056 NA
ATOM     14  C   UNL     1      -2.963 -10.882  11.903  0.00  0.00    +0.245 A 
ATOM     20  C   UNL     1      -3.915  -9.884  10.362  0.00  0.00    +0.204 A 
BRANCH  20  25
ATOM      6  N   UNL     1      -6.878  -8.158   8.923  0.00  0.00    -0.237 NA
ATOM     25  C   UNL     1      -4.935  -9.506   9.427  0.00  0.00    +0.041 A 
ATOM     26  C   UNL     1      -4.999 -10.084   8.163  0.00  0.00    +0.017 A 
ATOM     27  C   UNL     1      -5.889  -8.557   9.756  0.00  0.00    +0.124 A 
ATOM     28  C   UNL     1      -6.001  -9.699   7.279  0.00  0.00    +0.047 A 
ATOM     29  C   UNL     1      -6.908  -8.741   7.704  0.00  0.00    +0.139 A 
BRANCH  29   7
ATOM      7  N   UNL     1      -7.908  -8.353   6.826  0.00  0.00    -0.290 N 
ATOM      8  N   UNL     1      -9.393  -8.473   5.179  0.00  0.00    -0.244 NA
ATOM     30  C   UNL     1      -8.516  -7.130   6.779  0.00  0.00    +0.114 A 
ATOM     31  C   UNL     1      -8.467  -9.125   5.847  0.00  0.00    +0.205 A 
ATOM     32  C   UNL     1      -9.427  -7.229   5.756  0.00  0.00    +0.130 A 
ENDBRANCH  29   7
ENDBRANCH  20  25
ENDBRANCH   9  14
BRANCH   2  13
ATOM     13  C   UNL     1      -3.315 -10.680  15.102  0.00  0.00    +0.122 C 
BRANCH  13  15
ATOM      3  N   UNL     1      -6.590  -9.827  16.546  0.00  0.00    -0.349 N 
ATOM     15  C   UNL     1      -4.555 -10.462  15.927  0.00  0.00    -0.008 A 
ATOM     16  C   UNL     1      -4.762 -10.881  17.272  0.00  0.00    +0.004 A 
ATOM     17  C   UNL     1      -5.695  -9.817  15.509  0.00  0.00    +0.091 A 
ATOM     18  C   UNL     1      -6.047 -10.470  17.635  0.00  0.00    +0.049 A 
ATOM     19  C   UNL     1      -3.979 -11.572  18.216  0.00  0.00    +0.010 A 
ATOM     21  C   UNL     1      -6.588 -10.716  18.901  0.00  0.00    +0.026 A 
ATOM     22  C   UNL     1      -7.912  -9.241  16.489  0.00  0.00    +0.149 C 
ATOM     23  C   UNL     1      -4.507 -11.826  19.487  0.00  0.00    +0.001 A 
ATOM     24  C   UNL     1      -5.792 -11.404  19.822  0.00  0.00    +0.002 A 
ENDBRANCH  13  15
ENDBRANCH   2  13
TORSDOF 5
ENDMDL
MODEL 3
REMARK VINA RESULT:      -7.2     18.431     20.152
REMARK  Name = 45783677
REMARK  6 active torsions:
REMARK  status: ('A' for Active; 'I' for Inactive)
REMARK    1  A    between atoms: N_2  and  C_13
REMARK    2  A    between atoms: N_3  and  C_22
REMARK    3  A    between atoms: N_7  and  C_29
REMARK    4  A    between atoms: C_9  and  C_14
REMARK    5  A    between atoms: C_13  and  C_15
REMARK    6  A    between atoms: C_20  and  C_25
REMARK                            x       y       z     vdW  Elec       q    Type
REMARK                         _______ _______ _______ _____ _____    ______ ____
ROOT
ATOM      2  N   UNL     1     -16.460   5.623  21.277  0.00  0.00    -0.287 NA
ATOM      9  C   UNL     1     -17.654   4.854  21.684  0.00  0.00    +0.146 C 
ATOM     10  C   UNL     1     -18.176   4.222  20.380  0.00  0.00    +0.030 C 
ATOM     11  C   UNL     1     -16.675   6.010  19.882  0.00  0.00    +0.085 C 
ATOM     12  C   UNL     1     -17.251   4.740  19.289  0.00  0.00    +0.017 C 
ENDROOT
BRANCH   9  14
ATOM      1  O   UNL     1     -17.376   2.522  22.361  0.00  0.00    -0.336 OA
ATOM      4  N   UNL     1     -17.054   3.999  24.014  0.00  0.00    -0.190 NA
ATOM      5  N   UNL     1     -17.066   1.769  23.500  0.00  0.00    -0.056 NA
ATOM     14  C   UNL     1     -17.347   3.824  22.750  0.00  0.00    +0.245 A 
ATOM     20  C   UNL     1     -16.891   2.710  24.432  0.00  0.00    +0.204 A 
BRANCH  20  25
ATOM      6  N   UNL     1     -16.337   0.737  27.536  0.00  0.00    -0.237 NA
ATOM     25  C   UNL     1     -16.549   2.396  25.790  0.00  0.00    +0.041 A 
ATOM     26  C   UNL     1     -16.118   3.386  26.667  0.00  0.00    +0.017 A 
ATOM     27  C   UNL     1     -16.641   1.100  26.268  0.00  0.00    +0.124 A 
ATOM     28  C   UNL     1     -15.795   3.052  27.978  0.00  0.00    +0.047 A 
ATOM     29  C   UNL     1     -15.921   1.725  28.359  0.00  0.00    +0.139 A 
BRANCH  29   7
ATOM      7  N   UNL     1     -15.601   1.387  29.664  0.00  0.00    -0.290 N 
ATOM      8  N   UNL     1     -15.089   0.132  31.424  0.00  0.00    -0.244 NA
ATOM     30  C   UNL     1     -15.460   2.251  30.714  0.00  0.00    +0.114 A 
ATOM     31  C   UNL     1     -15.369   0.126  30.139  0.00  0.00    +0.205 A 
ATOM     32  C   UNL     1     -15.145   1.453  31.787  0.00  0.00    +0.130 A 
ENDBRANCH  29   7
ENDBRANCH  20  25
ENDBRANCH   9  14
BRANCH   2  13
ATOM     13  C   UNL     1     -16.200   6.773  22.131  0.00  0.00    +0.122 C 
BRANCH  13  15
ATOM      3  N   UNL     1     -14.459   9.601  20.546  0.00  0.00    -0.349 N 
ATOM     15  C   UNL     1     -15.262   7.754  21.479  0.00  0.00    -0.008 A 
ATOM     16  C   UNL     1     -13.896   7.527  21.147  0.00  0.00    +0.004 A 
ATOM     17  C   UNL     1     -15.578   9.037  21.098  0.00  0.00    +0.091 A 
ATOM     18  C   UNL     1     -13.417   8.702  20.563  0.00  0.00    +0.049 A 
ATOM     19  C   UNL     1     -13.021   6.434  21.288  0.00  0.00    +0.010 A 
ATOM     21  C   UNL     1     -12.100   8.837  20.111  0.00  0.00    +0.026 A 
ATOM     22  C   UNL     1     -14.397  10.950  20.025  0.00  0.00    +0.149 C 
ATOM     23  C   UNL     1     -11.700   6.554  20.840  0.00  0.00    +0.001 A 
ATOM     24  C   UNL     1     -11.249   7.739  20.261  0.00  0.00    +0.002 A 
ENDBRANCH  13  15
ENDBRANCH   2  13
TORSDOF 5
ENDMDL
MODEL 4
REMARK VINA RESULT:      -7.1      2.097      8.267
REMARK  Name = 45783677
REMARK  6 active torsions:
REMARK  status: ('A' for Active; 'I' for Inactive)
REMARK    1  A    between atoms: N_2  and  C_13
REMARK    2  A    between atoms: N_3  and  C_22
REMARK    3  A    between atoms: N_7  and  C_29
REMARK    4  A    between atoms: C_9  and  C_14
REMARK    5  A    between atoms: C_13  and  C_15
REMARK    6  A    between atoms: C_20  and  C_25
REMARK                            x       y       z     vdW  Elec       q    Type
REMARK                         _______ _______ _______ _____ _____    ______ ____
ROOT
ATOM      2  N   UNL     1     -10.330 -12.084  19.522  0.00  0.00    -0.287 NA
ATOM      9  C   UNL     1      -9.020 -12.411  20.121  0.00  0.00    +0.146 C 
ATOM     10  C   UNL     1      -8.961 -13.950  20.117  0.00  0.00    +0.030 C 
ATOM     11  C   UNL     1     -11.212 -13.214  19.817  0.00  0.00    +0.085 C 
ATOM     12  C   UNL     1     -10.303 -14.398  19.556  0.00  0.00    +0.017 C 
ENDROOT
BRANCH   9  14
ATOM      1  O   UNL     1      -7.058 -10.953  20.089  0.00  0.00    -0.336 OA
ATOM      4  N   UNL     1      -7.520 -11.911  18.116  0.00  0.00    -0.190 NA
ATOM      5  N   UNL     1      -6.080 -10.498  19.197  0.00  0.00    -0.056 NA
ATOM     14  C   UNL     1      -7.865 -11.780  19.372  0.00  0.00    +0.245 A 
ATOM     20  C   UNL     1      -6.419 -11.106  18.056  0.00  0.00    +0.204 A 
BRANCH  20  25
ATOM      6  N   UNL     1      -3.584 -11.131  15.650  0.00  0.00    -0.237 NA
ATOM     25  C   UNL     1      -5.679 -10.931  16.839  0.00  0.00    +0.041 A 
ATOM     26  C   UNL     1      -6.285 -10.411  15.700  0.00  0.00    +0.017 A 
ATOM     27  C   UNL     1      -4.339 -11.272  16.763  0.00  0.00    +0.124 A 
ATOM     28  C   UNL     1      -5.541 -10.252  14.536  0.00  0.00    +0.047 A 
ATOM     29  C   UNL     1      -4.207 -10.623  14.563  0.00  0.00    +0.139 A 
BRANCH  29   7
ATOM      7  N   UNL     1      -3.461 -10.467  13.405  0.00  0.00    -0.290 N 
ATOM      8  N   UNL     1      -2.995 -10.155  11.256  0.00  0.00    -0.244 NA
ATOM     30  C   UNL     1      -2.098 -10.488  13.310  0.00  0.00    +0.114 A 
ATOM     31  C   UNL     1      -3.956 -10.265  12.146  0.00  0.00    +0.205 A 
ATOM     32  C   UNL     1      -1.835 -10.293  11.975  0.00  0.00    +0.130 A 
ENDBRANCH  29   7
ENDBRANCH  20  25
ENDBRANCH   9  14
BRANCH   2  13
ATOM     13  C   UNL     1     -10.879 -10.821  19.998  0.00  0.00    +0.122 C 
BRANCH  13  15
ATOM      3  N   UNL     1     -13.092  -9.162  17.570  0.00  0.00    -0.349 N 
ATOM     15  C   UNL     1     -11.540 -10.046  18.889  0.00  0.00    -0.008 A 
ATOM     16  C   UNL     1     -10.886  -9.278  17.886  0.00  0.00    +0.004 A 
ATOM     17  C   UNL     1     -12.895  -9.956  18.669  0.00  0.00    +0.091 A 
ATOM     18  C   UNL     1     -11.882  -8.734  17.071  0.00  0.00    +0.049 A 
ATOM     19  C   UNL     1      -9.539  -8.992  17.592  0.00  0.00    +0.010 A 
ATOM     21  C   UNL     1     -11.596  -7.916  15.973  0.00  0.00    +0.026 A 
ATOM     22  C   UNL     1     -14.390  -8.830  17.024  0.00  0.00    +0.149 C 
ATOM     23  C   UNL     1      -9.237  -8.174  16.496  0.00  0.00    +0.001 A 
ATOM     24  C   UNL     1     -10.252  -7.646  15.701  0.00  0.00    +0.002 A 
ENDBRANCH  13  15
ENDBRANCH   2  13
TORSDOF 5
ENDMDL
MODEL 5
REMARK VINA RESULT:      -7.1      3.805      4.817
REMARK  Name = 45783677
REMARK  6 active torsions:
REMARK  status: ('A' for Active; 'I' for Inactive)
REMARK    1  A    between atoms: N_2  and  C_13
REMARK    2  A    between atoms: N_3  and  C_22
REMARK    3  A    between atoms: N_7  and  C_29
REMARK    4  A    between atoms: C_9  and  C_14
REMARK    5  A    between atoms: C_13  and  C_15
REMARK    6  A    between atoms: C_20  and  C_25
REMARK                            x       y       z     vdW  Elec       q    Type
REMARK                         _______ _______ _______ _____ _____    ______ ____
ROOT
ATOM      2  N   UNL     1      -5.602 -10.714  15.561  0.00  0.00    -0.287 NA
ATOM      9  C   UNL     1      -6.462 -10.989  16.729  0.00  0.00    +0.146 C 
ATOM     10  C   UNL     1      -5.570 -10.695  17.950  0.00  0.00    +0.030 C 
ATOM     11  C   UNL     1      -4.226 -10.958  15.996  0.00  0.00    +0.085 C 
ATOM     12  C   UNL     1      -4.214 -10.321  17.370  0.00  0.00    +0.017 C 
ENDROOT
BRANCH   9  14
ATOM      1  O   UNL     1      -8.498 -10.223  17.845  0.00  0.00    -0.336 OA
ATOM      4  N   UNL     1      -8.218  -9.396  15.781  0.00  0.00    -0.190 NA
ATOM      5  N   UNL     1      -9.601  -9.395  17.604  0.00  0.00    -0.056 NA
ATOM     14  C   UNL     1      -7.733 -10.166  16.722  0.00  0.00    +0.245 A 
ATOM     20  C   UNL     1      -9.365  -8.945  16.368  0.00  0.00    +0.204 A 
BRANCH  20  25
ATOM      6  N   UNL     1     -11.299  -5.865  15.590  0.00  0.00    -0.237 NA
ATOM     25  C   UNL     1     -10.253  -8.043  15.693  0.00  0.00    +0.041 A 
ATOM     26  C   UNL     1     -10.919  -8.426  14.534  0.00  0.00    +0.017 A 
ATOM     27  C   UNL     1     -10.475  -6.764  16.176  0.00  0.00    +0.124 A 
ATOM     28  C   UNL     1     -11.776  -7.531  13.903  0.00  0.00    +0.047 A 
ATOM     29  C   UNL     1     -11.929  -6.274  14.466  0.00  0.00    +0.139 A 
BRANCH  29   7
ATOM      7  N   UNL     1     -12.781  -5.377  13.840  0.00  0.00    -0.290 N 
ATOM      8  N   UNL     1     -13.450  -3.610  12.673  0.00  0.00    -0.244 NA
ATOM     30  C   UNL     1     -14.145  -5.448  13.801  0.00  0.00    +0.114 A 
ATOM     31  C   UNL     1     -12.410  -4.258  13.150  0.00  0.00    +0.205 A 
ATOM     32  C   UNL     1     -14.534  -4.348  13.075  0.00  0.00    +0.130 A 
ENDBRANCH  29   7
ENDBRANCH  20  25
ENDBRANCH   9  14
BRANCH   2  13
ATOM     13  C   UNL     1      -5.955 -11.505  14.390  0.00  0.00    +0.122 C 
BRANCH  13  15
ATOM      3  N   UNL     1      -6.452  -9.476  11.360  0.00  0.00    -0.349 N 
ATOM     15  C   UNL     1      -5.874 -10.696  13.122  0.00  0.00    -0.008 A 
ATOM     16  C   UNL     1      -4.694 -10.386  12.389  0.00  0.00    +0.004 A 
ATOM     17  C   UNL     1      -6.938 -10.124  12.465  0.00  0.00    +0.091 A 
ATOM     18  C   UNL     1      -5.085  -9.619  11.289  0.00  0.00    +0.049 A 
ATOM     19  C   UNL     1      -3.328 -10.684  12.558  0.00  0.00    +0.010 A 
ATOM     21  C   UNL     1      -4.174  -9.135  10.345  0.00  0.00    +0.026 A 
ATOM     22  C   UNL     1      -7.272  -8.750  10.414  0.00  0.00    +0.149 C 
ATOM     23  C   UNL     1      -2.404 -10.205  11.621  0.00  0.00    +0.001 A 
ATOM     24  C   UNL     1      -2.823  -9.442  10.533  0.00  0.00    +0.002 A 
ENDBRANCH  13  15
ENDBRANCH   2  13
TORSDOF 5
ENDMDL
MODEL 6
REMARK VINA RESULT:      -7.0     24.661     27.736
REMARK  Name = 45783677
REMARK  6 active torsions:
REMARK  status: ('A' for Active; 'I' for Inactive)
REMARK    1  A    between atoms: N_2  and  C_13
REMARK    2  A    between atoms: N_3  and  C_22
REMARK    3  A    between atoms: N_7  and  C_29
REMARK    4  A    between atoms: C_9  and  C_14
REMARK    5  A    between atoms: C_13  and  C_15
REMARK    6  A    between atoms: C_20  and  C_25
REMARK                            x       y       z     vdW  Elec       q    Type
REMARK                         _______ _______ _______ _____ _____    ______ ____
ROOT
ATOM      2  N   UNL     1       9.402   7.713   6.430  0.00  0.00    -0.287 NA
ATOM      9  C   UNL     1      10.511   6.745   6.548  0.00  0.00    +0.146 C 
ATOM     10  C   UNL     1      10.272   6.039   7.896  0.00  0.00    +0.030 C 
ATOM     11  C   UNL     1       9.014   8.065   7.796  0.00  0.00    +0.085 C 
ATOM     12  C   UNL     1       9.045   6.717   8.488  0.00  0.00    +0.017 C 
ENDROOT
BRANCH   9  14
ATOM      1  O   UNL     1      10.057   4.536   5.603  0.00  0.00    -0.336 OA
ATOM      4  N   UNL     1      11.040   5.958   4.177  0.00  0.00    -0.190 NA
ATOM      5  N   UNL     1      10.219   3.834   4.402  0.00  0.00    -0.056 NA
ATOM     14  C   UNL     1      10.566   5.778   5.384  0.00  0.00    +0.245 A 
ATOM     20  C   UNL     1      10.804   4.738   3.612  0.00  0.00    +0.204 A 
BRANCH  20  25
ATOM      6  N   UNL     1      12.749   3.508   0.690  0.00  0.00    -0.237 NA
ATOM     25  C   UNL     1      11.165   4.455   2.252  0.00  0.00    +0.041 A 
ATOM     26  C   UNL     1      10.339   4.831   1.199  0.00  0.00    +0.017 A 
ATOM     27  C   UNL     1      12.349   3.802   1.948  0.00  0.00    +0.124 A 
ATOM     28  C   UNL     1      10.716   4.545  -0.109  0.00  0.00    +0.047 A 
ATOM     29  C   UNL     1      11.919   3.888  -0.308  0.00  0.00    +0.139 A 
BRANCH  29   7
ATOM      7  N   UNL     1      12.300   3.600  -1.609  0.00  0.00    -0.290 N 
ATOM      8  N   UNL     1      12.523   2.478  -3.513  0.00  0.00    -0.244 NA
ATOM     30  C   UNL     1      13.020   4.411  -2.441  0.00  0.00    +0.114 A 
ATOM     31  C   UNL     1      12.025   2.451  -2.296  0.00  0.00    +0.205 A 
ATOM     32  C   UNL     1      13.144   3.697  -3.609  0.00  0.00    +0.130 A 
ENDBRANCH  29   7
ENDBRANCH  20  25
ENDBRANCH   9  14
BRANCH   2  13
ATOM     13  C   UNL     1       9.746   8.886   5.638  0.00  0.00    +0.122 C 
BRANCH  13  15
ATOM      3  N   UNL     1       6.785   9.847   3.675  0.00  0.00    -0.349 N 
ATOM     15  C   UNL     1       8.691   9.197   4.609  0.00  0.00    -0.008 A 
ATOM     16  C   UNL     1       8.802   9.019   3.202  0.00  0.00    +0.004 A 
ATOM     17  C   UNL     1       7.440   9.707   4.870  0.00  0.00    +0.091 A 
ATOM     18  C   UNL     1       7.593   9.436   2.640  0.00  0.00    +0.049 A 
ATOM     19  C   UNL     1       9.818   8.545   2.350  0.00  0.00    +0.010 A 
ATOM     21  C   UNL     1       7.349   9.399   1.263  0.00  0.00    +0.026 A 
ATOM     22  C   UNL     1       5.438  10.358   3.539  0.00  0.00    +0.149 C 
ATOM     23  C   UNL     1       9.588   8.503   0.970  0.00  0.00    +0.001 A 
ATOM     24  C   UNL     1       8.371   8.924   0.437  0.00  0.00    +0.002 A 
ENDBRANCH  13  15
ENDBRANCH   2  13
TORSDOF 5
ENDMDL
MODEL 7
REMARK VINA RESULT:      -6.8      2.912      8.559
REMARK  Name = 45783677
REMARK  6 active torsions:
REMARK  status: ('A' for Active; 'I' for Inactive)
REMARK    1  A    between atoms: N_2  and  C_13
REMARK    2  A    between atoms: N_3  and  C_22
REMARK    3  A    between atoms: N_7  and  C_29
REMARK    4  A    between atoms: C_9  and  C_14
REMARK    5  A    between atoms: C_13  and  C_15
REMARK    6  A    between atoms: C_20  and  C_25
REMARK                            x       y       z     vdW  Elec       q    Type
REMARK                         _______ _______ _______ _____ _____    ______ ____
ROOT
ATOM      2  N   UNL     1     -12.021 -12.112  18.824  0.00  0.00    -0.287 NA
ATOM      9  C   UNL     1     -10.961 -12.630  19.712  0.00  0.00    +0.146 C 
ATOM     10  C   UNL     1     -10.936 -14.147  19.449  0.00  0.00    +0.030 C 
ATOM     11  C   UNL     1     -12.975 -13.207  18.639  0.00  0.00    +0.085 C 
ATOM     12  C   UNL     1     -12.055 -14.395  18.448  0.00  0.00    +0.017 C 
ENDROOT
BRANCH   9  14
ATOM      1  O   UNL     1      -9.239 -11.017  20.352  0.00  0.00    -0.336 OA
ATOM      4  N   UNL     1      -8.758 -12.184  18.501  0.00  0.00    -0.190 NA
ATOM      5  N   UNL     1      -7.988 -10.561  19.919  0.00  0.00    -0.056 NA
ATOM     14  C   UNL     1      -9.620 -11.972  19.462  0.00  0.00    +0.245 A 
ATOM     20  C   UNL     1      -7.773 -11.296  18.823  0.00  0.00    +0.204 A 
BRANCH  20  25
ATOM      6  N   UNL     1      -5.356  -9.968  16.328  0.00  0.00    -0.237 NA
ATOM     25  C   UNL     1      -6.584 -11.168  18.030  0.00  0.00    +0.041 A 
ATOM     26  C   UNL     1      -5.534 -12.070  18.163  0.00  0.00    +0.017 A 
ATOM     27  C   UNL     1      -6.447 -10.144  17.107  0.00  0.00    +0.124 A 
ATOM     28  C   UNL     1      -4.395 -11.922  17.379  0.00  0.00    +0.047 A 
ATOM     29  C   UNL     1      -4.356 -10.865  16.485  0.00  0.00    +0.139 A 
BRANCH  29   7
ATOM      7  N   UNL     1      -3.222 -10.713  15.702  0.00  0.00    -0.290 N 
ATOM      8  N   UNL     1      -1.087 -10.419  15.165  0.00  0.00    -0.244 NA
ATOM     30  C   UNL     1      -3.175 -10.713  14.336  0.00  0.00    +0.114 A 
ATOM     31  C   UNL     1      -1.945 -10.532  16.155  0.00  0.00    +0.205 A 
ATOM     32  C   UNL     1      -1.848 -10.531  14.029  0.00  0.00    +0.130 A 
ENDBRANCH  29   7
ENDBRANCH  20  25
ENDBRANCH   9  14
BRANCH   2  13
ATOM     13  C   UNL     1     -12.662 -10.908  19.336  0.00  0.00    +0.122 C 
BRANCH  13  15
ATOM      3  N   UNL     1     -13.856  -8.610  16.722  0.00  0.00    -0.349 N 
ATOM     15  C   UNL     1     -12.877  -9.884  18.253  0.00  0.00    -0.008 A 
ATOM     16  C   UNL     1     -11.884  -9.047  17.670  0.00  0.00    +0.004 A 
ATOM     17  C   UNL     1     -14.078  -9.593  17.650  0.00  0.00    +0.091 A 
ATOM     18  C   UNL     1     -12.526  -8.258  16.713  0.00  0.00    +0.049 A 
ATOM     19  C   UNL     1     -10.499  -8.885  17.866  0.00  0.00    +0.010 A 
ATOM     21  C   UNL     1     -11.847  -7.311  15.938  0.00  0.00    +0.026 A 
ATOM     22  C   UNL     1     -14.884  -8.036  15.880  0.00  0.00    +0.149 C 
ATOM     23  C   UNL     1      -9.807  -7.940  17.098  0.00  0.00    +0.001 A 
ATOM     24  C   UNL     1     -10.473  -7.167  16.150  0.00  0.00    +0.002 A 
ENDBRANCH  13  15
ENDBRANCH   2  13
TORSDOF 5
ENDMDL
MODEL 8
REMARK VINA RESULT:      -6.8      5.296      8.778
REMARK  Name = 45783677
REMARK  6 active torsions:
REMARK  status: ('A' for Active; 'I' for Inactive)
REMARK    1  A    between atoms: N_2  and  C_13
REMARK    2  A    between atoms: N_3  and  C_22
REMARK    3  A    between atoms: N_7  and  C_29
REMARK    4  A    between atoms: C_9  and  C_14
REMARK    5  A    between atoms: C_13  and  C_15
REMARK    6  A    between atoms: C_20  and  C_25
REMARK                            x       y       z     vdW  Elec       q    Type
REMARK                         _______ _______ _______ _____ _____    ______ ____
ROOT
ATOM      2  N   UNL     1      -5.831 -10.116   8.155  0.00  0.00    -0.287 NA
ATOM      9  C   UNL     1      -6.176  -9.478   6.869  0.00  0.00    +0.146 C 
ATOM     10  C   UNL     1      -6.531 -10.649   5.933  0.00  0.00    +0.030 C 
ATOM     11  C   UNL     1      -5.325 -11.451   7.830  0.00  0.00    +0.085 C 
ATOM     12  C   UNL     1      -6.298 -11.904   6.761  0.00  0.00    +0.017 C 
ENDROOT
BRANCH   9  14
ATOM      1  O   UNL     1      -7.772  -7.934   5.845  0.00  0.00    -0.336 OA
ATOM      4  N   UNL     1      -7.900  -8.036   8.080  0.00  0.00    -0.190 NA
ATOM      5  N   UNL     1      -8.791  -7.049   6.217  0.00  0.00    -0.056 NA
ATOM     14  C   UNL     1      -7.302  -8.474   7.001  0.00  0.00    +0.245 A 
ATOM     20  C   UNL     1      -8.806  -7.164   7.548  0.00  0.00    +0.204 A 
BRANCH  20  25
ATOM      6  N   UNL     1     -11.563  -6.433   9.935  0.00  0.00    -0.237 NA
ATOM     25  C   UNL     1      -9.715  -6.424   8.376  0.00  0.00    +0.041 A 
ATOM     26  C   UNL     1      -9.661  -5.036   8.436  0.00  0.00    +0.017 A 
ATOM     27  C   UNL     1     -10.675  -7.070   9.137  0.00  0.00    +0.124 A 
ATOM     28  C   UNL     1     -10.557  -4.345   9.245  0.00  0.00    +0.047 A 
ATOM     29  C   UNL     1     -11.479  -5.084   9.968  0.00  0.00    +0.139 A 
BRANCH  29   7
ATOM      7  N   UNL     1     -12.374  -4.401  10.777  0.00  0.00    -0.290 N 
ATOM      8  N   UNL     1     -14.121  -3.162  11.365  0.00  0.00    -0.244 NA
ATOM     30  C   UNL     1     -12.322  -4.301  12.139  0.00  0.00    +0.114 A 
ATOM     31  C   UNL     1     -13.470  -3.701  10.358  0.00  0.00    +0.205 A 
ATOM     32  C   UNL     1     -13.410  -3.533  12.478  0.00  0.00    +0.130 A 
ENDBRANCH  29   7
ENDBRANCH  20  25
ENDBRANCH   9  14
BRANCH   2  13
ATOM     13  C   UNL     1      -4.877  -9.345   8.941  0.00  0.00    +0.122 C 
BRANCH  13  15
ATOM      3  N   UNL     1      -5.853  -9.918  12.443  0.00  0.00    -0.349 N 
ATOM     15  C   UNL     1      -4.999  -9.637  10.413  0.00  0.00    -0.008 A 
ATOM     16  C   UNL     1      -3.944 -10.013  11.291  0.00  0.00    +0.004 A 
ATOM     17  C   UNL     1      -6.159  -9.587  11.149  0.00  0.00    +0.091 A 
ATOM     18  C   UNL     1      -4.507 -10.183  12.558  0.00  0.00    +0.049 A 
ATOM     19  C   UNL     1      -2.561 -10.225  11.130  0.00  0.00    +0.010 A 
ATOM     21  C   UNL     1      -3.752 -10.556  13.676  0.00  0.00    +0.026 A 
ATOM     22  C   UNL     1      -6.817  -9.976  13.520  0.00  0.00    +0.149 C 
ATOM     23  C   UNL     1      -1.793 -10.599  12.239  0.00  0.00    +0.001 A 
ATOM     24  C   UNL     1      -2.382 -10.762  13.491  0.00  0.00    +0.002 A 
ENDBRANCH  13  15
ENDBRANCH   2  13
TORSDOF 5
ENDMDL
MODEL 9
REMARK VINA RESULT:      -6.7      3.672      5.256
REMARK  Name = 45783677
REMARK  6 active torsions:
REMARK  status: ('A' for Active; 'I' for Inactive)
REMARK    1  A    between atoms: N_2  and  C_13
REMARK    2  A    between atoms: N_3  and  C_22
REMARK    3  A    between atoms: N_7  and  C_29
REMARK    4  A    between atoms: C_9  and  C_14
REMARK    5  A    between atoms: C_13  and  C_15
REMARK    6  A    between atoms: C_20  and  C_25
REMARK                            x       y       z     vdW  Elec       q    Type
REMARK                         _______ _______ _______ _____ _____    ______ ____
ROOT
ATOM      2  N   UNL     1      -6.299 -11.107  17.141  0.00  0.00    -0.287 NA
ATOM      9  C   UNL     1      -7.345 -11.371  18.149  0.00  0.00    +0.146 C 
ATOM     10  C   UNL     1      -6.669 -11.077  19.502  0.00  0.00    +0.030 C 
ATOM     11  C   UNL     1      -5.017 -11.358  17.802  0.00  0.00    +0.085 C 
ATOM     12  C   UNL     1      -5.232 -10.716  19.157  0.00  0.00    +0.017 C 
ENDROOT
BRANCH   9  14
ATOM      1  O   UNL     1      -9.577 -10.665  18.853  0.00  0.00    -0.336 OA
ATOM      4  N   UNL     1      -8.869  -9.706  16.957  0.00  0.00    -0.190 NA
ATOM      5  N   UNL     1     -10.609  -9.814  18.439  0.00  0.00    -0.056 NA
ATOM     14  C   UNL     1      -8.591 -10.540  17.926  0.00  0.00    +0.245 A 
ATOM     20  C   UNL     1     -10.118  -9.285  17.314  0.00  0.00    +0.204 A 
BRANCH  20  25
ATOM      6  N   UNL     1     -12.476  -7.903  14.793  0.00  0.00    -0.237 NA
ATOM     25  C   UNL     1     -10.847  -8.333  16.527  0.00  0.00    +0.041 A 
ATOM     26  C   UNL     1     -10.658  -6.966  16.700  0.00  0.00    +0.017 A 
ATOM     27  C   UNL     1     -11.759  -8.747  15.570  0.00  0.00    +0.124 A 
ATOM     28  C   UNL     1     -11.378  -6.067  15.920  0.00  0.00    +0.047 A 
ATOM     29  C   UNL     1     -12.266  -6.582  14.990  0.00  0.00    +0.139 A 
BRANCH  29   7
ATOM      7  N   UNL     1     -12.986  -5.690  14.211  0.00  0.00    -0.290 N 
ATOM      8  N   UNL     1     -14.727  -4.702  13.247  0.00  0.00    -0.244 NA
ATOM     30  C   UNL     1     -12.471  -4.671  13.459  0.00  0.00    +0.114 A 
ATOM     31  C   UNL     1     -14.344  -5.669  14.051  0.00  0.00    +0.205 A 
ATOM     32  C   UNL     1     -13.564  -4.077  12.875  0.00  0.00    +0.130 A 
ENDBRANCH  29   7
ENDBRANCH  20  25
ENDBRANCH   9  14
BRANCH   2  13
ATOM     13  C   UNL     1      -6.455 -11.901  15.930  0.00  0.00    +0.122 C 
BRANCH  13  15
ATOM      3  N   UNL     1      -5.815  -9.841  12.948  0.00  0.00    -0.349 N 
ATOM     15  C   UNL     1      -5.934 -11.179  14.716  0.00  0.00    -0.008 A 
ATOM     16  C   UNL     1      -4.637 -11.310  14.145  0.00  0.00    +0.004 A 
ATOM     17  C   UNL     1      -6.635 -10.270  13.959  0.00  0.00    +0.091 A 
ATOM     18  C   UNL     1      -4.589 -10.459  13.038  0.00  0.00    +0.049 A 
ATOM     19  C   UNL     1      -3.496 -12.071  14.465  0.00  0.00    +0.010 A 
ATOM     21  C   UNL     1      -3.453 -10.333  12.232  0.00  0.00    +0.026 A 
ATOM     22  C   UNL     1      -6.199  -8.876  11.941  0.00  0.00    +0.149 C 
ATOM     23  C   UNL     1      -2.352 -11.955  13.667  0.00  0.00    +0.001 A 
ATOM     24  C   UNL     1      -2.333 -11.098  12.568  0.00  0.00    +0.002 A 
ENDBRANCH  13  15
ENDBRANCH   2  13
TORSDOF 5
ENDMDL
MODEL 10
REMARK VINA RESULT:      -6.7      1.588      2.517
REMARK  Name = 45783677
REMARK  6 active torsions:
REMARK  status: ('A' for Active; 'I' for Inactive)
REMARK    1  A    between atoms: N_2  and  C_13
REMARK    2  A    between atoms: N_3  and  C_22
REMARK    3  A    between atoms: N_7  and  C_29
REMARK    4  A    between atoms: C_9  and  C_14
REMARK    5  A    between atoms: C_13  and  C_15
REMARK    6  A    between atoms: C_20  and  C_25
REMARK                            x       y       z     vdW  Elec       q    Type
REMARK                         _______ _______ _______ _____ _____    ______ ____
ROOT
ATOM      2  N   UNL     1      -4.620 -11.229  15.355  0.00  0.00    -0.287 NA
ATOM      9  C   UNL     1      -5.238 -11.583  16.649  0.00  0.00    +0.146 C 
ATOM     10  C   UNL     1      -4.129 -11.342  17.691  0.00  0.00    +0.030 C 
ATOM     11  C   UNL     1      -3.185 -11.473  15.503  0.00  0.00    +0.085 C 
ATOM     12  C   UNL     1      -2.912 -10.914  16.884  0.00  0.00    +0.017 C 
ENDROOT
BRANCH   9  14
ATOM      1  O   UNL     1      -6.473  -9.476  16.560  0.00  0.00    -0.336 OA
ATOM      4  N   UNL     1      -7.609 -11.164  17.498  0.00  0.00    -0.190 NA
ATOM      5  N   UNL     1      -7.721  -8.952  16.921  0.00  0.00    -0.056 NA
ATOM     14  C   UNL     1      -6.491 -10.783  16.934  0.00  0.00    +0.245 A 
ATOM     20  C   UNL     1      -8.333 -10.007  17.468  0.00  0.00    +0.204 A 
BRANCH  20  25
ATOM      6  N   UNL     1     -11.962  -9.234  17.708  0.00  0.00    -0.237 NA
ATOM     25  C   UNL     1      -9.667  -9.938  17.991  0.00  0.00    +0.041 A 
ATOM     26  C   UNL     1      -9.976 -10.474  19.237  0.00  0.00    +0.017 A 
ATOM     27  C   UNL     1     -10.686  -9.334  17.273  0.00  0.00    +0.124 A 
ATOM     28  C   UNL     1     -11.278 -10.391  19.719  0.00  0.00    +0.047 A 
ATOM     29  C   UNL     1     -12.225  -9.767  18.923  0.00  0.00    +0.139 A 
BRANCH  29   7
ATOM      7  N   UNL     1     -13.525  -9.682  19.399  0.00  0.00    -0.290 N 
ATOM      8  N   UNL     1     -15.221  -9.688  20.832  0.00  0.00    -0.244 NA
ATOM     30  C   UNL     1     -14.646  -9.445  18.654  0.00  0.00    +0.114 A 
ATOM     31  C   UNL     1     -13.920  -9.821  20.700  0.00  0.00    +0.205 A 
ATOM     32  C   UNL     1     -15.679  -9.453  19.561  0.00  0.00    +0.130 A 
ENDBRANCH  29   7
ENDBRANCH  20  25
ENDBRANCH   9  14
BRANCH   2  13
ATOM     13  C   UNL     1      -5.188 -11.960  14.230  0.00  0.00    +0.122 C 
BRANCH  13  15
ATOM      3  N   UNL     1      -6.593  -9.810  11.594  0.00  0.00    -0.349 N 
ATOM     15  C   UNL     1      -5.490 -11.052  13.068  0.00  0.00    -0.008 A 
ATOM     16  C   UNL     1      -4.546 -10.492  12.162  0.00  0.00    +0.004 A 
ATOM     17  C   UNL     1      -6.740 -10.615  12.693  0.00  0.00    +0.091 A 
ATOM     18  C   UNL     1      -5.264  -9.717  11.248  0.00  0.00    +0.049 A 
ATOM     19  C   UNL     1      -3.146 -10.570  12.032  0.00  0.00    +0.010 A 
ATOM     21  C   UNL     1      -4.649  -9.015  10.207  0.00  0.00    +0.026 A 
ATOM     22  C   UNL     1      -7.688  -9.158  10.909  0.00  0.00    +0.149 C 
ATOM     23  C   UNL     1      -2.516  -9.872  10.995  0.00  0.00    +0.001 A 
ATOM     24  C   UNL     1      -3.258  -9.106  10.098  0.00  0.00    +0.002 A 
ENDBRANCH  13  15
ENDBRANCH   2  13
TORSDOF 5
ENDMDL
