MODEL 1
REMARK VINA RESULT:      -6.6      0.000      0.000
REMARK  Name = 56774198
REMARK  8 active torsions:
REMARK  status: ('A' for Active; 'I' for Inactive)
REMARK    1  A    between atoms: O_2  and  C_20
REMARK    2  A    between atoms: O_2  and  C_21
REMARK    3  A    between atoms: N_3  and  C_7
REMARK    4  A    between atoms: C_5  and  C_10
REMARK    5  A    between atoms: C_5  and  C_11
REMARK    6  A    between atoms: C_6  and  C_9
REMARK    7  A    between atoms: C_9  and  C_12
REMARK    8  A    between atoms: C_14  and  C_15
REMARK                            x       y       z     vdW  Elec       q    Type
REMARK                         _______ _______ _______ _____ _____    ______ ____
ROOT
ATOM      1  O   UNL     1      16.649   5.837  19.066  0.00  0.00    -0.354 OA
ATOM      4  N   UNL     1      15.410   6.352  18.708  0.00  0.00    -0.083 NA
ATOM     12  C   UNL     1      15.244   7.425  19.488  0.00  0.00    +0.084 A 
ATOM     13  C   UNL     1      16.335   7.633  20.349  0.00  0.00    +0.076 A 
ATOM     14  C   UNL     1      17.190   6.607  20.044  0.00  0.00    +0.167 A 
ENDROOT
BRANCH  14  15
ATOM     15  C   UNL     1      18.488   6.194  20.521  0.00  0.00    +0.020 A 
ATOM     16  C   UNL     1      19.169   5.158  19.882  0.00  0.00    +0.015 A 
ATOM     17  C   UNL     1      19.061   6.832  21.621  0.00  0.00    +0.015 A 
ATOM     18  C   UNL     1      20.424   4.760  20.343  0.00  0.00    +0.046 A 
ATOM     19  C   UNL     1      20.316   6.434  22.082  0.00  0.00    +0.046 A 
ATOM     20  C   UNL     1      20.997   5.397  21.444  0.00  0.00    +0.120 A 
BRANCH  20   2
ATOM      2  O   UNL     1      22.223   5.011  21.893  0.00  0.00    -0.495 OA
ATOM     21  C   UNL     1      23.266   4.910  20.925  0.00  0.00    +0.277 C 
ENDBRANCH  20   2
ENDBRANCH  14  15
BRANCH  12   9
ATOM      9  C   UNL     1      14.018   8.231  19.377  0.00  0.00    +0.063 C 
BRANCH   9   6
ATOM      5  C   UNL     1      11.836   8.843  20.704  0.00  0.00    -0.016 C 
ATOM      6  C   UNL     1      13.285   8.313  20.723  0.00  0.00    +0.003 C 
ATOM      7  C   UNL     1      11.515   7.780  21.775  0.00  0.00    +0.057 C 
ATOM      8  C   UNL     1      12.707   6.972  21.221  0.00  0.00    +0.023 C 
ATOM     10  C   UNL     1      11.647  10.257  21.225  0.00  0.00    +0.013 C 
ATOM     11  C   UNL     1      11.155   8.712  19.358  0.00  0.00    +0.013 C 
BRANCH   7   3
ATOM      3  N   UNL     1      10.273   7.071  21.462  0.00  0.00    -0.327 NA
ATOM     22  H   UNL     1      10.423   6.143  21.069  0.00  0.00    +0.118 HD
ATOM     23  H   UNL     1       9.666   6.938  22.270  0.00  0.00    +0.118 HD
ENDBRANCH   7   3
ENDBRANCH   9   6
ENDBRANCH  12   9
TORSDOF 5
ENDMDL
MODEL 2
REMARK VINA RESULT:      -6.3      2.796      8.472
REMARK  Name = 56774198
REMARK  8 active torsions:
REMARK  status: ('A' for Active; 'I' for Inactive)
REMARK    1  A    between atoms: O_2  and  C_20
REMARK    2  A    between atoms: O_2  and  C_21
REMARK    3  A    between atoms: N_3  and  C_7
REMARK    4  A    between atoms: C_5  and  C_10
REMARK    5  A    between atoms: C_5  and  C_11
REMARK    6  A    between atoms: C_6  and  C_9
REMARK    7  A    between atoms: C_9  and  C_12
REMARK    8  A    between atoms: C_14  and  C_15
REMARK                            x       y       z     vdW  Elec       q    Type
REMARK                         _______ _______ _______ _____ _____    ______ ____
ROOT
ATOM      1  O   UNL     1      16.539   5.869  18.756  0.00  0.00    -0.354 OA
ATOM      4  N   UNL     1      17.781   5.594  19.316  0.00  0.00    -0.083 NA
ATOM     12  C   UNL     1      17.859   6.389  20.388  0.00  0.00    +0.084 A 
ATOM     13  C   UNL     1      16.708   7.180  20.551  0.00  0.00    +0.076 A 
ATOM     14  C   UNL     1      15.911   6.814  19.499  0.00  0.00    +0.167 A 
ENDROOT
BRANCH  14  15
ATOM     15  C   UNL     1      14.600   7.204  19.038  0.00  0.00    +0.020 A 
ATOM     16  C   UNL     1      13.487   7.010  19.855  0.00  0.00    +0.015 A 
ATOM     17  C   UNL     1      14.448   7.777  17.775  0.00  0.00    +0.015 A 
ATOM     18  C   UNL     1      12.220   7.388  19.409  0.00  0.00    +0.046 A 
ATOM     19  C   UNL     1      13.181   8.155  17.329  0.00  0.00    +0.046 A 
ATOM     20  C   UNL     1      12.067   7.960  18.146  0.00  0.00    +0.120 A 
BRANCH  20   2
ATOM      2  O   UNL     1      10.832   8.332  17.712  0.00  0.00    -0.495 OA
ATOM     21  C   UNL     1      10.716   8.731  16.347  0.00  0.00    +0.277 C 
ENDBRANCH  20   2
ENDBRANCH  14  15
BRANCH  12   9
ATOM      9  C   UNL     1      19.061   6.362  21.236  0.00  0.00    +0.063 C 
BRANCH   9   6
ATOM      5  C   UNL     1      21.650   6.670  20.929  0.00  0.00    -0.016 C 
ATOM      6  C   UNL     1      20.321   6.091  20.402  0.00  0.00    +0.003 C 
ATOM      7  C   UNL     1      22.318   5.362  20.454  0.00  0.00    +0.057 C 
ATOM      8  C   UNL     1      20.937   4.692  20.606  0.00  0.00    +0.023 C 
ATOM     10  C   UNL     1      22.179   7.886  20.187  0.00  0.00    +0.013 C 
ATOM     11  C   UNL     1      21.646   6.957  22.416  0.00  0.00    +0.013 C 
BRANCH   7   3
ATOM      3  N   UNL     1      23.221   4.828  21.475  0.00  0.00    -0.327 NA
ATOM     22  H   UNL     1      23.425   3.836  21.359  0.00  0.00    +0.118 HD
ATOM     23  H   UNL     1      24.125   5.298  21.505  0.00  0.00    +0.118 HD
ENDBRANCH   7   3
ENDBRANCH   9   6
ENDBRANCH  12   9
TORSDOF 5
ENDMDL
MODEL 3
REMARK VINA RESULT:      -6.2     30.765     32.710
REMARK  Name = 56774198
REMARK  8 active torsions:
REMARK  status: ('A' for Active; 'I' for Inactive)
REMARK    1  A    between atoms: O_2  and  C_20
REMARK    2  A    between atoms: O_2  and  C_21
REMARK    3  A    between atoms: N_3  and  C_7
REMARK    4  A    between atoms: C_5  and  C_10
REMARK    5  A    between atoms: C_5  and  C_11
REMARK    6  A    between atoms: C_6  and  C_9
REMARK    7  A    between atoms: C_9  and  C_12
REMARK    8  A    between atoms: C_14  and  C_15
REMARK                            x       y       z     vdW  Elec       q    Type
REMARK                         _______ _______ _______ _____ _____    ______ ____
ROOT
ATOM      1  O   UNL     1     -14.169   3.768  34.077  0.00  0.00    -0.354 OA
ATOM      4  N   UNL     1     -14.152   5.019  34.681  0.00  0.00    -0.083 NA
ATOM     12  C   UNL     1     -14.223   5.892  33.671  0.00  0.00    +0.084 A 
ATOM     13  C   UNL     1     -14.285   5.255  32.419  0.00  0.00    +0.076 A 
ATOM     14  C   UNL     1     -14.248   3.921  32.731  0.00  0.00    +0.167 A 
ENDROOT
BRANCH  14  15
ATOM     15  C   UNL     1     -14.276   2.701  31.962  0.00  0.00    +0.020 A 
ATOM     16  C   UNL     1     -13.710   2.665  30.688  0.00  0.00    +0.015 A 
ATOM     17  C   UNL     1     -14.869   1.555  32.494  0.00  0.00    +0.015 A 
ATOM     18  C   UNL     1     -13.736   1.485  29.945  0.00  0.00    +0.046 A 
ATOM     19  C   UNL     1     -14.895   0.375  31.751  0.00  0.00    +0.046 A 
ATOM     20  C   UNL     1     -14.330   0.340  30.477  0.00  0.00    +0.120 A 
BRANCH  20   2
ATOM      2  O   UNL     1     -14.354  -0.813  29.753  0.00  0.00    -0.495 OA
ATOM     21  C   UNL     1     -13.112  -1.270  29.219  0.00  0.00    +0.277 C 
ENDBRANCH  20   2
ENDBRANCH  14  15
BRANCH  12   9
ATOM      9  C   UNL     1     -14.228   7.337  33.948  0.00  0.00    +0.063 C 
BRANCH   9   6
ATOM      5  C   UNL     1     -12.415   9.044  33.115  0.00  0.00    -0.016 C 
ATOM      6  C   UNL     1     -12.799   7.885  34.059  0.00  0.00    +0.003 C 
ATOM      7  C   UNL     1     -11.622   9.641  34.297  0.00  0.00    +0.057 C 
ATOM      8  C   UNL     1     -12.576   8.864  35.229  0.00  0.00    +0.023 C 
ATOM     10  C   UNL     1     -11.513   8.672  31.950  0.00  0.00    +0.013 C 
ATOM     11  C   UNL     1     -13.601   9.829  32.597  0.00  0.00    +0.013 C 
BRANCH   7   3
ATOM      3  N   UNL     1     -11.882  11.074  34.438  0.00  0.00    -0.327 NA
ATOM     22  H   UNL     1     -12.870  11.300  34.542  0.00  0.00    +0.118 HD
ATOM     23  H   UNL     1     -11.413  11.496  35.239  0.00  0.00    +0.118 HD
ENDBRANCH   7   3
ENDBRANCH   9   6
ENDBRANCH  12   9
TORSDOF 5
ENDMDL
MODEL 4
REMARK VINA RESULT:      -6.1      2.744      8.181
REMARK  Name = 56774198
REMARK  8 active torsions:
REMARK  status: ('A' for Active; 'I' for Inactive)
REMARK    1  A    between atoms: O_2  and  C_20
REMARK    2  A    between atoms: O_2  and  C_21
REMARK    3  A    between atoms: N_3  and  C_7
REMARK    4  A    between atoms: C_5  and  C_10
REMARK    5  A    between atoms: C_5  and  C_11
REMARK    6  A    between atoms: C_6  and  C_9
REMARK    7  A    between atoms: C_9  and  C_12
REMARK    8  A    between atoms: C_14  and  C_15
REMARK                            x       y       z     vdW  Elec       q    Type
REMARK                         _______ _______ _______ _____ _____    ______ ____
ROOT
ATOM      1  O   UNL     1      16.308   5.939  18.972  0.00  0.00    -0.354 OA
ATOM      4  N   UNL     1      17.644   5.567  18.890  0.00  0.00    -0.083 NA
ATOM     12  C   UNL     1      18.189   5.981  20.038  0.00  0.00    +0.084 A 
ATOM     13  C   UNL     1      17.254   6.615  20.874  0.00  0.00    +0.076 A 
ATOM     14  C   UNL     1      16.088   6.562  20.157  0.00  0.00    +0.167 A 
ENDROOT
BRANCH  14  15
ATOM     15  C   UNL     1      14.735   7.009  20.389  0.00  0.00    +0.020 A 
ATOM     16  C   UNL     1      14.357   7.464  21.651  0.00  0.00    +0.015 A 
ATOM     17  C   UNL     1      13.806   6.985  19.348  0.00  0.00    +0.015 A 
ATOM     18  C   UNL     1      13.050   7.896  21.875  0.00  0.00    +0.046 A 
ATOM     19  C   UNL     1      12.499   7.417  19.571  0.00  0.00    +0.046 A 
ATOM     20  C   UNL     1      12.120   7.872  20.834  0.00  0.00    +0.120 A 
BRANCH  20   2
ATOM      2  O   UNL     1      10.845   8.296  21.051  0.00  0.00    -0.495 OA
ATOM     21  C   UNL     1      10.632   9.174  22.155  0.00  0.00    +0.277 C 
ENDBRANCH  20   2
ENDBRANCH  14  15
BRANCH  12   9
ATOM      9  C   UNL     1      19.619   5.749  20.298  0.00  0.00    +0.063 C 
BRANCH   9   6
ATOM      5  C   UNL     1      21.037   6.643  22.319  0.00  0.00    -0.016 C 
ATOM      6  C   UNL     1      20.250   6.943  21.026  0.00  0.00    +0.003 C 
ATOM      7  C   UNL     1      22.044   7.720  21.864  0.00  0.00    +0.057 C 
ATOM      8  C   UNL     1      21.581   7.434  20.420  0.00  0.00    +0.023 C 
ATOM     10  C   UNL     1      20.341   7.021  23.616  0.00  0.00    +0.013 C 
ATOM     11  C   UNL     1      21.532   5.215  22.416  0.00  0.00    +0.013 C 
BRANCH   7   3
ATOM      3  N   UNL     1      23.423   7.255  22.022  0.00  0.00    -0.327 NA
ATOM     22  H   UNL     1      23.542   6.262  21.828  0.00  0.00    +0.118 HD
ATOM     23  H   UNL     1      24.087   7.739  21.418  0.00  0.00    +0.118 HD
ENDBRANCH   7   3
ENDBRANCH   9   6
ENDBRANCH  12   9
TORSDOF 5
ENDMDL
MODEL 5
REMARK VINA RESULT:      -5.9     28.301     31.456
REMARK  Name = 56774198
REMARK  8 active torsions:
REMARK  status: ('A' for Active; 'I' for Inactive)
REMARK    1  A    between atoms: O_2  and  C_20
REMARK    2  A    between atoms: O_2  and  C_21
REMARK    3  A    between atoms: N_3  and  C_7
REMARK    4  A    between atoms: C_5  and  C_10
REMARK    5  A    between atoms: C_5  and  C_11
REMARK    6  A    between atoms: C_6  and  C_9
REMARK    7  A    between atoms: C_9  and  C_12
REMARK    8  A    between atoms: C_14  and  C_15
REMARK                            x       y       z     vdW  Elec       q    Type
REMARK                         _______ _______ _______ _____ _____    ______ ____
ROOT
ATOM      1  O   UNL     1       0.213   2.617  -4.732  0.00  0.00    -0.354 OA
ATOM      4  N   UNL     1       1.195   3.515  -4.333  0.00  0.00    -0.083 NA
ATOM     12  C   UNL     1       2.149   3.419  -5.264  0.00  0.00    +0.084 A 
ATOM     13  C   UNL     1       1.828   2.485  -6.264  0.00  0.00    +0.076 A 
ATOM     14  C   UNL     1       0.601   2.010  -5.882  0.00  0.00    +0.167 A 
ENDROOT
BRANCH  14  15
ATOM     15  C   UNL     1      -0.324   1.044  -6.424  0.00  0.00    +0.020 A 
ATOM     16  C   UNL     1      -0.401  -0.234  -5.872  0.00  0.00    +0.015 A 
ATOM     17  C   UNL     1      -1.142   1.390  -7.500  0.00  0.00    +0.015 A 
ATOM     18  C   UNL     1      -1.296  -1.168  -6.395  0.00  0.00    +0.046 A 
ATOM     19  C   UNL     1      -2.037   0.457  -8.023  0.00  0.00    +0.046 A 
ATOM     20  C   UNL     1      -2.113  -0.822  -7.472  0.00  0.00    +0.120 A 
BRANCH  20   2
ATOM      2  O   UNL     1      -2.989  -1.732  -7.981  0.00  0.00    -0.495 OA
ATOM     21  C   UNL     1      -2.855  -3.081  -7.536  0.00  0.00    +0.277 C 
ENDBRANCH  20   2
ENDBRANCH  14  15
BRANCH  12   9
ATOM      9  C   UNL     1       3.363   4.245  -5.159  0.00  0.00    +0.063 C 
BRANCH   9   6
ATOM      5  C   UNL     1       4.244   6.558  -4.281  0.00  0.00    -0.016 C 
ATOM      6  C   UNL     1       3.057   5.596  -4.497  0.00  0.00    +0.003 C 
ATOM      7  C   UNL     1       3.285   7.705  -4.661  0.00  0.00    +0.057 C 
ATOM      8  C   UNL     1       2.469   6.658  -5.449  0.00  0.00    +0.023 C 
ATOM     10  C   UNL     1       4.742   6.677  -2.850  0.00  0.00    +0.013 C 
ATOM     11  C   UNL     1       5.420   6.293  -5.197  0.00  0.00    +0.013 C 
BRANCH   7   3
ATOM      3  N   UNL     1       3.913   8.628  -5.607  0.00  0.00    -0.327 NA
ATOM     22  H   UNL     1       4.704   8.224  -6.106  0.00  0.00    +0.118 HD
ATOM     23  H   UNL     1       3.275   8.971  -6.325  0.00  0.00    +0.118 HD
ENDBRANCH   7   3
ENDBRANCH   9   6
ENDBRANCH  12   9
TORSDOF 5
ENDMDL
MODEL 6
REMARK VINA RESULT:      -5.9      5.305      9.183
REMARK  Name = 56774198
REMARK  8 active torsions:
REMARK  status: ('A' for Active; 'I' for Inactive)
REMARK    1  A    between atoms: O_2  and  C_20
REMARK    2  A    between atoms: O_2  and  C_21
REMARK    3  A    between atoms: N_3  and  C_7
REMARK    4  A    between atoms: C_5  and  C_10
REMARK    5  A    between atoms: C_5  and  C_11
REMARK    6  A    between atoms: C_6  and  C_9
REMARK    7  A    between atoms: C_9  and  C_12
REMARK    8  A    between atoms: C_14  and  C_15
REMARK                            x       y       z     vdW  Elec       q    Type
REMARK                         _______ _______ _______ _____ _____    ______ ____
ROOT
ATOM      1  O   UNL     1      10.823   9.566  23.421  0.00  0.00    -0.354 OA
ATOM      4  N   UNL     1      10.940   8.491  22.550  0.00  0.00    -0.083 NA
ATOM     12  C   UNL     1      11.233   9.036  21.365  0.00  0.00    +0.084 A 
ATOM     13  C   UNL     1      11.312  10.438  21.428  0.00  0.00    +0.076 A 
ATOM     14  C   UNL     1      11.046  10.720  22.742  0.00  0.00    +0.167 A 
ENDROOT
BRANCH  14  15
ATOM     15  C   UNL     1      10.959  11.932  23.520  0.00  0.00    +0.020 A 
ATOM     16  C   UNL     1      10.857  13.167  22.880  0.00  0.00    +0.015 A 
ATOM     17  C   UNL     1      10.975  11.868  24.914  0.00  0.00    +0.015 A 
ATOM     18  C   UNL     1      10.773  14.338  23.632  0.00  0.00    +0.046 A 
ATOM     19  C   UNL     1      10.891  13.039  25.666  0.00  0.00    +0.046 A 
ATOM     20  C   UNL     1      10.790  14.274  25.026  0.00  0.00    +0.120 A 
BRANCH  20   2
ATOM      2  O   UNL     1      10.705  15.417  25.761  0.00  0.00    -0.495 OA
ATOM     21  C   UNL     1      11.252  15.384  27.078  0.00  0.00    +0.277 C 
ENDBRANCH  20   2
ENDBRANCH  14  15
BRANCH  12   9
ATOM      9  C   UNL     1      11.431   8.174  20.189  0.00  0.00    +0.063 C 
BRANCH   9   6
ATOM      5  C   UNL     1      13.617   8.632  18.808  0.00  0.00    -0.016 C 
ATOM      6  C   UNL     1      12.125   8.939  19.053  0.00  0.00    +0.003 C 
ATOM      7  C   UNL     1      13.313   8.748  17.299  0.00  0.00    +0.057 C 
ATOM      8  C   UNL     1      11.856   8.376  17.642  0.00  0.00    +0.023 C 
ATOM     10  C   UNL     1      14.593   9.697  19.279  0.00  0.00    +0.013 C 
ATOM     11  C   UNL     1      14.059   7.283  19.334  0.00  0.00    +0.013 C 
BRANCH   7   3
ATOM      3  N   UNL     1      13.922   7.647  16.551  0.00  0.00    -0.327 NA
ATOM     22  H   UNL     1      14.707   7.936  15.969  0.00  0.00    +0.118 HD
ATOM     23  H   UNL     1      14.276   6.898  17.145  0.00  0.00    +0.118 HD
ENDBRANCH   7   3
ENDBRANCH   9   6
ENDBRANCH  12   9
TORSDOF 5
ENDMDL
MODEL 7
REMARK VINA RESULT:      -5.9     28.981     31.695
REMARK  Name = 56774198
REMARK  8 active torsions:
REMARK  status: ('A' for Active; 'I' for Inactive)
REMARK    1  A    between atoms: O_2  and  C_20
REMARK    2  A    between atoms: O_2  and  C_21
REMARK    3  A    between atoms: N_3  and  C_7
REMARK    4  A    between atoms: C_5  and  C_10
REMARK    5  A    between atoms: C_5  and  C_11
REMARK    6  A    between atoms: C_6  and  C_9
REMARK    7  A    between atoms: C_9  and  C_12
REMARK    8  A    between atoms: C_14  and  C_15
REMARK                            x       y       z     vdW  Elec       q    Type
REMARK                         _______ _______ _______ _____ _____    ______ ____
ROOT
ATOM      1  O   UNL     1       0.117   2.626  -4.353  0.00  0.00    -0.354 OA
ATOM      4  N   UNL     1       0.811   3.682  -3.775  0.00  0.00    -0.083 NA
ATOM     12  C   UNL     1       1.746   4.012  -4.671  0.00  0.00    +0.084 A 
ATOM     13  C   UNL     1       1.691   3.206  -5.822  0.00  0.00    +0.076 A 
ATOM     14  C   UNL     1       0.651   2.351  -5.570  0.00  0.00    +0.167 A 
ENDROOT
BRANCH  14  15
ATOM     15  C   UNL     1       0.029   1.270  -6.297  0.00  0.00    +0.020 A 
ATOM     16  C   UNL     1      -0.171   1.379  -7.673  0.00  0.00    +0.015 A 
ATOM     17  C   UNL     1      -0.370   0.116  -5.623  0.00  0.00    +0.015 A 
ATOM     18  C   UNL     1      -0.771   0.334  -8.375  0.00  0.00    +0.046 A 
ATOM     19  C   UNL     1      -0.969  -0.929  -6.325  0.00  0.00    +0.046 A 
ATOM     20  C   UNL     1      -1.171  -0.820  -7.701  0.00  0.00    +0.120 A 
BRANCH  20   2
ATOM      2  O   UNL     1      -1.753  -1.842  -8.386  0.00  0.00    -0.495 OA
ATOM     21  C   UNL     1      -2.658  -2.675  -7.664  0.00  0.00    +0.277 C 
ENDBRANCH  20   2
ENDBRANCH  14  15
BRANCH  12   9
ATOM      9  C   UNL     1       2.680   5.113  -4.387  0.00  0.00    +0.063 C 
BRANCH   9   6
ATOM      5  C   UNL     1       2.222   6.981  -6.174  0.00  0.00    -0.016 C 
ATOM      6  C   UNL     1       3.111   5.821  -5.678  0.00  0.00    +0.003 C 
ATOM      7  C   UNL     1       3.525   7.706  -6.574  0.00  0.00    +0.057 C 
ATOM      8  C   UNL     1       4.235   6.862  -5.495  0.00  0.00    +0.023 C 
ATOM     10  C   UNL     1       1.347   6.671  -7.377  0.00  0.00    +0.013 C 
ATOM     11  C   UNL     1       1.374   7.609  -5.089  0.00  0.00    +0.013 C 
BRANCH   7   3
ATOM      3  N   UNL     1       3.504   9.105  -6.146  0.00  0.00    -0.327 NA
ATOM     22  H   UNL     1       4.294   9.648  -6.492  0.00  0.00    +0.118 HD
ATOM     23  H   UNL     1       2.668   9.609  -6.441  0.00  0.00    +0.118 HD
ENDBRANCH   7   3
ENDBRANCH   9   6
ENDBRANCH  12   9
TORSDOF 5
ENDMDL
MODEL 8
REMARK VINA RESULT:      -5.8     26.862     28.623
REMARK  Name = 56774198
REMARK  8 active torsions:
REMARK  status: ('A' for Active; 'I' for Inactive)
REMARK    1  A    between atoms: O_2  and  C_20
REMARK    2  A    between atoms: O_2  and  C_21
REMARK    3  A    between atoms: N_3  and  C_7
REMARK    4  A    between atoms: C_5  and  C_10
REMARK    5  A    between atoms: C_5  and  C_11
REMARK    6  A    between atoms: C_6  and  C_9
REMARK    7  A    between atoms: C_9  and  C_12
REMARK    8  A    between atoms: C_14  and  C_15
REMARK                            x       y       z     vdW  Elec       q    Type
REMARK                         _______ _______ _______ _____ _____    ______ ____
ROOT
ATOM      1  O   UNL     1      -2.051 -10.277  12.904  0.00  0.00    -0.354 OA
ATOM      4  N   UNL     1      -1.821 -10.379  14.270  0.00  0.00    -0.083 NA
ATOM     12  C   UNL     1      -3.013 -10.670  14.800  0.00  0.00    +0.084 A 
ATOM     13  C   UNL     1      -4.022 -10.762  13.826  0.00  0.00    +0.076 A 
ATOM     14  C   UNL     1      -3.365 -10.507  12.652  0.00  0.00    +0.167 A 
ENDROOT
BRANCH  14  15
ATOM     15  C   UNL     1      -3.758 -10.436  11.265  0.00  0.00    +0.020 A 
ATOM     16  C   UNL     1      -4.204 -11.582  10.607  0.00  0.00    +0.015 A 
ATOM     17  C   UNL     1      -3.694  -9.220  10.584  0.00  0.00    +0.015 A 
ATOM     18  C   UNL     1      -4.585 -11.513   9.267  0.00  0.00    +0.046 A 
ATOM     19  C   UNL     1      -4.076  -9.151   9.245  0.00  0.00    +0.046 A 
ATOM     20  C   UNL     1      -4.520 -10.297   8.585  0.00  0.00    +0.120 A 
BRANCH  20   2
ATOM      2  O   UNL     1      -4.895 -10.229   7.279  0.00  0.00    -0.495 OA
ATOM     21  C   UNL     1      -6.283 -10.036   7.011  0.00  0.00    +0.277 C 
ENDBRANCH  20   2
ENDBRANCH  14  15
BRANCH  12   9
ATOM      9  C   UNL     1      -3.145 -10.853  16.254  0.00  0.00    +0.063 C 
BRANCH   9   6
ATOM      5  C   UNL     1      -4.805 -11.987  17.944  0.00  0.00    -0.016 C 
ATOM      6  C   UNL     1      -4.592 -11.187  16.641  0.00  0.00    +0.003 C 
ATOM      7  C   UNL     1      -6.042 -11.099  18.195  0.00  0.00    +0.057 C 
ATOM      8  C   UNL     1      -5.359 -10.031  17.316  0.00  0.00    +0.023 C 
ATOM     10  C   UNL     1      -5.176 -13.449  17.764  0.00  0.00    +0.013 C 
ATOM     11  C   UNL     1      -3.654 -11.881  18.922  0.00  0.00    +0.013 C 
BRANCH   7   3
ATOM      3  N   UNL     1      -6.079 -10.622  19.579  0.00  0.00    -0.327 NA
ATOM     22  H   UNL     1      -5.596  -9.735  19.717  0.00  0.00    +0.118 HD
ATOM     23  H   UNL     1      -7.023 -10.486  19.937  0.00  0.00    +0.118 HD
ENDBRANCH   7   3
ENDBRANCH   9   6
ENDBRANCH  12   9
TORSDOF 5
ENDMDL
MODEL 9
REMARK VINA RESULT:      -5.8     16.762     19.132
REMARK  Name = 56774198
REMARK  8 active torsions:
REMARK  status: ('A' for Active; 'I' for Inactive)
REMARK    1  A    between atoms: O_2  and  C_20
REMARK    2  A    between atoms: O_2  and  C_21
REMARK    3  A    between atoms: N_3  and  C_7
REMARK    4  A    between atoms: C_5  and  C_10
REMARK    5  A    between atoms: C_5  and  C_11
REMARK    6  A    between atoms: C_6  and  C_9
REMARK    7  A    between atoms: C_9  and  C_12
REMARK    8  A    between atoms: C_14  and  C_15
REMARK                            x       y       z     vdW  Elec       q    Type
REMARK                         _______ _______ _______ _____ _____    ______ ____
ROOT
ATOM      1  O   UNL     1       9.770   6.590   3.461  0.00  0.00    -0.354 OA
ATOM      4  N   UNL     1       9.929   6.562   2.081  0.00  0.00    -0.083 NA
ATOM     12  C   UNL     1      10.783   5.559   1.852  0.00  0.00    +0.084 A 
ATOM     13  C   UNL     1      11.192   4.925   3.039  0.00  0.00    +0.076 A 
ATOM     14  C   UNL     1      10.526   5.612   4.020  0.00  0.00    +0.167 A 
ENDROOT
BRANCH  14  15
ATOM     15  C   UNL     1      10.463   5.515   5.458  0.00  0.00    +0.020 A 
ATOM     16  C   UNL     1      11.019   6.519   6.250  0.00  0.00    +0.015 A 
ATOM     17  C   UNL     1       9.842   4.418   6.056  0.00  0.00    +0.015 A 
ATOM     18  C   UNL     1      10.957   6.426   7.641  0.00  0.00    +0.046 A 
ATOM     19  C   UNL     1       9.780   4.325   7.446  0.00  0.00    +0.046 A 
ATOM     20  C   UNL     1      10.338   5.328   8.239  0.00  0.00    +0.120 A 
BRANCH  20   2
ATOM      2  O   UNL     1      10.274   5.238   9.595  0.00  0.00    -0.495 OA
ATOM     21  C   UNL     1       9.123   4.604  10.151  0.00  0.00    +0.277 C 
ENDBRANCH  20   2
ENDBRANCH  14  15
BRANCH  12   9
ATOM      9  C   UNL     1      11.185   5.237   0.474  0.00  0.00    +0.063 C 
BRANCH   9   6
ATOM      5  C   UNL     1      13.516   4.114   0.029  0.00  0.00    -0.016 C 
ATOM      6  C   UNL     1      12.700   5.397   0.288  0.00  0.00    +0.003 C 
ATOM      7  C   UNL     1      14.357   4.941  -0.966  0.00  0.00    +0.057 C 
ATOM      8  C   UNL     1      13.128   5.862  -1.120  0.00  0.00    +0.023 C 
ATOM     10  C   UNL     1      14.345   3.614   1.201  0.00  0.00    +0.013 C 
ATOM     11  C   UNL     1      12.696   2.969  -0.526  0.00  0.00    +0.013 C 
BRANCH   7   3
ATOM      3  N   UNL     1      14.564   4.211  -2.218  0.00  0.00    -0.327 NA
ATOM     22  H   UNL     1      14.294   4.741  -3.047  0.00  0.00    +0.118 HD
ATOM     23  H   UNL     1      15.531   3.929  -2.369  0.00  0.00    +0.118 HD
ENDBRANCH   7   3
ENDBRANCH   9   6
ENDBRANCH  12   9
TORSDOF 5
ENDMDL
MODEL 10
REMARK VINA RESULT:      -5.7     27.391     28.800
REMARK  Name = 56774198
REMARK  8 active torsions:
REMARK  status: ('A' for Active; 'I' for Inactive)
REMARK    1  A    between atoms: O_2  and  C_20
REMARK    2  A    between atoms: O_2  and  C_21
REMARK    3  A    between atoms: N_3  and  C_7
REMARK    4  A    between atoms: C_5  and  C_10
REMARK    5  A    between atoms: C_5  and  C_11
REMARK    6  A    between atoms: C_6  and  C_9
REMARK    7  A    between atoms: C_9  and  C_12
REMARK    8  A    between atoms: C_14  and  C_15
REMARK                            x       y       z     vdW  Elec       q    Type
REMARK                         _______ _______ _______ _____ _____    ______ ____
ROOT
ATOM      1  O   UNL     1      -2.667 -10.360  15.001  0.00  0.00    -0.354 OA
ATOM      4  N   UNL     1      -2.098 -10.417  13.735  0.00  0.00    -0.083 NA
ATOM     12  C   UNL     1      -3.107 -10.731  12.917  0.00  0.00    +0.084 A 
ATOM     13  C   UNL     1      -4.324 -10.883  13.604  0.00  0.00    +0.076 A 
ATOM     14  C   UNL     1      -3.991 -10.639  14.910  0.00  0.00    +0.167 A 
ENDROOT
BRANCH  14  15
ATOM     15  C   UNL     1      -4.723 -10.616  16.154  0.00  0.00    +0.020 A 
ATOM     16  C   UNL     1      -4.170 -11.187  17.300  0.00  0.00    +0.015 A 
ATOM     17  C   UNL     1      -5.984 -10.021  16.210  0.00  0.00    +0.015 A 
ATOM     18  C   UNL     1      -4.877 -11.165  18.502  0.00  0.00    +0.046 A 
ATOM     19  C   UNL     1      -6.690  -9.998  17.412  0.00  0.00    +0.046 A 
ATOM     20  C   UNL     1      -6.138 -10.570  18.558  0.00  0.00    +0.120 A 
BRANCH  20   2
ATOM      2  O   UNL     1      -6.827 -10.545  19.731  0.00  0.00    -0.495 OA
ATOM     21  C   UNL     1      -8.129 -11.126  19.732  0.00  0.00    +0.277 C 
ENDBRANCH  20   2
ENDBRANCH  14  15
BRANCH  12   9
ATOM      9  C   UNL     1      -2.864 -10.877  11.473  0.00  0.00    +0.063 C 
BRANCH   9   6
ATOM      5  C   UNL     1      -4.796 -10.030   9.909  0.00  0.00    -0.016 C 
ATOM      6  C   UNL     1      -4.166 -11.182  10.720  0.00  0.00    +0.003 C 
ATOM      7  C   UNL     1      -5.152 -11.082   8.838  0.00  0.00    +0.057 C 
ATOM      8  C   UNL     1      -3.974 -11.920   9.379  0.00  0.00    +0.023 C 
ATOM     10  C   UNL     1      -6.032  -9.395  10.521  0.00  0.00    +0.013 C 
ATOM     11  C   UNL     1      -3.814  -8.943   9.527  0.00  0.00    +0.013 C 
BRANCH   7   3
ATOM      3  N   UNL     1      -4.818 -10.604   7.495  0.00  0.00    -0.327 NA
ATOM     22  H   UNL     1      -4.446 -11.331   6.885  0.00  0.00    +0.118 HD
ATOM     23  H   UNL     1      -5.611 -10.201   6.998  0.00  0.00    +0.118 HD
ENDBRANCH   7   3
ENDBRANCH   9   6
ENDBRANCH  12   9
TORSDOF 5
ENDMDL
