MODEL 1
REMARK VINA RESULT:      -6.0      0.000      0.000
REMARK  Name = 38030163
REMARK  10 active torsions:
REMARK  status: ('A' for Active; 'I' for Inactive)
REMARK    1  A    between atoms: O_1  and  C_13
REMARK    2  A    between atoms: N_3  and  C_18
REMARK    3  A    between atoms: C_5  and  C_9
REMARK    4  A    between atoms: C_7  and  C_13
REMARK    5  A    between atoms: C_8  and  C_12
REMARK    6  A    between atoms: C_9  and  C_14
REMARK    7  A    between atoms: C_9  and  C_15
REMARK    8  A    between atoms: C_10  and  C_16
REMARK    9  A    between atoms: C_12  and  C_17
REMARK   10  A    between atoms: C_18  and  C_19
REMARK                            x       y       z     vdW  Elec       q    Type
REMARK                         _______ _______ _______ _____ _____    ______ ____
ROOT
ATOM      5  C   UNL     1      14.009   8.949  20.161  0.00  0.00    +0.001 C 
ATOM      6  C   UNL     1      15.406   9.452  19.768  0.00  0.00    +0.012 C 
ATOM      7  C   UNL     1      13.671   7.641  19.403  0.00  0.00    +0.040 C 
ATOM      8  C   UNL     1      16.505   8.415  20.070  0.00  0.00    +0.023 C 
ATOM     10  C   UNL     1      16.121   7.031  19.584  0.00  0.00    -0.073 C 
ATOM     11  C   UNL     1      14.852   6.708  19.278  0.00  0.00    -0.022 C 
ATOM     16  C   UNL     1      17.238   6.039  19.415  0.00  0.00    +0.039 C 
ENDROOT
BRANCH   5   9
ATOM      9  C   UNL     1      12.970  10.045  19.898  0.00  0.00    -0.013 C 
ATOM     14  C   UNL     1      13.344  11.323  20.642  0.00  0.00    +0.007 C 
ATOM     15  C   UNL     1      12.843  10.308  18.401  0.00  0.00    +0.007 C 
ENDBRANCH   5   9
BRANCH   8  12
ATOM     12  C   UNL     1      16.851   8.396  21.562  0.00  0.00    +0.103 C 
BRANCH  12  17
ATOM      2  O   UNL     1      19.018   9.459  21.390  0.00  0.00    -0.276 OA
ATOM      3  N   UNL     1      18.816   7.449  22.540  0.00  0.00    -0.310 N 
ATOM     17  C   UNL     1      18.339   8.522  21.802  0.00  0.00    +0.214 C 
ATOM     25  H   UNL     1      18.174   6.721  22.838  0.00  0.00    +0.149 HD
BRANCH   3  18
ATOM     18  C   UNL     1      20.204   7.306  22.917  0.00  0.00    +0.159 C 
BRANCH  18  19
ATOM      4  N   UNL     1      21.603   5.344  23.219  0.00  0.00    -0.258 NA
ATOM     19  C   UNL     1      20.806   6.041  22.378  0.00  0.00    +0.058 A 
ATOM     20  C   UNL     1      20.524   5.655  21.078  0.00  0.00    +0.025 A 
ATOM     21  C   UNL     1      21.097   4.478  20.610  0.00  0.00    +0.003 A 
ATOM     22  C   UNL     1      22.143   4.205  22.729  0.00  0.00    +0.111 A 
ATOM     23  C   UNL     1      21.923   3.733  21.445  0.00  0.00    +0.020 A 
ENDBRANCH  18  19
ENDBRANCH   3  18
ENDBRANCH  12  17
ENDBRANCH   8  12
BRANCH   7  13
ATOM     13  C   UNL     1      12.504   6.903  20.067  0.00  0.00    +0.163 C 
BRANCH  13   1
ATOM      1  O   UNL     1      13.013   6.150  21.150  0.00  0.00    -0.394 OA
ATOM     24  H   UNL     1      13.087   5.228  20.850  0.00  0.00    +0.209 HD
ENDBRANCH  13   1
ENDBRANCH   7  13
TORSDOF 7
ENDMDL
MODEL 2
REMARK VINA RESULT:      -6.0     31.888     34.314
REMARK  Name = 38030163
REMARK  10 active torsions:
REMARK  status: ('A' for Active; 'I' for Inactive)
REMARK    1  A    between atoms: O_1  and  C_13
REMARK    2  A    between atoms: N_3  and  C_18
REMARK    3  A    between atoms: C_5  and  C_9
REMARK    4  A    between atoms: C_7  and  C_13
REMARK    5  A    between atoms: C_8  and  C_12
REMARK    6  A    between atoms: C_9  and  C_14
REMARK    7  A    between atoms: C_9  and  C_15
REMARK    8  A    between atoms: C_10  and  C_16
REMARK    9  A    between atoms: C_12  and  C_17
REMARK   10  A    between atoms: C_18  and  C_19
REMARK                            x       y       z     vdW  Elec       q    Type
REMARK                         _______ _______ _______ _____ _____    ______ ____
ROOT
ATOM      5  C   UNL     1     -14.603   2.069  30.890  0.00  0.00    +0.001 C 
ATOM      6  C   UNL     1     -15.848   2.959  30.757  0.00  0.00    +0.012 C 
ATOM      7  C   UNL     1     -14.981   0.578  30.710  0.00  0.00    +0.040 C 
ATOM      8  C   UNL     1     -16.541   2.792  29.391  0.00  0.00    +0.023 C 
ATOM     10  C   UNL     1     -16.708   1.332  29.019  0.00  0.00    -0.073 C 
ATOM     11  C   UNL     1     -16.013   0.356  29.629  0.00  0.00    -0.022 C 
ATOM     16  C   UNL     1     -17.728   1.016  27.961  0.00  0.00    +0.039 C 
ENDROOT
BRANCH   5   9
ATOM      9  C   UNL     1     -13.924   2.325  32.239  0.00  0.00    -0.013 C 
ATOM     14  C   UNL     1     -13.672   3.817  32.434  0.00  0.00    +0.007 C 
ATOM     15  C   UNL     1     -14.773   1.767  33.376  0.00  0.00    +0.007 C 
ENDBRANCH   5   9
BRANCH   8  12
ATOM     12  C   UNL     1     -15.789   3.554  28.295  0.00  0.00    +0.103 C 
BRANCH  12  17
ATOM      2  O   UNL     1     -17.801   4.771  27.722  0.00  0.00    -0.276 OA
ATOM      3  N   UNL     1     -16.220   4.332  26.075  0.00  0.00    -0.310 N 
ATOM     17  C   UNL     1     -16.730   4.287  27.364  0.00  0.00    +0.214 C 
ATOM     25  H   UNL     1     -15.321   3.903  25.877  0.00  0.00    +0.149 HD
BRANCH   3  18
ATOM     18  C   UNL     1     -16.908   4.970  24.977  0.00  0.00    +0.159 C 
BRANCH  18  19
ATOM      4  N   UNL     1     -16.405   6.248  22.974  0.00  0.00    -0.258 NA
ATOM     19  C   UNL     1     -15.975   5.315  23.852  0.00  0.00    +0.058 A 
ATOM     20  C   UNL     1     -14.747   4.678  23.770  0.00  0.00    +0.025 A 
ATOM     21  C   UNL     1     -13.907   5.021  22.717  0.00  0.00    +0.003 A 
ATOM     22  C   UNL     1     -15.561   6.556  21.964  0.00  0.00    +0.111 A 
ATOM     23  C   UNL     1     -14.313   5.977  21.792  0.00  0.00    +0.020 A 
ENDBRANCH  18  19
ENDBRANCH   3  18
ENDBRANCH  12  17
ENDBRANCH   8  12
BRANCH   7  13
ATOM     13  C   UNL     1     -13.743  -0.276  30.417  0.00  0.00    +0.163 C 
BRANCH  13   1
ATOM      1  O   UNL     1     -14.143  -1.388  29.641  0.00  0.00    -0.394 OA
ATOM     24  H   UNL     1     -15.106  -1.326  29.524  0.00  0.00    +0.209 HD
ENDBRANCH  13   1
ENDBRANCH   7  13
TORSDOF 7
ENDMDL
MODEL 3
REMARK VINA RESULT:      -5.8     26.832     29.114
REMARK  Name = 38030163
REMARK  10 active torsions:
REMARK  status: ('A' for Active; 'I' for Inactive)
REMARK    1  A    between atoms: O_1  and  C_13
REMARK    2  A    between atoms: N_3  and  C_18
REMARK    3  A    between atoms: C_5  and  C_9
REMARK    4  A    between atoms: C_7  and  C_13
REMARK    5  A    between atoms: C_8  and  C_12
REMARK    6  A    between atoms: C_9  and  C_14
REMARK    7  A    between atoms: C_9  and  C_15
REMARK    8  A    between atoms: C_10  and  C_16
REMARK    9  A    between atoms: C_12  and  C_17
REMARK   10  A    between atoms: C_18  and  C_19
REMARK                            x       y       z     vdW  Elec       q    Type
REMARK                         _______ _______ _______ _____ _____    ______ ____
ROOT
ATOM      5  C   UNL     1      -4.973 -10.587  10.947  0.00  0.00    +0.001 C 
ATOM      6  C   UNL     1      -4.383 -10.153  12.297  0.00  0.00    +0.012 C 
ATOM      7  C   UNL     1      -4.475  -9.655   9.813  0.00  0.00    +0.040 C 
ATOM      8  C   UNL     1      -2.842 -10.169  12.292  0.00  0.00    +0.023 C 
ATOM     10  C   UNL     1      -2.276  -9.496  11.057  0.00  0.00    -0.073 C 
ATOM     11  C   UNL     1      -3.024  -9.263   9.965  0.00  0.00    -0.022 C 
ATOM     16  C   UNL     1      -0.840  -9.057  11.124  0.00  0.00    +0.039 C 
ENDROOT
BRANCH   5   9
ATOM      9  C   UNL     1      -6.503 -10.612  11.033  0.00  0.00    -0.013 C 
ATOM     14  C   UNL     1      -6.954 -11.421  12.245  0.00  0.00    +0.007 C 
ATOM     15  C   UNL     1      -7.054  -9.191  11.094  0.00  0.00    +0.007 C 
ENDBRANCH   5   9
BRANCH   8  12
ATOM     12  C   UNL     1      -2.305 -11.597  12.433  0.00  0.00    +0.103 C 
BRANCH  12  17
ATOM      2  O   UNL     1      -1.949 -13.160  14.247  0.00  0.00    -0.276 OA
ATOM      3  N   UNL     1      -2.251 -10.904  14.721  0.00  0.00    -0.310 N 
ATOM     17  C   UNL     1      -2.146 -12.003  13.881  0.00  0.00    +0.214 C 
ATOM     25  H   UNL     1      -2.414  -9.984  14.322  0.00  0.00    +0.149 HD
BRANCH   3  18
ATOM     18  C   UNL     1      -2.140 -10.996  16.158  0.00  0.00    +0.159 C 
BRANCH  18  19
ATOM      4  N   UNL     1      -3.590 -11.530  18.033  0.00  0.00    -0.258 NA
ATOM     19  C   UNL     1      -3.480 -10.918  16.832  0.00  0.00    +0.058 A 
ATOM     20  C   UNL     1      -4.515 -10.239  16.209  0.00  0.00    +0.025 A 
ATOM     21  C   UNL     1      -5.742 -10.186  16.860  0.00  0.00    +0.003 A 
ATOM     22  C   UNL     1      -4.798 -11.456  18.636  0.00  0.00    +0.111 A 
ATOM     23  C   UNL     1      -5.895 -10.803  18.097  0.00  0.00    +0.020 A 
ENDBRANCH  18  19
ENDBRANCH   3  18
ENDBRANCH  12  17
ENDBRANCH   8  12
BRANCH   7  13
ATOM     13  C   UNL     1      -4.691 -10.293   8.437  0.00  0.00    +0.163 C 
BRANCH  13   1
ATOM      1  O   UNL     1      -5.274  -9.326   7.585  0.00  0.00    -0.394 OA
ATOM     24  H   UNL     1      -5.243  -8.475   8.053  0.00  0.00    +0.209 HD
ENDBRANCH  13   1
ENDBRANCH   7  13
TORSDOF 7
ENDMDL
MODEL 4
REMARK VINA RESULT:      -5.8     27.277     29.317
REMARK  Name = 38030163
REMARK  10 active torsions:
REMARK  status: ('A' for Active; 'I' for Inactive)
REMARK    1  A    between atoms: O_1  and  C_13
REMARK    2  A    between atoms: N_3  and  C_18
REMARK    3  A    between atoms: C_5  and  C_9
REMARK    4  A    between atoms: C_7  and  C_13
REMARK    5  A    between atoms: C_8  and  C_12
REMARK    6  A    between atoms: C_9  and  C_14
REMARK    7  A    between atoms: C_9  and  C_15
REMARK    8  A    between atoms: C_10  and  C_16
REMARK    9  A    between atoms: C_12  and  C_17
REMARK   10  A    between atoms: C_18  and  C_19
REMARK                            x       y       z     vdW  Elec       q    Type
REMARK                         _______ _______ _______ _____ _____    ______ ____
ROOT
ATOM      5  C   UNL     1      -6.115 -10.282  15.382  0.00  0.00    +0.001 C 
ATOM      6  C   UNL     1      -5.103 -11.427  15.227  0.00  0.00    +0.012 C 
ATOM      7  C   UNL     1      -6.930 -10.452  16.688  0.00  0.00    +0.040 C 
ATOM      8  C   UNL     1      -4.120 -11.500  16.411  0.00  0.00    +0.023 C 
ATOM     10  C   UNL     1      -4.835 -11.403  17.744  0.00  0.00    -0.073 C 
ATOM     11  C   UNL     1      -6.095 -10.945  17.846  0.00  0.00    -0.022 C 
ATOM     16  C   UNL     1      -4.083 -11.887  18.952  0.00  0.00    +0.039 C 
ENDROOT
BRANCH   5   9
ATOM      9  C   UNL     1      -7.022 -10.221  14.148  0.00  0.00    -0.013 C 
ATOM     14  C   UNL     1      -6.222  -9.801  12.919  0.00  0.00    +0.007 C 
ATOM     15  C   UNL     1      -7.698 -11.569  13.919  0.00  0.00    +0.007 C 
ENDBRANCH   5   9
BRANCH   8  12
ATOM     12  C   UNL     1      -3.033 -10.426  16.292  0.00  0.00    +0.103 C 
BRANCH  12  17
ATOM      2  O   UNL     1      -0.998 -11.367  15.380  0.00  0.00    -0.276 OA
ATOM      3  N   UNL     1      -2.465 -10.234  13.978  0.00  0.00    -0.310 N 
ATOM     17  C   UNL     1      -2.040 -10.742  15.196  0.00  0.00    +0.214 C 
ATOM     25  H   UNL     1      -3.345  -9.730  13.925  0.00  0.00    +0.149 HD
BRANCH   3  18
ATOM     18  C   UNL     1      -1.712 -10.385  12.754  0.00  0.00    +0.159 C 
BRANCH  18  19
ATOM      4  N   UNL     1      -3.054 -11.815  11.320  0.00  0.00    -0.258 NA
ATOM     19  C   UNL     1      -2.607 -10.562  11.561  0.00  0.00    +0.058 A 
ATOM     20  C   UNL     1      -2.926  -9.461  10.782  0.00  0.00    +0.025 A 
ATOM     21  C   UNL     1      -3.757  -9.660   9.686  0.00  0.00    +0.003 A 
ATOM     22  C   UNL     1      -3.860 -11.969  10.245  0.00  0.00    +0.111 A 
ATOM     23  C   UNL     1      -4.237 -10.934   9.405  0.00  0.00    +0.020 A 
ENDBRANCH  18  19
ENDBRANCH   3  18
ENDBRANCH  12  17
ENDBRANCH   8  12
BRANCH   7  13
ATOM     13  C   UNL     1      -7.626  -9.144  17.080  0.00  0.00    +0.163 C 
BRANCH  13   1
ATOM      1  O   UNL     1      -8.369  -9.373  18.261  0.00  0.00    -0.394 OA
ATOM     24  H   UNL     1      -7.731  -9.510  18.981  0.00  0.00    +0.209 HD
ENDBRANCH  13   1
ENDBRANCH   7  13
TORSDOF 7
ENDMDL
MODEL 5
REMARK VINA RESULT:      -5.8     31.303     33.919
REMARK  Name = 38030163
REMARK  10 active torsions:
REMARK  status: ('A' for Active; 'I' for Inactive)
REMARK    1  A    between atoms: O_1  and  C_13
REMARK    2  A    between atoms: N_3  and  C_18
REMARK    3  A    between atoms: C_5  and  C_9
REMARK    4  A    between atoms: C_7  and  C_13
REMARK    5  A    between atoms: C_8  and  C_12
REMARK    6  A    between atoms: C_9  and  C_14
REMARK    7  A    between atoms: C_9  and  C_15
REMARK    8  A    between atoms: C_10  and  C_16
REMARK    9  A    between atoms: C_12  and  C_17
REMARK   10  A    between atoms: C_18  and  C_19
REMARK                            x       y       z     vdW  Elec       q    Type
REMARK                         _______ _______ _______ _____ _____    ______ ____
ROOT
ATOM      5  C   UNL     1     -16.242   1.942  29.817  0.00  0.00    +0.001 C 
ATOM      6  C   UNL     1     -15.861   3.401  29.524  0.00  0.00    +0.012 C 
ATOM      7  C   UNL     1     -14.972   1.065  29.945  0.00  0.00    +0.040 C 
ATOM      8  C   UNL     1     -14.962   4.000  30.623  0.00  0.00    +0.023 C 
ATOM     10  C   UNL     1     -13.829   3.064  30.996  0.00  0.00    -0.073 C 
ATOM     11  C   UNL     1     -13.845   1.759  30.672  0.00  0.00    -0.022 C 
ATOM     16  C   UNL     1     -12.655   3.674  31.711  0.00  0.00    +0.039 C 
ENDROOT
BRANCH   5   9
ATOM      9  C   UNL     1     -17.184   1.424  28.725  0.00  0.00    -0.013 C 
ATOM     14  C   UNL     1     -18.344   2.393  28.517  0.00  0.00    +0.007 C 
ATOM     15  C   UNL     1     -16.421   1.207  27.423  0.00  0.00    +0.007 C 
ENDBRANCH   5   9
BRANCH   8  12
ATOM     12  C   UNL     1     -15.784   4.385  31.858  0.00  0.00    +0.103 C 
BRANCH  12  17
ATOM      2  O   UNL     1     -16.908   6.502  31.523  0.00  0.00    -0.276 OA
ATOM      3  N   UNL     1     -14.892   6.446  32.679  0.00  0.00    -0.310 N 
ATOM     17  C   UNL     1     -15.952   5.883  31.983  0.00  0.00    +0.214 C 
ATOM     25  H   UNL     1     -14.146   5.849  33.023  0.00  0.00    +0.149 HD
BRANCH   3  18
ATOM     18  C   UNL     1     -14.788   7.861  32.948  0.00  0.00    +0.159 C 
BRANCH  18  19
ATOM      4  N   UNL     1     -14.010   9.390  31.228  0.00  0.00    -0.258 NA
ATOM     19  C   UNL     1     -13.664   8.499  32.184  0.00  0.00    +0.058 A 
ATOM     20  C   UNL     1     -12.356   8.153  32.486  0.00  0.00    +0.025 A 
ATOM     21  C   UNL     1     -11.339   8.761  31.760  0.00  0.00    +0.003 A 
ATOM     22  C   UNL     1     -12.993   9.961  30.544  0.00  0.00    +0.111 A 
ATOM     23  C   UNL     1     -11.654   9.684  30.769  0.00  0.00    +0.020 A 
ENDBRANCH  18  19
ENDBRANCH   3  18
ENDBRANCH  12  17
ENDBRANCH   8  12
BRANCH   7  13
ATOM     13  C   UNL     1     -15.285  -0.265  30.638  0.00  0.00    +0.163 C 
BRANCH  13   1
ATOM      1  O   UNL     1     -14.535  -1.283  30.006  0.00  0.00    -0.394 OA
ATOM     24  H   UNL     1     -14.874  -2.135  30.330  0.00  0.00    +0.209 HD
ENDBRANCH  13   1
ENDBRANCH   7  13
TORSDOF 7
ENDMDL
MODEL 6
REMARK VINA RESULT:      -5.6     16.109     18.458
REMARK  Name = 38030163
REMARK  10 active torsions:
REMARK  status: ('A' for Active; 'I' for Inactive)
REMARK    1  A    between atoms: O_1  and  C_13
REMARK    2  A    between atoms: N_3  and  C_18
REMARK    3  A    between atoms: C_5  and  C_9
REMARK    4  A    between atoms: C_7  and  C_13
REMARK    5  A    between atoms: C_8  and  C_12
REMARK    6  A    between atoms: C_9  and  C_14
REMARK    7  A    between atoms: C_9  and  C_15
REMARK    8  A    between atoms: C_10  and  C_16
REMARK    9  A    between atoms: C_12  and  C_17
REMARK   10  A    between atoms: C_18  and  C_19
REMARK                            x       y       z     vdW  Elec       q    Type
REMARK                         _______ _______ _______ _____ _____    ______ ____
ROOT
ATOM      5  C   UNL     1       8.935   8.174   5.842  0.00  0.00    +0.001 C 
ATOM      6  C   UNL     1       8.589   6.831   5.181  0.00  0.00    +0.012 C 
ATOM      7  C   UNL     1       8.703   8.100   7.372  0.00  0.00    +0.040 C 
ATOM      8  C   UNL     1       9.428   5.669   5.748  0.00  0.00    +0.023 C 
ATOM     10  C   UNL     1       9.467   5.689   7.263  0.00  0.00    -0.073 C 
ATOM     11  C   UNL     1       9.126   6.780   7.971  0.00  0.00    -0.022 C 
ATOM     16  C   UNL     1       9.862   4.410   7.947  0.00  0.00    +0.039 C 
ENDROOT
BRANCH   5   9
ATOM      9  C   UNL     1       8.117   9.296   5.195  0.00  0.00    -0.013 C 
ATOM     14  C   UNL     1       9.003  10.505   4.912  0.00  0.00    +0.007 C 
ATOM     15  C   UNL     1       7.453   8.800   3.915  0.00  0.00    +0.007 C 
ENDBRANCH   5   9
BRANCH   8  12
ATOM     12  C   UNL     1      10.844   5.676   5.163  0.00  0.00    +0.103 C 
BRANCH  12  17
ATOM      2  O   UNL     1      10.984   6.660   2.956  0.00  0.00    -0.276 OA
ATOM      3  N   UNL     1      10.637   4.371   3.170  0.00  0.00    -0.310 N 
ATOM     17  C   UNL     1      10.835   5.657   3.651  0.00  0.00    +0.214 C 
ATOM     25  H   UNL     1      10.525   3.604   3.826  0.00  0.00    +0.149 HD
BRANCH   3  18
ATOM     18  C   UNL     1      10.581   4.056   1.762  0.00  0.00    +0.159 C 
BRANCH  18  19
ATOM      4  N   UNL     1      12.935   3.468   1.891  0.00  0.00    -0.258 NA
ATOM     19  C   UNL     1      11.948   4.008   1.141  0.00  0.00    +0.058 A 
ATOM     20  C   UNL     1      12.131   4.507  -0.139  0.00  0.00    +0.025 A 
ATOM     21  C   UNL     1      13.409   4.447  -0.683  0.00  0.00    +0.003 A 
ATOM     22  C   UNL     1      14.163   3.426   1.329  0.00  0.00    +0.111 A 
ATOM     23  C   UNL     1      14.450   3.898   0.057  0.00  0.00    +0.020 A 
ENDBRANCH  18  19
ENDBRANCH   3  18
ENDBRANCH  12  17
ENDBRANCH   8  12
BRANCH   7  13
ATOM     13  C   UNL     1       9.421   9.244   8.096  0.00  0.00    +0.163 C 
BRANCH  13   1
ATOM      1  O   UNL     1      10.785   9.219   7.723  0.00  0.00    -0.394 OA
ATOM     24  H   UNL     1      10.921   8.423   7.182  0.00  0.00    +0.209 HD
ENDBRANCH  13   1
ENDBRANCH   7  13
TORSDOF 7
ENDMDL
MODEL 7
REMARK VINA RESULT:      -5.5      4.942      8.631
REMARK  Name = 38030163
REMARK  10 active torsions:
REMARK  status: ('A' for Active; 'I' for Inactive)
REMARK    1  A    between atoms: O_1  and  C_13
REMARK    2  A    between atoms: N_3  and  C_18
REMARK    3  A    between atoms: C_5  and  C_9
REMARK    4  A    between atoms: C_7  and  C_13
REMARK    5  A    between atoms: C_8  and  C_12
REMARK    6  A    between atoms: C_9  and  C_14
REMARK    7  A    between atoms: C_9  and  C_15
REMARK    8  A    between atoms: C_10  and  C_16
REMARK    9  A    between atoms: C_12  and  C_17
REMARK   10  A    between atoms: C_18  and  C_19
REMARK                            x       y       z     vdW  Elec       q    Type
REMARK                         _______ _______ _______ _____ _____    ______ ____
ROOT
ATOM      5  C   UNL     1      14.135   8.684  20.129  0.00  0.00    +0.001 C 
ATOM      6  C   UNL     1      13.910   8.820  21.642  0.00  0.00    +0.012 C 
ATOM      7  C   UNL     1      13.505   7.370  19.603  0.00  0.00    +0.040 C 
ATOM      8  C   UNL     1      12.414   8.814  22.011  0.00  0.00    +0.023 C 
ATOM     10  C   UNL     1      11.666   7.696  21.313  0.00  0.00    -0.073 C 
ATOM     11  C   UNL     1      12.176   7.053  20.247  0.00  0.00    -0.022 C 
ATOM     16  C   UNL     1      10.338   7.302  21.896  0.00  0.00    +0.039 C 
ENDROOT
BRANCH   5   9
ATOM      9  C   UNL     1      15.634   8.760  19.818  0.00  0.00    -0.013 C 
ATOM     14  C   UNL     1      16.268   9.944  20.543  0.00  0.00    +0.007 C 
ATOM     15  C   UNL     1      16.324   7.456  20.205  0.00  0.00    +0.007 C 
ENDBRANCH   5   9
BRANCH   8  12
ATOM     12  C   UNL     1      11.768  10.172  21.718  0.00  0.00    +0.103 C 
BRANCH  12  17
ATOM      2  O   UNL     1      10.946  10.156  23.994  0.00  0.00    -0.276 OA
ATOM      3  N   UNL     1      10.786  12.102  22.733  0.00  0.00    -0.310 N 
ATOM     17  C   UNL     1      11.129  10.775  22.949  0.00  0.00    +0.214 C 
ATOM     25  H   UNL     1      10.980  12.528  21.831  0.00  0.00    +0.149 HD
BRANCH   3  18
ATOM     18  C   UNL     1      10.158  12.928  23.737  0.00  0.00    +0.159 C 
BRANCH  18  19
ATOM      4  N   UNL     1      12.357  13.946  23.913  0.00  0.00    -0.258 NA
ATOM     19  C   UNL     1      11.161  13.737  24.508  0.00  0.00    +0.058 A 
ATOM     20  C   UNL     1      10.824  14.221  25.762  0.00  0.00    +0.025 A 
ATOM     21  C   UNL     1      11.775  14.966  26.449  0.00  0.00    +0.003 A 
ATOM     22  C   UNL     1      13.256  14.675  24.610  0.00  0.00    +0.111 A 
ATOM     23  C   UNL     1      13.017  15.202  25.870  0.00  0.00    +0.020 A 
ENDBRANCH  18  19
ENDBRANCH   3  18
ENDBRANCH  12  17
ENDBRANCH   8  12
BRANCH   7  13
ATOM     13  C   UNL     1      13.341   7.405  18.080  0.00  0.00    +0.163 C 
BRANCH  13   1
ATOM      1  O   UNL     1      12.054   6.911  17.761  0.00  0.00    -0.394 OA
ATOM     24  H   UNL     1      12.023   5.982  18.046  0.00  0.00    +0.209 HD
ENDBRANCH  13   1
ENDBRANCH   7  13
TORSDOF 7
ENDMDL
MODEL 8
REMARK VINA RESULT:      -5.5     16.779     18.883
REMARK  Name = 38030163
REMARK  10 active torsions:
REMARK  status: ('A' for Active; 'I' for Inactive)
REMARK    1  A    between atoms: O_1  and  C_13
REMARK    2  A    between atoms: N_3  and  C_18
REMARK    3  A    between atoms: C_5  and  C_9
REMARK    4  A    between atoms: C_7  and  C_13
REMARK    5  A    between atoms: C_8  and  C_12
REMARK    6  A    between atoms: C_9  and  C_14
REMARK    7  A    between atoms: C_9  and  C_15
REMARK    8  A    between atoms: C_10  and  C_16
REMARK    9  A    between atoms: C_12  and  C_17
REMARK   10  A    between atoms: C_18  and  C_19
REMARK                            x       y       z     vdW  Elec       q    Type
REMARK                         _______ _______ _______ _____ _____    ______ ____
ROOT
ATOM      5  C   UNL     1       9.867   6.974   6.183  0.00  0.00    +0.001 C 
ATOM      6  C   UNL     1       9.898   7.332   4.690  0.00  0.00    +0.012 C 
ATOM      7  C   UNL     1       9.351   5.526   6.382  0.00  0.00    +0.040 C 
ATOM      8  C   UNL     1      10.796   6.377   3.880  0.00  0.00    +0.023 C 
ATOM     10  C   UNL     1      10.528   4.925   4.222  0.00  0.00    -0.073 C 
ATOM     11  C   UNL     1       9.868   4.565   5.338  0.00  0.00    -0.022 C 
ATOM     16  C   UNL     1      10.995   3.898   3.229  0.00  0.00    +0.039 C 
ENDROOT
BRANCH   5   9
ATOM      9  C   UNL     1       9.012   7.993   6.943  0.00  0.00    -0.013 C 
ATOM     14  C   UNL     1       9.890   8.862   7.838  0.00  0.00    +0.007 C 
ATOM     15  C   UNL     1       8.215   8.852   5.967  0.00  0.00    +0.007 C 
ENDBRANCH   5   9
BRANCH   8  12
ATOM     12  C   UNL     1      12.278   6.720   4.068  0.00  0.00    +0.103 C 
BRANCH  12  17
ATOM      2  O   UNL     1      12.784   7.786   1.955  0.00  0.00    -0.276 OA
ATOM      3  N   UNL     1      13.918   5.849   2.562  0.00  0.00    -0.310 N 
ATOM     17  C   UNL     1      12.998   6.871   2.747  0.00  0.00    +0.214 C 
ATOM     25  H   UNL     1      14.024   5.136   3.278  0.00  0.00    +0.149 HD
BRANCH   3  18
ATOM     18  C   UNL     1      14.749   5.740   1.386  0.00  0.00    +0.159 C 
BRANCH  18  19
ATOM      4  N   UNL     1      14.039   5.614  -0.934  0.00  0.00    -0.258 NA
ATOM     19  C   UNL     1      14.057   5.006   0.274  0.00  0.00    +0.058 A 
ATOM     20  C   UNL     1      13.484   3.770   0.529  0.00  0.00    +0.025 A 
ATOM     21  C   UNL     1      12.852   3.118  -0.523  0.00  0.00    +0.003 A 
ATOM     22  C   UNL     1      13.416   4.950  -1.932  0.00  0.00    +0.111 A 
ATOM     23  C   UNL     1      12.812   3.711  -1.780  0.00  0.00    +0.020 A 
ENDBRANCH  18  19
ENDBRANCH   3  18
ENDBRANCH  12  17
ENDBRANCH   8  12
BRANCH   7  13
ATOM     13  C   UNL     1       9.700   5.001   7.778  0.00  0.00    +0.163 C 
BRANCH  13   1
ATOM      1  O   UNL     1      11.104   5.063   7.937  0.00  0.00    -0.394 OA
ATOM     24  H   UNL     1      11.474   5.401   7.104  0.00  0.00    +0.209 HD
ENDBRANCH  13   1
ENDBRANCH   7  13
TORSDOF 7
ENDMDL
MODEL 9
REMARK VINA RESULT:      -5.4     16.306     18.758
REMARK  Name = 38030163
REMARK  10 active torsions:
REMARK  status: ('A' for Active; 'I' for Inactive)
REMARK    1  A    between atoms: O_1  and  C_13
REMARK    2  A    between atoms: N_3  and  C_18
REMARK    3  A    between atoms: C_5  and  C_9
REMARK    4  A    between atoms: C_7  and  C_13
REMARK    5  A    between atoms: C_8  and  C_12
REMARK    6  A    between atoms: C_9  and  C_14
REMARK    7  A    between atoms: C_9  and  C_15
REMARK    8  A    between atoms: C_10  and  C_16
REMARK    9  A    between atoms: C_12  and  C_17
REMARK   10  A    between atoms: C_18  and  C_19
REMARK                            x       y       z     vdW  Elec       q    Type
REMARK                         _______ _______ _______ _____ _____    ______ ____
ROOT
ATOM      5  C   UNL     1      13.422   4.978   1.978  0.00  0.00    +0.001 C 
ATOM      6  C   UNL     1      12.948   6.405   2.291  0.00  0.00    +0.012 C 
ATOM      7  C   UNL     1      14.515   4.999   0.881  0.00  0.00    +0.040 C 
ATOM      8  C   UNL     1      14.100   7.310   2.767  0.00  0.00    +0.023 C 
ATOM     10  C   UNL     1      15.321   7.182   1.878  0.00  0.00    -0.073 C 
ATOM     11  C   UNL     1      15.483   6.149   1.032  0.00  0.00    -0.022 C 
ATOM     16  C   UNL     1      16.332   8.292   1.951  0.00  0.00    +0.039 C 
ENDROOT
BRANCH   5   9
ATOM      9  C   UNL     1      12.225   4.111   1.572  0.00  0.00    -0.013 C 
ATOM     14  C   UNL     1      11.291   3.903   2.761  0.00  0.00    +0.007 C 
ATOM     15  C   UNL     1      11.480   4.746   0.403  0.00  0.00    +0.007 C 
ENDBRANCH   5   9
BRANCH   8  12
ATOM     12  C   UNL     1      14.455   7.028   4.230  0.00  0.00    +0.103 C 
BRANCH  12  17
ATOM      2  O   UNL     1      12.966   8.697   5.156  0.00  0.00    -0.276 OA
ATOM      3  N   UNL     1      13.000   6.560   6.069  0.00  0.00    -0.310 N 
ATOM     17  C   UNL     1      13.399   7.548   5.181  0.00  0.00    +0.214 C 
ATOM     25  H   UNL     1      13.417   5.635   6.010  0.00  0.00    +0.149 HD
BRANCH   3  18
ATOM     18  C   UNL     1      12.002   6.774   7.091  0.00  0.00    +0.159 C 
BRANCH  18  19
ATOM      4  N   UNL     1      10.370   5.517   5.805  0.00  0.00    -0.258 NA
ATOM     19  C   UNL     1      10.607   6.613   6.559  0.00  0.00    +0.058 A 
ATOM     20  C   UNL     1       9.652   7.571   6.859  0.00  0.00    +0.025 A 
ATOM     21  C   UNL     1       8.370   7.391   6.351  0.00  0.00    +0.003 A 
ATOM     22  C   UNL     1       9.112   5.375   5.329  0.00  0.00    +0.111 A 
ATOM     23  C   UNL     1       8.087   6.276   5.571  0.00  0.00    +0.020 A 
ENDBRANCH  18  19
ENDBRANCH   3  18
ENDBRANCH  12  17
ENDBRANCH   8  12
BRANCH   7  13
ATOM     13  C   UNL     1      15.292   3.678   0.849  0.00  0.00    +0.163 C 
BRANCH  13   1
ATOM      1  O   UNL     1      15.502   3.254   2.181  0.00  0.00    -0.394 OA
ATOM     24  H   UNL     1      16.121   3.882   2.590  0.00  0.00    +0.209 HD
ENDBRANCH  13   1
ENDBRANCH   7  13
TORSDOF 7
ENDMDL
MODEL 10
REMARK VINA RESULT:      -5.4     32.529     34.589
REMARK  Name = 38030163
REMARK  10 active torsions:
REMARK  status: ('A' for Active; 'I' for Inactive)
REMARK    1  A    between atoms: O_1  and  C_13
REMARK    2  A    between atoms: N_3  and  C_18
REMARK    3  A    between atoms: C_5  and  C_9
REMARK    4  A    between atoms: C_7  and  C_13
REMARK    5  A    between atoms: C_8  and  C_12
REMARK    6  A    between atoms: C_9  and  C_14
REMARK    7  A    between atoms: C_9  and  C_15
REMARK    8  A    between atoms: C_10  and  C_16
REMARK    9  A    between atoms: C_12  and  C_17
REMARK   10  A    between atoms: C_18  and  C_19
REMARK                            x       y       z     vdW  Elec       q    Type
REMARK                         _______ _______ _______ _____ _____    ______ ____
ROOT
ATOM      5  C   UNL     1     -15.263   3.884  30.815  0.00  0.00    +0.001 C 
ATOM      6  C   UNL     1     -16.483   3.030  30.438  0.00  0.00    +0.012 C 
ATOM      7  C   UNL     1     -14.535   3.279  32.041  0.00  0.00    +0.040 C 
ATOM      8  C   UNL     1     -16.095   1.576  30.107  0.00  0.00    +0.023 C 
ATOM     10  C   UNL     1     -15.154   0.994  31.143  0.00  0.00    -0.073 C 
ATOM     11  C   UNL     1     -14.476   1.770  32.007  0.00  0.00    -0.022 C 
ATOM     16  C   UNL     1     -15.044  -0.505  31.192  0.00  0.00    +0.039 C 
ENDROOT
BRANCH   5   9
ATOM      9  C   UNL     1     -15.702   5.330  31.071  0.00  0.00    -0.013 C 
ATOM     14  C   UNL     1     -16.532   5.850  29.901  0.00  0.00    +0.007 C 
ATOM     15  C   UNL     1     -16.488   5.424  32.375  0.00  0.00    +0.007 C 
ENDBRANCH   5   9
BRANCH   8  12
ATOM     12  C   UNL     1     -15.495   1.472  28.701  0.00  0.00    +0.103 C 
BRANCH  12  17
ATOM      2  O   UNL     1     -17.408   0.484  27.595  0.00  0.00    -0.276 OA
ATOM      3  N   UNL     1     -16.450   2.413  26.721  0.00  0.00    -0.310 N 
ATOM     17  C   UNL     1     -16.562   1.374  27.633  0.00  0.00    +0.214 C 
ATOM     25  H   UNL     1     -15.715   3.105  26.838  0.00  0.00    +0.149 HD
BRANCH   3  18
ATOM     18  C   UNL     1     -17.338   2.572  25.593  0.00  0.00    +0.159 C 
BRANCH  18  19
ATOM      4  N   UNL     1     -17.516   3.706  23.453  0.00  0.00    -0.258 NA
ATOM     19  C   UNL     1     -16.724   3.407  24.507  0.00  0.00    +0.058 A 
ATOM     20  C   UNL     1     -15.409   3.824  24.632  0.00  0.00    +0.025 A 
ATOM     21  C   UNL     1     -14.872   4.596  23.609  0.00  0.00    +0.003 A 
ATOM     22  C   UNL     1     -16.959   4.459  22.477  0.00  0.00    +0.111 A 
ATOM     23  C   UNL     1     -15.654   4.925  22.508  0.00  0.00    +0.020 A 
ENDBRANCH  18  19
ENDBRANCH   3  18
ENDBRANCH  12  17
ENDBRANCH   8  12
BRANCH   7  13
ATOM     13  C   UNL     1     -13.117   3.843  32.177  0.00  0.00    +0.163 C 
BRANCH  13   1
ATOM      1  O   UNL     1     -12.336   3.342  31.111  0.00  0.00    -0.394 OA
ATOM     24  H   UNL     1     -12.614   2.423  30.956  0.00  0.00    +0.209 HD
ENDBRANCH  13   1
ENDBRANCH   7  13
TORSDOF 7
ENDMDL
