MODEL 1
REMARK VINA RESULT:      -5.7      0.000      0.000
REMARK  Name = 56775505
REMARK  9 active torsions:
REMARK  status: ('A' for Active; 'I' for Inactive)
REMARK    1  A    between atoms: O_4  and  C_16
REMARK    2  A    between atoms: N_5  and  C_7
REMARK    3  A    between atoms: N_5  and  C_12
REMARK    4  A    between atoms: C_7  and  C_10
REMARK    5  A    between atoms: C_10  and  C_11
REMARK    6  A    between atoms: C_12  and  C_15
REMARK    7  A    between atoms: C_14  and  C_16
REMARK    8  A    between atoms: C_16  and  C_17
REMARK    9  A    between atoms: C_16  and  C_18
REMARK                            x       y       z     vdW  Elec       q    Type
REMARK                         _______ _______ _______ _____ _____    ______ ____
ROOT
ATOM      2  O   UNL     1      -2.035 -14.284  14.092  0.00  0.00    -0.376 OA
ATOM      7  C   UNL     1      -2.184 -12.198  13.665  0.00  0.00    +0.072 C 
ATOM      8  C   UNL     1      -3.104 -13.312  14.153  0.00  0.00    +0.184 C 
ATOM      9  C   UNL     1      -1.089 -13.257  13.717  0.00  0.00    +0.184 C 
ENDROOT
BRANCH   7   5
ATOM      5  N   UNL     1      -2.496 -11.910  12.262  0.00  0.00    -0.302 NA
ATOM     24  H   UNL     1      -3.427 -12.192  11.960  0.00  0.00    +0.123 HD
BRANCH   5  12
ATOM     12  C   UNL     1      -2.305 -10.480  12.012  0.00  0.00    +0.117 C 
BRANCH  12  15
ATOM      1 CL   UNL     1      -6.862  -8.076   8.934  0.00  0.00    -0.084 Cl
ATOM     15  C   UNL     1      -3.437  -9.883  11.247  0.00  0.00    -0.033 A 
ATOM     19  C   UNL     1      -4.725  -9.893  11.785  0.00  0.00    +0.006 A 
ATOM     20  C   UNL     1      -3.209  -9.315   9.993  0.00  0.00    +0.006 A 
ATOM     21  C   UNL     1      -5.783  -9.335  11.069  0.00  0.00    +0.020 A 
ATOM     22  C   UNL     1      -4.268  -8.757   9.277  0.00  0.00    +0.020 A 
ATOM     23  C   UNL     1      -5.555  -8.767   9.815  0.00  0.00    +0.041 A 
ENDBRANCH  12  15
ENDBRANCH   5  12
ENDBRANCH   7   5
BRANCH   7  10
ATOM     10  C   UNL     1      -2.036 -10.960  14.496  0.00  0.00    +0.085 C 
BRANCH  10  11
ATOM      3  O   UNL     1      -4.155 -10.872  17.422  0.00  0.00    -0.356 OA
ATOM      6  N   UNL     1      -2.927 -11.052  16.797  0.00  0.00    -0.083 NA
ATOM     11  C   UNL     1      -3.166 -10.848  15.499  0.00  0.00    +0.086 A 
ATOM     13  C   UNL     1      -4.515 -10.539  15.247  0.00  0.00    +0.074 A 
ATOM     14  C   UNL     1      -5.092 -10.567  16.489  0.00  0.00    +0.168 A 
BRANCH  14  16
ATOM     16  C   UNL     1      -6.457 -10.342  16.980  0.00  0.00    +0.120 C 
ATOM     17  C   UNL     1      -7.463 -11.429  16.498  0.00  0.00    +0.049 C 
ATOM     18  C   UNL     1      -6.538 -10.255  18.532  0.00  0.00    +0.049 C 
BRANCH  16   4
ATOM      4  O   UNL     1      -7.019  -9.085  16.511  0.00  0.00    -0.381 OA
ATOM     25  H   UNL     1      -7.055  -8.468  17.263  0.00  0.00    +0.211 HD
ENDBRANCH  16   4
ENDBRANCH  14  16
ENDBRANCH  10  11
ENDBRANCH   7  10
TORSDOF 7
ENDMDL
MODEL 2
REMARK VINA RESULT:      -5.6      3.276      6.281
REMARK  Name = 56775505
REMARK  9 active torsions:
REMARK  status: ('A' for Active; 'I' for Inactive)
REMARK    1  A    between atoms: O_4  and  C_16
REMARK    2  A    between atoms: N_5  and  C_7
REMARK    3  A    between atoms: N_5  and  C_12
REMARK    4  A    between atoms: C_7  and  C_10
REMARK    5  A    between atoms: C_10  and  C_11
REMARK    6  A    between atoms: C_12  and  C_15
REMARK    7  A    between atoms: C_14  and  C_16
REMARK    8  A    between atoms: C_16  and  C_17
REMARK    9  A    between atoms: C_16  and  C_18
REMARK                            x       y       z     vdW  Elec       q    Type
REMARK                         _______ _______ _______ _____ _____    ______ ____
ROOT
ATOM      2  O   UNL     1      -2.152 -13.952  12.979  0.00  0.00    -0.376 OA
ATOM      7  C   UNL     1      -2.302 -12.091  14.013  0.00  0.00    +0.072 C 
ATOM      8  C   UNL     1      -1.199 -13.055  13.593  0.00  0.00    +0.184 C 
ATOM      9  C   UNL     1      -3.235 -13.037  13.263  0.00  0.00    +0.184 C 
ENDROOT
BRANCH   7   5
ATOM      5  N   UNL     1      -2.537 -12.239  15.451  0.00  0.00    -0.302 NA
ATOM     24  H   UNL     1      -1.795 -12.716  15.963  0.00  0.00    +0.123 HD
BRANCH   5  12
ATOM     12  C   UNL     1      -2.773 -10.919  16.038  0.00  0.00    +0.117 C 
BRANCH  12  15
ATOM      1 CL   UNL     1      -7.760 -10.766  19.374  0.00  0.00    -0.084 Cl
ATOM     15  C   UNL     1      -4.012 -10.881  16.867  0.00  0.00    -0.033 A 
ATOM     19  C   UNL     1      -5.110 -10.130  16.446  0.00  0.00    +0.006 A 
ATOM     20  C   UNL     1      -4.073 -11.595  18.064  0.00  0.00    +0.006 A 
ATOM     21  C   UNL     1      -6.268 -10.094  17.222  0.00  0.00    +0.020 A 
ATOM     22  C   UNL     1      -5.231 -11.559  18.840  0.00  0.00    +0.020 A 
ATOM     23  C   UNL     1      -6.329 -10.809  18.419  0.00  0.00    +0.041 A 
ENDBRANCH  12  15
ENDBRANCH   5  12
ENDBRANCH   7   5
BRANCH   7  10
ATOM     10  C   UNL     1      -2.220 -10.659  13.579  0.00  0.00    +0.085 C 
BRANCH  10  11
ATOM      3  O   UNL     1      -5.212  -9.951  11.680  0.00  0.00    -0.356 OA
ATOM      6  N   UNL     1      -4.543 -10.218  12.868  0.00  0.00    -0.083 NA
ATOM     11  C   UNL     1      -3.261 -10.358  12.520  0.00  0.00    +0.086 A 
ATOM     13  C   UNL     1      -3.062 -10.191  11.138  0.00  0.00    +0.074 A 
ATOM     14  C   UNL     1      -4.319  -9.937  10.657  0.00  0.00    +0.168 A 
BRANCH  14  16
ATOM     16  C   UNL     1      -4.859  -9.667   9.320  0.00  0.00    +0.120 C 
ATOM     17  C   UNL     1      -4.652 -10.851   8.330  0.00  0.00    +0.049 C 
ATOM     18  C   UNL     1      -6.374  -9.304   9.338  0.00  0.00    +0.049 C 
BRANCH  16   4
ATOM      4  O   UNL     1      -4.217  -8.532   8.676  0.00  0.00    -0.381 OA
ATOM     25  H   UNL     1      -3.727  -8.035   9.354  0.00  0.00    +0.211 HD
ENDBRANCH  16   4
ENDBRANCH  14  16
ENDBRANCH  10  11
ENDBRANCH   7  10
TORSDOF 7
ENDMDL
MODEL 3
REMARK VINA RESULT:      -5.5      2.448      3.869
REMARK  Name = 56775505
REMARK  9 active torsions:
REMARK  status: ('A' for Active; 'I' for Inactive)
REMARK    1  A    between atoms: O_4  and  C_16
REMARK    2  A    between atoms: N_5  and  C_7
REMARK    3  A    between atoms: N_5  and  C_12
REMARK    4  A    between atoms: C_7  and  C_10
REMARK    5  A    between atoms: C_10  and  C_11
REMARK    6  A    between atoms: C_12  and  C_15
REMARK    7  A    between atoms: C_14  and  C_16
REMARK    8  A    between atoms: C_16  and  C_17
REMARK    9  A    between atoms: C_16  and  C_18
REMARK                            x       y       z     vdW  Elec       q    Type
REMARK                         _______ _______ _______ _____ _____    ______ ____
ROOT
ATOM      2  O   UNL     1      -5.925 -13.880  17.074  0.00  0.00    -0.376 OA
ATOM      7  C   UNL     1      -4.746 -12.114  16.861  0.00  0.00    +0.072 C 
ATOM      8  C   UNL     1      -5.985 -12.721  16.212  0.00  0.00    +0.184 C 
ATOM      9  C   UNL     1      -4.806 -13.318  17.795  0.00  0.00    +0.184 C 
ENDROOT
BRANCH   7   5
ATOM      5  N   UNL     1      -3.609 -12.278  15.952  0.00  0.00    -0.302 NA
ATOM     24  H   UNL     1      -3.806 -12.807  15.104  0.00  0.00    +0.123 HD
BRANCH   5  12
ATOM     12  C   UNL     1      -3.082 -10.958  15.601  0.00  0.00    +0.117 C 
BRANCH  12  15
ATOM      1 CL   UNL     1      -3.609  -9.779   9.740  0.00  0.00    -0.084 Cl
ATOM     15  C   UNL     1      -3.213 -10.665  14.145  0.00  0.00    -0.033 A 
ATOM     19  C   UNL     1      -2.073 -10.570  13.347  0.00  0.00    +0.006 A 
ATOM     20  C   UNL     1      -4.476 -10.485  13.580  0.00  0.00    +0.006 A 
ATOM     21  C   UNL     1      -2.195 -10.295  11.985  0.00  0.00    +0.020 A 
ATOM     22  C   UNL     1      -4.599 -10.210  12.218  0.00  0.00    +0.020 A 
ATOM     23  C   UNL     1      -3.459 -10.115  11.421  0.00  0.00    +0.041 A 
ENDBRANCH  12  15
ENDBRANCH   5  12
ENDBRANCH   7   5
BRANCH   7  10
ATOM     10  C   UNL     1      -4.833 -10.737  17.447  0.00  0.00    +0.085 C 
BRANCH  10  11
ATOM      3  O   UNL     1      -8.230 -10.177  18.544  0.00  0.00    -0.356 OA
ATOM      6  N   UNL     1      -6.966 -10.735  18.690  0.00  0.00    -0.083 NA
ATOM     11  C   UNL     1      -6.278 -10.319  17.624  0.00  0.00    +0.086 A 
ATOM     13  C   UNL     1      -7.049  -9.503  16.777  0.00  0.00    +0.074 A 
ATOM     14  C   UNL     1      -8.267  -9.445  17.401  0.00  0.00    +0.168 A 
BRANCH  14  16
ATOM     16  C   UNL     1      -9.538  -8.781  17.090  0.00  0.00    +0.120 C 
ATOM     17  C   UNL     1      -9.728  -8.516  15.568  0.00  0.00    +0.049 C 
ATOM     18  C   UNL     1     -10.778  -9.567  17.608  0.00  0.00    +0.049 C 
BRANCH  16   4
ATOM      4  O   UNL     1      -9.649  -7.470  17.710  0.00  0.00    -0.381 OA
ATOM     25  H   UNL     1     -10.550  -7.374  18.063  0.00  0.00    +0.211 HD
ENDBRANCH  16   4
ENDBRANCH  14  16
ENDBRANCH  10  11
ENDBRANCH   7  10
TORSDOF 7
ENDMDL
MODEL 4
REMARK VINA RESULT:      -5.5      3.785      7.043
REMARK  Name = 56775505
REMARK  9 active torsions:
REMARK  status: ('A' for Active; 'I' for Inactive)
REMARK    1  A    between atoms: O_4  and  C_16
REMARK    2  A    between atoms: N_5  and  C_7
REMARK    3  A    between atoms: N_5  and  C_12
REMARK    4  A    between atoms: C_7  and  C_10
REMARK    5  A    between atoms: C_10  and  C_11
REMARK    6  A    between atoms: C_12  and  C_15
REMARK    7  A    between atoms: C_14  and  C_16
REMARK    8  A    between atoms: C_16  and  C_17
REMARK    9  A    between atoms: C_16  and  C_18
REMARK                            x       y       z     vdW  Elec       q    Type
REMARK                         _______ _______ _______ _____ _____    ______ ____
ROOT
ATOM      2  O   UNL     1      -7.478 -13.294  18.892  0.00  0.00    -0.376 OA
ATOM      7  C   UNL     1      -7.187 -11.294  18.206  0.00  0.00    +0.072 C 
ATOM      8  C   UNL     1      -7.676 -11.986  19.473  0.00  0.00    +0.184 C 
ATOM      9  C   UNL     1      -6.915 -12.707  17.697  0.00  0.00    +0.184 C 
ENDROOT
BRANCH   7   5
ATOM      5  N   UNL     1      -8.343 -10.750  17.489  0.00  0.00    -0.302 NA
ATOM     24  H   UNL     1      -9.232 -11.208  17.690  0.00  0.00    +0.123 HD
BRANCH   5  12
ATOM     12  C   UNL     1      -8.450  -9.317  17.769  0.00  0.00    +0.117 C 
BRANCH  12  15
ATOM      1 CL   UNL     1     -13.599  -6.977  15.761  0.00  0.00    -0.084 Cl
ATOM     15  C   UNL     1      -9.729  -8.736  17.271  0.00  0.00    -0.033 A 
ATOM     19  C   UNL     1      -9.707  -7.672  16.369  0.00  0.00    +0.006 A 
ATOM     20  C   UNL     1     -10.949  -9.256  17.706  0.00  0.00    +0.006 A 
ATOM     21  C   UNL     1     -10.904  -7.127  15.903  0.00  0.00    +0.020 A 
ATOM     22  C   UNL     1     -12.146  -8.711  17.240  0.00  0.00    +0.020 A 
ATOM     23  C   UNL     1     -12.123  -7.648  16.339  0.00  0.00    +0.041 A 
ENDBRANCH  12  15
ENDBRANCH   5  12
ENDBRANCH   7   5
BRANCH   7  10
ATOM     10  C   UNL     1      -6.048 -10.326  18.299  0.00  0.00    +0.085 C 
BRANCH  10  11
ATOM      3  O   UNL     1      -4.545 -10.297  15.013  0.00  0.00    -0.356 OA
ATOM      6  N   UNL     1      -5.605 -10.076  15.883  0.00  0.00    -0.083 NA
ATOM     11  C   UNL     1      -5.148 -10.435  17.085  0.00  0.00    +0.086 A 
ATOM     13  C   UNL     1      -3.817 -10.887  17.037  0.00  0.00    +0.074 A 
ATOM     14  C   UNL     1      -3.485 -10.780  15.712  0.00  0.00    +0.168 A 
BRANCH  14  16
ATOM     16  C   UNL     1      -2.270 -11.070  14.943  0.00  0.00    +0.120 C 
ATOM     17  C   UNL     1      -2.352 -10.576  13.469  0.00  0.00    +0.049 C 
ATOM     18  C   UNL     1      -0.985 -10.473  15.589  0.00  0.00    +0.049 C 
BRANCH  16   4
ATOM      4  O   UNL     1      -2.002 -12.496  14.840  0.00  0.00    -0.381 OA
ATOM     25  H   UNL     1      -2.767 -12.977  15.201  0.00  0.00    +0.211 HD
ENDBRANCH  16   4
ENDBRANCH  14  16
ENDBRANCH  10  11
ENDBRANCH   7  10
TORSDOF 7
ENDMDL
MODEL 5
REMARK VINA RESULT:      -5.4     26.513     27.695
REMARK  Name = 56775505
REMARK  9 active torsions:
REMARK  status: ('A' for Active; 'I' for Inactive)
REMARK    1  A    between atoms: O_4  and  C_16
REMARK    2  A    between atoms: N_5  and  C_7
REMARK    3  A    between atoms: N_5  and  C_12
REMARK    4  A    between atoms: C_7  and  C_10
REMARK    5  A    between atoms: C_10  and  C_11
REMARK    6  A    between atoms: C_12  and  C_15
REMARK    7  A    between atoms: C_14  and  C_16
REMARK    8  A    between atoms: C_16  and  C_17
REMARK    9  A    between atoms: C_16  and  C_18
REMARK                            x       y       z     vdW  Elec       q    Type
REMARK                         _______ _______ _______ _____ _____    ______ ____
ROOT
ATOM      2  O   UNL     1      -8.107  -9.191  42.005  0.00  0.00    -0.376 OA
ATOM      7  C   UNL     1      -7.022  -7.985  40.617  0.00  0.00    +0.072 C 
ATOM      8  C   UNL     1      -7.245  -9.471  40.878  0.00  0.00    +0.184 C 
ATOM      9  C   UNL     1      -8.015  -7.770  41.756  0.00  0.00    +0.184 C 
ENDROOT
BRANCH   7   5
ATOM      5  N   UNL     1      -5.682  -7.620  41.085  0.00  0.00    -0.302 NA
ATOM     24  H   UNL     1      -5.171  -8.366  41.556  0.00  0.00    +0.123 HD
BRANCH   5  12
ATOM     12  C   UNL     1      -4.899  -7.121  39.953  0.00  0.00    +0.117 C 
BRANCH  12  15
ATOM      1 CL   UNL     1      -0.665  -3.220  41.648  0.00  0.00    -0.084 Cl
ATOM     15  C   UNL     1      -3.847  -6.153  40.375  0.00  0.00    -0.033 A 
ATOM     19  C   UNL     1      -2.820  -5.812  39.494  0.00  0.00    +0.006 A 
ATOM     20  C   UNL     1      -3.890  -5.586  41.649  0.00  0.00    +0.006 A 
ATOM     21  C   UNL     1      -1.835  -4.906  39.889  0.00  0.00    +0.020 A 
ATOM     22  C   UNL     1      -2.905  -4.681  42.044  0.00  0.00    +0.020 A 
ATOM     23  C   UNL     1      -1.878  -4.340  41.164  0.00  0.00    +0.041 A 
ENDBRANCH  12  15
ENDBRANCH   5  12
ENDBRANCH   7   5
BRANCH   7  10
ATOM     10  C   UNL     1      -7.340  -7.429  39.263  0.00  0.00    +0.085 C 
BRANCH  10  11
ATOM      3  O   UNL     1      -9.991  -4.976  39.365  0.00  0.00    -0.356 OA
ATOM      6  N   UNL     1      -9.519  -6.269  39.182  0.00  0.00    -0.083 NA
ATOM     11  C   UNL     1      -8.200  -6.187  39.380  0.00  0.00    +0.086 A 
ATOM     13  C   UNL     1      -7.787  -4.879  39.689  0.00  0.00    +0.074 A 
ATOM     14  C   UNL     1      -8.951  -4.157  39.667  0.00  0.00    +0.168 A 
BRANCH  14  16
ATOM     16  C   UNL     1      -9.274  -2.744  39.894  0.00  0.00    +0.120 C 
ATOM     17  C   UNL     1     -10.673  -2.343  39.340  0.00  0.00    +0.049 C 
ATOM     18  C   UNL     1      -9.209  -2.339  41.397  0.00  0.00    +0.049 C 
BRANCH  16   4
ATOM      4  O   UNL     1      -8.343  -1.844  39.231  0.00  0.00    -0.381 OA
ATOM     25  H   UNL     1      -8.807  -1.416  38.491  0.00  0.00    +0.211 HD
ENDBRANCH  16   4
ENDBRANCH  14  16
ENDBRANCH  10  11
ENDBRANCH   7  10
TORSDOF 7
ENDMDL
MODEL 6
REMARK VINA RESULT:      -5.4      3.116      6.195
REMARK  Name = 56775505
REMARK  9 active torsions:
REMARK  status: ('A' for Active; 'I' for Inactive)
REMARK    1  A    between atoms: O_4  and  C_16
REMARK    2  A    between atoms: N_5  and  C_7
REMARK    3  A    between atoms: N_5  and  C_12
REMARK    4  A    between atoms: C_7  and  C_10
REMARK    5  A    between atoms: C_10  and  C_11
REMARK    6  A    between atoms: C_12  and  C_15
REMARK    7  A    between atoms: C_14  and  C_16
REMARK    8  A    between atoms: C_16  and  C_17
REMARK    9  A    between atoms: C_16  and  C_18
REMARK                            x       y       z     vdW  Elec       q    Type
REMARK                         _______ _______ _______ _____ _____    ______ ____
ROOT
ATOM      2  O   UNL     1      -5.298 -12.932  18.609  0.00  0.00    -0.376 OA
ATOM      7  C   UNL     1      -5.569 -11.179  17.422  0.00  0.00    +0.072 C 
ATOM      8  C   UNL     1      -5.489 -11.529  18.903  0.00  0.00    +0.184 C 
ATOM      9  C   UNL     1      -5.269 -12.657  17.190  0.00  0.00    +0.184 C 
ENDROOT
BRANCH   7   5
ATOM      5  N   UNL     1      -6.969 -10.922  17.073  0.00  0.00    -0.302 NA
ATOM     24  H   UNL     1      -7.649 -11.507  17.555  0.00  0.00    +0.123 HD
BRANCH   5  12
ATOM     12  C   UNL     1      -7.271  -9.510  17.314  0.00  0.00    +0.117 C 
BRANCH  12  15
ATOM      1 CL   UNL     1     -12.212  -7.706  14.424  0.00  0.00    -0.084 Cl
ATOM     15  C   UNL     1      -8.499  -9.062  16.595  0.00  0.00    -0.033 A 
ATOM     19  C   UNL     1      -9.422  -8.237  17.239  0.00  0.00    +0.006 A 
ATOM     20  C   UNL     1      -8.726  -9.469  15.280  0.00  0.00    +0.006 A 
ATOM     21  C   UNL     1     -10.570  -7.819  16.567  0.00  0.00    +0.020 A 
ATOM     22  C   UNL     1      -9.874  -9.051  14.609  0.00  0.00    +0.020 A 
ATOM     23  C   UNL     1     -10.796  -8.225  15.252  0.00  0.00    +0.041 A 
ENDBRANCH  12  15
ENDBRANCH   5  12
ENDBRANCH   7   5
BRANCH   7  10
ATOM     10  C   UNL     1      -4.630 -10.153  16.865  0.00  0.00    +0.085 C 
BRANCH  10  11
ATOM      3  O   UNL     1      -4.652 -10.698  13.292  0.00  0.00    -0.356 OA
ATOM      6  N   UNL     1      -5.275 -10.377  14.492  0.00  0.00    -0.083 NA
ATOM     11  C   UNL     1      -4.311 -10.448  15.413  0.00  0.00    +0.086 A 
ATOM     13  C   UNL     1      -3.069 -10.807  14.860  0.00  0.00    +0.074 A 
ATOM     14  C   UNL     1      -3.338 -10.952  13.524  0.00  0.00    +0.168 A 
BRANCH  14  16
ATOM     16  C   UNL     1      -2.524 -11.310  12.357  0.00  0.00    +0.120 C 
ATOM     17  C   UNL     1      -3.369 -11.870  11.176  0.00  0.00    +0.049 C 
ATOM     18  C   UNL     1      -1.668 -10.123  11.826  0.00  0.00    +0.049 C 
BRANCH  16   4
ATOM      4  O   UNL     1      -1.559 -12.357  12.650  0.00  0.00    -0.381 OA
ATOM     25  H   UNL     1      -2.020 -13.077  13.114  0.00  0.00    +0.211 HD
ENDBRANCH  16   4
ENDBRANCH  14  16
ENDBRANCH  10  11
ENDBRANCH   7  10
TORSDOF 7
ENDMDL
MODEL 7
REMARK VINA RESULT:      -5.4     20.692     21.884
REMARK  Name = 56775505
REMARK  9 active torsions:
REMARK  status: ('A' for Active; 'I' for Inactive)
REMARK    1  A    between atoms: O_4  and  C_16
REMARK    2  A    between atoms: N_5  and  C_7
REMARK    3  A    between atoms: N_5  and  C_12
REMARK    4  A    between atoms: C_7  and  C_10
REMARK    5  A    between atoms: C_10  and  C_11
REMARK    6  A    between atoms: C_12  and  C_15
REMARK    7  A    between atoms: C_14  and  C_16
REMARK    8  A    between atoms: C_16  and  C_17
REMARK    9  A    between atoms: C_16  and  C_18
REMARK                            x       y       z     vdW  Elec       q    Type
REMARK                         _______ _______ _______ _____ _____    ______ ____
ROOT
ATOM      2  O   UNL     1     -17.878   5.789  20.537  0.00  0.00    -0.376 OA
ATOM      7  C   UNL     1     -15.978   5.856  21.507  0.00  0.00    +0.072 C 
ATOM      8  C   UNL     1     -17.442   5.738  21.915  0.00  0.00    +0.184 C 
ATOM      9  C   UNL     1     -16.508   5.808  20.078  0.00  0.00    +0.184 C 
ENDROOT
BRANCH   7   5
ATOM      5  N   UNL     1     -15.517   7.218  21.793  0.00  0.00    -0.302 NA
ATOM     24  H   UNL     1     -16.127   7.762  22.401  0.00  0.00    +0.123 HD
BRANCH   5  12
ATOM     12  C   UNL     1     -14.171   7.158  22.366  0.00  0.00    +0.117 C 
BRANCH  12  15
ATOM      1 CL   UNL     1     -10.058   9.687  18.803  0.00  0.00    -0.084 Cl
ATOM     15  C   UNL     1     -13.149   7.787  21.482  0.00  0.00    -0.033 A 
ATOM     19  C   UNL     1     -12.267   6.985  20.756  0.00  0.00    +0.006 A 
ATOM     20  C   UNL     1     -13.074   9.176  21.379  0.00  0.00    +0.006 A 
ATOM     21  C   UNL     1     -11.311   7.573  19.928  0.00  0.00    +0.020 A 
ATOM     22  C   UNL     1     -12.118   9.764  20.552  0.00  0.00    +0.020 A 
ATOM     23  C   UNL     1     -11.236   8.963  19.826  0.00  0.00    +0.041 A 
ENDBRANCH  12  15
ENDBRANCH   5  12
ENDBRANCH   7   5
BRANCH   7  10
ATOM     10  C   UNL     1     -15.010   4.805  21.958  0.00  0.00    +0.085 C 
BRANCH  10  11
ATOM      3  O   UNL     1     -16.557   2.428  24.198  0.00  0.00    -0.356 OA
ATOM      6  N   UNL     1     -16.177   2.860  22.933  0.00  0.00    -0.083 NA
ATOM     11  C   UNL     1     -15.568   4.031  23.135  0.00  0.00    +0.086 A 
ATOM     13  C   UNL     1     -15.534   4.387  24.495  0.00  0.00    +0.074 A 
ATOM     14  C   UNL     1     -16.168   3.346  25.120  0.00  0.00    +0.168 A 
BRANCH  14  16
ATOM     16  C   UNL     1     -16.492   3.047  26.519  0.00  0.00    +0.120 C 
ATOM     17  C   UNL     1     -17.697   3.874  27.054  0.00  0.00    +0.049 C 
ATOM     18  C   UNL     1     -16.787   1.538  26.765  0.00  0.00    +0.049 C 
BRANCH  16   4
ATOM      4  O   UNL     1     -15.398   3.360  27.425  0.00  0.00    -0.381 OA
ATOM     25  H   UNL     1     -15.148   4.290  27.291  0.00  0.00    +0.211 HD
ENDBRANCH  16   4
ENDBRANCH  14  16
ENDBRANCH  10  11
ENDBRANCH   7  10
TORSDOF 7
ENDMDL
MODEL 8
REMARK VINA RESULT:      -5.3      3.529      5.927
REMARK  Name = 56775505
REMARK  9 active torsions:
REMARK  status: ('A' for Active; 'I' for Inactive)
REMARK    1  A    between atoms: O_4  and  C_16
REMARK    2  A    between atoms: N_5  and  C_7
REMARK    3  A    between atoms: N_5  and  C_12
REMARK    4  A    between atoms: C_7  and  C_10
REMARK    5  A    between atoms: C_10  and  C_11
REMARK    6  A    between atoms: C_12  and  C_15
REMARK    7  A    between atoms: C_14  and  C_16
REMARK    8  A    between atoms: C_16  and  C_17
REMARK    9  A    between atoms: C_16  and  C_18
REMARK                            x       y       z     vdW  Elec       q    Type
REMARK                         _______ _______ _______ _____ _____    ______ ____
ROOT
ATOM      2  O   UNL     1      -7.909 -12.842  19.194  0.00  0.00    -0.376 OA
ATOM      7  C   UNL     1      -6.931 -11.246  18.168  0.00  0.00    +0.072 C 
ATOM      8  C   UNL     1      -8.176 -12.106  17.978  0.00  0.00    +0.184 C 
ATOM      9  C   UNL     1      -6.770 -12.000  19.484  0.00  0.00    +0.184 C 
ENDROOT
BRANCH   7   5
ATOM      5  N   UNL     1      -5.897 -11.700  17.234  0.00  0.00    -0.302 NA
ATOM     24  H   UNL     1      -6.200 -11.794  16.266  0.00  0.00    +0.123 HD
BRANCH   5  12
ATOM     12  C   UNL     1      -4.752 -10.791  17.309  0.00  0.00    +0.117 C 
BRANCH  12  15
ATOM      1 CL   UNL     1      -1.776 -10.444  12.108  0.00  0.00    -0.084 Cl
ATOM     15  C   UNL     1      -4.012 -10.706  16.017  0.00  0.00    -0.033 A 
ATOM     19  C   UNL     1      -4.714 -10.679  14.812  0.00  0.00    +0.006 A 
ATOM     20  C   UNL     1      -2.618 -10.652  16.013  0.00  0.00    +0.006 A 
ATOM     21  C   UNL     1      -4.023 -10.599  13.603  0.00  0.00    +0.020 A 
ATOM     22  C   UNL     1      -1.926 -10.572  14.804  0.00  0.00    +0.020 A 
ATOM     23  C   UNL     1      -2.628 -10.545  13.600  0.00  0.00    +0.041 A 
ENDBRANCH  12  15
ENDBRANCH   5  12
ENDBRANCH   7   5
BRANCH   7  10
ATOM     10  C   UNL     1      -7.076  -9.755  18.200  0.00  0.00    +0.085 C 
BRANCH  10  11
ATOM      3  O   UNL     1      -9.038  -9.038  15.251  0.00  0.00    -0.356 OA
ATOM      6  N   UNL     1      -7.944  -9.606  15.893  0.00  0.00    -0.083 NA
ATOM     11  C   UNL     1      -8.098  -9.292  17.182  0.00  0.00    +0.086 A 
ATOM     13  C   UNL     1      -9.261  -8.535  17.412  0.00  0.00    +0.074 A 
ATOM     14  C   UNL     1      -9.815  -8.404  16.166  0.00  0.00    +0.168 A 
BRANCH  14  16
ATOM     16  C   UNL     1     -11.022  -7.744  15.655  0.00  0.00    +0.120 C 
ATOM     17  C   UNL     1     -10.908  -6.191  15.644  0.00  0.00    +0.049 C 
ATOM     18  C   UNL     1     -11.412  -8.216  14.223  0.00  0.00    +0.049 C 
BRANCH  16   4
ATOM      4  O   UNL     1     -12.196  -8.023  16.467  0.00  0.00    -0.381 OA
ATOM     25  H   UNL     1     -12.846  -7.314  16.316  0.00  0.00    +0.211 HD
ENDBRANCH  16   4
ENDBRANCH  14  16
ENDBRANCH  10  11
ENDBRANCH   7  10
TORSDOF 7
ENDMDL
MODEL 9
REMARK VINA RESULT:      -5.3     20.484     22.015
REMARK  Name = 56775505
REMARK  9 active torsions:
REMARK  status: ('A' for Active; 'I' for Inactive)
REMARK    1  A    between atoms: O_4  and  C_16
REMARK    2  A    between atoms: N_5  and  C_7
REMARK    3  A    between atoms: N_5  and  C_12
REMARK    4  A    between atoms: C_7  and  C_10
REMARK    5  A    between atoms: C_10  and  C_11
REMARK    6  A    between atoms: C_12  and  C_15
REMARK    7  A    between atoms: C_14  and  C_16
REMARK    8  A    between atoms: C_16  and  C_17
REMARK    9  A    between atoms: C_16  and  C_18
REMARK                            x       y       z     vdW  Elec       q    Type
REMARK                         _______ _______ _______ _____ _____    ______ ____
ROOT
ATOM      2  O   UNL     1     -17.500   7.930  23.893  0.00  0.00    -0.376 OA
ATOM      7  C   UNL     1     -16.325   6.346  23.076  0.00  0.00    +0.072 C 
ATOM      8  C   UNL     1     -17.034   6.654  24.390  0.00  0.00    +0.184 C 
ATOM      9  C   UNL     1     -16.932   7.659  22.591  0.00  0.00    +0.184 C 
ENDROOT
BRANCH   7   5
ATOM      5  N   UNL     1     -14.884   6.532  23.262  0.00  0.00    -0.302 NA
ATOM     24  H   UNL     1     -14.504   6.133  24.119  0.00  0.00    +0.123 HD
BRANCH   5  12
ATOM     12  C   UNL     1     -14.176   5.984  22.104  0.00  0.00    +0.117 C 
BRANCH  12  15
ATOM      1 CL   UNL     1     -10.567  10.023  19.519  0.00  0.00    -0.084 Cl
ATOM     15  C   UNL     1     -13.279   6.987  21.461  0.00  0.00    -0.033 A 
ATOM     19  C   UNL     1     -13.610   8.342  21.497  0.00  0.00    +0.006 A 
ATOM     20  C   UNL     1     -12.110   6.571  20.824  0.00  0.00    +0.006 A 
ATOM     21  C   UNL     1     -12.771   9.280  20.895  0.00  0.00    +0.020 A 
ATOM     22  C   UNL     1     -11.271   7.509  20.222  0.00  0.00    +0.020 A 
ATOM     23  C   UNL     1     -11.602   8.864  20.258  0.00  0.00    +0.041 A 
ENDBRANCH  12  15
ENDBRANCH   5  12
ENDBRANCH   7   5
BRANCH   7  10
ATOM     10  C   UNL     1     -16.661   5.080  22.348  0.00  0.00    +0.085 C 
BRANCH  10  11
ATOM      3  O   UNL     1     -15.817   2.489  24.722  0.00  0.00    -0.356 OA
ATOM      6  N   UNL     1     -15.509   3.614  23.967  0.00  0.00    -0.083 NA
ATOM     11  C   UNL     1     -16.626   3.893  23.289  0.00  0.00    +0.086 A 
ATOM     13  C   UNL     1     -17.663   2.986  23.573  0.00  0.00    +0.074 A 
ATOM     14  C   UNL     1     -17.103   2.125  24.479  0.00  0.00    +0.168 A 
BRANCH  14  16
ATOM     16  C   UNL     1     -17.597   0.946  25.199  0.00  0.00    +0.120 C 
ATOM     17  C   UNL     1     -17.024   0.832  26.643  0.00  0.00    +0.049 C 
ATOM     18  C   UNL     1     -19.151   0.893  25.284  0.00  0.00    +0.049 C 
BRANCH  16   4
ATOM      4  O   UNL     1     -17.221  -0.301  24.554  0.00  0.00    -0.381 OA
ATOM     25  H   UNL     1     -17.930  -0.550  23.935  0.00  0.00    +0.211 HD
ENDBRANCH  16   4
ENDBRANCH  14  16
ENDBRANCH  10  11
ENDBRANCH   7  10
TORSDOF 7
ENDMDL
MODEL 10
REMARK VINA RESULT:      -5.3      4.349      5.778
REMARK  Name = 56775505
REMARK  9 active torsions:
REMARK  status: ('A' for Active; 'I' for Inactive)
REMARK    1  A    between atoms: O_4  and  C_16
REMARK    2  A    between atoms: N_5  and  C_7
REMARK    3  A    between atoms: N_5  and  C_12
REMARK    4  A    between atoms: C_7  and  C_10
REMARK    5  A    between atoms: C_10  and  C_11
REMARK    6  A    between atoms: C_12  and  C_15
REMARK    7  A    between atoms: C_14  and  C_16
REMARK    8  A    between atoms: C_16  and  C_17
REMARK    9  A    between atoms: C_16  and  C_18
REMARK                            x       y       z     vdW  Elec       q    Type
REMARK                         _______ _______ _______ _____ _____    ______ ____
ROOT
ATOM      2  O   UNL     1      -3.126 -11.767  15.434  0.00  0.00    -0.376 OA
ATOM      7  C   UNL     1      -4.284 -11.181  17.129  0.00  0.00    +0.072 C 
ATOM      8  C   UNL     1      -4.401 -12.176  15.980  0.00  0.00    +0.184 C 
ATOM      9  C   UNL     1      -2.908 -10.871  16.547  0.00  0.00    +0.184 C 
ENDROOT
BRANCH   7   5
ATOM      5  N   UNL     1      -5.174 -10.047  16.864  0.00  0.00    -0.302 NA
ATOM     24  H   UNL     1      -4.703  -9.175  16.624  0.00  0.00    +0.123 HD
BRANCH   5  12
ATOM     12  C   UNL     1      -6.111 -10.412  15.800  0.00  0.00    +0.117 C 
BRANCH  12  15
ATOM      1 CL   UNL     1     -11.787  -9.055  17.201  0.00  0.00    -0.084 Cl
ATOM     15  C   UNL     1      -7.521 -10.076  16.148  0.00  0.00    -0.033 A 
ATOM     19  C   UNL     1      -7.790  -9.057  17.063  0.00  0.00    +0.006 A 
ATOM     20  C   UNL     1      -8.573 -10.779  15.560  0.00  0.00    +0.006 A 
ATOM     21  C   UNL     1      -9.109  -8.743  17.389  0.00  0.00    +0.020 A 
ATOM     22  C   UNL     1      -9.892 -10.465  15.886  0.00  0.00    +0.020 A 
ATOM     23  C   UNL     1     -10.160  -9.446  16.800  0.00  0.00    +0.041 A 
ENDBRANCH  12  15
ENDBRANCH   5  12
ENDBRANCH   7   5
BRANCH   7  10
ATOM     10  C   UNL     1      -4.379 -11.682  18.537  0.00  0.00    +0.085 C 
BRANCH  10  11
ATOM      3  O   UNL     1      -7.542 -10.873  20.086  0.00  0.00    -0.356 OA
ATOM      6  N   UNL     1      -6.200 -10.625  19.827  0.00  0.00    -0.083 NA
ATOM     11  C   UNL     1      -5.810 -11.625  19.032  0.00  0.00    +0.086 A 
ATOM     13  C   UNL     1      -6.854 -12.527  18.759  0.00  0.00    +0.074 A 
ATOM     14  C   UNL     1      -7.920 -12.008  19.444  0.00  0.00    +0.168 A 
BRANCH  14  16
ATOM     16  C   UNL     1      -9.318 -12.420  19.611  0.00  0.00    +0.120 C 
ATOM     17  C   UNL     1     -10.246 -11.254  20.062  0.00  0.00    +0.049 C 
ATOM     18  C   UNL     1      -9.922 -13.056  18.324  0.00  0.00    +0.049 C 
BRANCH  16   4
ATOM      4  O   UNL     1      -9.482 -13.440  20.635  0.00  0.00    -0.381 OA
ATOM     25  H   UNL     1     -10.371 -13.347  21.019  0.00  0.00    +0.211 HD
ENDBRANCH  16   4
ENDBRANCH  14  16
ENDBRANCH  10  11
ENDBRANCH   7  10
TORSDOF 7
ENDMDL
