MODEL 1
REMARK VINA RESULT:      -4.5      0.000      0.000
REMARK  Name = 7161677
REMARK  8 active torsions:
REMARK  status: ('A' for Active; 'I' for Inactive)
REMARK    1  A    between atoms: S_1  and  N_8
REMARK    2  A    between atoms: S_1  and  C_16
REMARK    3  A    between atoms: O_2  and  C_14
REMARK    4  A    between atoms: O_2  and  C_18
REMARK    5  A    between atoms: O_7  and  C_17
REMARK    6  A    between atoms: O_7  and  C_19
REMARK    7  A    between atoms: C_10  and  C_14
REMARK    8  A    between atoms: C_15  and  C_17
REMARK                            x       y       z     vdW  Elec       q    Type
REMARK                         _______ _______ _______ _____ _____    ______ ____
ROOT
ATOM      6  O   UNL     1     -14.073   4.792  35.910  0.00  0.00    -0.273 OA
ATOM      8  N   UNL     1     -15.261   4.643  31.041  0.00  0.00    -0.165 NA
ATOM      9  N   UNL     1     -14.671   5.403  33.747  0.00  0.00    -0.296 N 
ATOM     10  C   UNL     1     -15.242   3.609  32.114  0.00  0.00    +0.205 C 
ATOM     11  C   UNL     1     -15.451   4.187  33.510  0.00  0.00    +0.140 C 
ATOM     12  C   UNL     1     -15.564   6.020  31.509  0.00  0.00    +0.129 C 
ATOM     13  C   UNL     1     -14.623   6.377  32.652  0.00  0.00    +0.125 C 
ATOM     15  C   UNL     1     -14.044   5.599  34.979  0.00  0.00    +0.241 C 
ENDROOT
BRANCH   8   1
ATOM      1  S   UNL     1     -15.955   4.186  29.545  0.00  0.00    +0.030 S 
ATOM      3  O   UNL     1     -15.037   3.307  28.855  0.00  0.00    -0.158 OA
ATOM      4  O   UNL     1     -16.506   5.363  28.909  0.00  0.00    -0.158 OA
ATOM     16  C   UNL     1     -17.305   3.205  30.147  0.00  0.00    +0.215 C 
ENDBRANCH   8   1
BRANCH  10  14
ATOM      5  O   UNL     1     -12.913   3.525  31.521  0.00  0.00    -0.249 OA
ATOM     14  C   UNL     1     -13.897   2.968  31.988  0.00  0.00    +0.327 C 
BRANCH  14   2
ATOM      2  O   UNL     1     -13.953   1.692  32.467  0.00  0.00    -0.467 OA
ATOM     18  C   UNL     1     -14.854   0.817  31.781  0.00  0.00    +0.280 C 
ENDBRANCH  14   2
ENDBRANCH  10  14
BRANCH  15  17
ATOM     17  C   UNL     1     -13.295   6.900  35.142  0.00  0.00    +0.255 C 
BRANCH  17   7
ATOM      7  O   UNL     1     -12.804   6.920  36.460  0.00  0.00    -0.374 OA
ATOM     19  C   UNL     1     -11.736   7.851  36.621  0.00  0.00    +0.194 C 
ENDBRANCH  17   7
ENDBRANCH  15  17
TORSDOF 5
ENDMDL
MODEL 2
REMARK VINA RESULT:      -4.5     22.860     25.483
REMARK  Name = 7161677
REMARK  8 active torsions:
REMARK  status: ('A' for Active; 'I' for Inactive)
REMARK    1  A    between atoms: S_1  and  N_8
REMARK    2  A    between atoms: S_1  and  C_16
REMARK    3  A    between atoms: O_2  and  C_14
REMARK    4  A    between atoms: O_2  and  C_18
REMARK    5  A    between atoms: O_7  and  C_17
REMARK    6  A    between atoms: O_7  and  C_19
REMARK    7  A    between atoms: C_10  and  C_14
REMARK    8  A    between atoms: C_15  and  C_17
REMARK                            x       y       z     vdW  Elec       q    Type
REMARK                         _______ _______ _______ _____ _____    ______ ____
ROOT
ATOM      6  O   UNL     1      -1.335 -11.806  14.740  0.00  0.00    -0.273 OA
ATOM      8  N   UNL     1      -5.872 -10.663  16.542  0.00  0.00    -0.165 NA
ATOM      9  N   UNL     1      -3.503 -10.991  14.952  0.00  0.00    -0.296 N 
ATOM     10  C   UNL     1      -4.594 -11.069  17.192  0.00  0.00    +0.205 C 
ATOM     11  C   UNL     1      -3.360 -10.692  16.377  0.00  0.00    +0.140 C 
ATOM     12  C   UNL     1      -5.712  -9.896  15.279  0.00  0.00    +0.129 C 
ATOM     13  C   UNL     1      -4.795 -10.668  14.340  0.00  0.00    +0.125 C 
ATOM     15  C   UNL     1      -2.428 -11.528  14.241  0.00  0.00    +0.241 C 
ENDROOT
BRANCH   8   1
ATOM      1  S   UNL     1      -7.133 -10.151  17.579  0.00  0.00    +0.030 S 
ATOM      3  O   UNL     1      -7.765  -8.985  17.004  0.00  0.00    -0.158 OA
ATOM      4  O   UNL     1      -6.647 -10.159  18.942  0.00  0.00    -0.158 OA
ATOM     16  C   UNL     1      -8.237 -11.526  17.383  0.00  0.00    +0.215 C 
ENDBRANCH   8   1
BRANCH  10  14
ATOM      5  O   UNL     1      -4.800 -13.333  16.408  0.00  0.00    -0.249 OA
ATOM     14  C   UNL     1      -4.711 -12.551  17.345  0.00  0.00    +0.327 C 
BRANCH  14   2
ATOM      2  O   UNL     1      -4.702 -12.874  18.671  0.00  0.00    -0.467 OA
ATOM     18  C   UNL     1      -3.728 -12.190  19.464  0.00  0.00    +0.280 C 
ENDBRANCH  14   2
ENDBRANCH  10  14
BRANCH  15  17
ATOM     17  C   UNL     1      -2.660 -11.766  12.769  0.00  0.00    +0.255 C 
BRANCH  17   7
ATOM      7  O   UNL     1      -1.823 -10.870  12.079  0.00  0.00    -0.374 OA
ATOM     19  C   UNL     1      -2.555 -10.030  11.189  0.00  0.00    +0.194 C 
ENDBRANCH  17   7
ENDBRANCH  15  17
TORSDOF 5
ENDMDL
MODEL 3
REMARK VINA RESULT:      -4.4     22.421     24.876
REMARK  Name = 7161677
REMARK  8 active torsions:
REMARK  status: ('A' for Active; 'I' for Inactive)
REMARK    1  A    between atoms: S_1  and  N_8
REMARK    2  A    between atoms: S_1  and  C_16
REMARK    3  A    between atoms: O_2  and  C_14
REMARK    4  A    between atoms: O_2  and  C_18
REMARK    5  A    between atoms: O_7  and  C_17
REMARK    6  A    between atoms: O_7  and  C_19
REMARK    7  A    between atoms: C_10  and  C_14
REMARK    8  A    between atoms: C_15  and  C_17
REMARK                            x       y       z     vdW  Elec       q    Type
REMARK                         _______ _______ _______ _____ _____    ______ ____
ROOT
ATOM      6  O   UNL     1      -7.872  -9.900  18.018  0.00  0.00    -0.273 OA
ATOM      8  N   UNL     1      -3.669 -11.199  15.612  0.00  0.00    -0.165 NA
ATOM      9  N   UNL     1      -5.685 -10.536  17.547  0.00  0.00    -0.296 N 
ATOM     10  C   UNL     1      -4.920 -10.517  15.175  0.00  0.00    +0.205 C 
ATOM     11  C   UNL     1      -5.621  -9.767  16.304  0.00  0.00    +0.140 C 
ATOM     12  C   UNL     1      -3.289 -10.954  17.028  0.00  0.00    +0.129 C 
ATOM     13  C   UNL     1      -4.477 -11.274  17.926  0.00  0.00    +0.125 C 
ATOM     15  C   UNL     1      -6.848 -10.515  18.320  0.00  0.00    +0.241 C 
ENDROOT
BRANCH   8   1
ATOM      1  S   UNL     1      -2.383 -11.243  14.484  0.00  0.00    +0.030 S 
ATOM      3  O   UNL     1      -2.677 -10.325  13.407  0.00  0.00    -0.158 OA
ATOM      4  O   UNL     1      -2.032 -12.624  14.232  0.00  0.00    -0.158 OA
ATOM     16  C   UNL     1      -1.105 -10.526  15.483  0.00  0.00    +0.215 C 
ENDBRANCH   8   1
BRANCH  10  14
ATOM      5  O   UNL     1      -5.637 -12.800  14.937  0.00  0.00    -0.249 OA
ATOM     14  C   UNL     1      -5.777 -11.620  14.643  0.00  0.00    +0.327 C 
BRANCH  14   2
ATOM      2  O   UNL     1      -6.713 -11.102  13.797  0.00  0.00    -0.467 OA
ATOM     18  C   UNL     1      -6.199 -10.295  12.732  0.00  0.00    +0.280 C 
ENDBRANCH  14   2
ENDBRANCH  10  14
BRANCH  15  17
ATOM     17  C   UNL     1      -6.804 -11.308  19.604  0.00  0.00    +0.255 C 
BRANCH  17   7
ATOM      7  O   UNL     1      -8.140 -11.552  19.972  0.00  0.00    -0.374 OA
ATOM     19  C   UNL     1      -8.478 -12.934  19.880  0.00  0.00    +0.194 C 
ENDBRANCH  17   7
ENDBRANCH  15  17
TORSDOF 5
ENDMDL
MODEL 4
REMARK VINA RESULT:      -4.4     20.745     23.038
REMARK  Name = 7161677
REMARK  8 active torsions:
REMARK  status: ('A' for Active; 'I' for Inactive)
REMARK    1  A    between atoms: S_1  and  N_8
REMARK    2  A    between atoms: S_1  and  C_16
REMARK    3  A    between atoms: O_2  and  C_14
REMARK    4  A    between atoms: O_2  and  C_18
REMARK    5  A    between atoms: O_7  and  C_17
REMARK    6  A    between atoms: O_7  and  C_19
REMARK    7  A    between atoms: C_10  and  C_14
REMARK    8  A    between atoms: C_15  and  C_17
REMARK                            x       y       z     vdW  Elec       q    Type
REMARK                         _______ _______ _______ _____ _____    ______ ____
ROOT
ATOM      6  O   UNL     1      -3.805 -11.628  18.558  0.00  0.00    -0.273 OA
ATOM      8  N   UNL     1      -8.490 -10.168  17.531  0.00  0.00    -0.165 NA
ATOM      9  N   UNL     1      -5.642 -10.504  17.679  0.00  0.00    -0.296 N 
ATOM     10  C   UNL     1      -7.896 -10.964  18.641  0.00  0.00    +0.205 C 
ATOM     11  C   UNL     1      -6.431 -10.626  18.906  0.00  0.00    +0.140 C 
ATOM     12  C   UNL     1      -7.589  -9.139  16.950  0.00  0.00    +0.129 C 
ATOM     13  C   UNL     1      -6.270  -9.793  16.562  0.00  0.00    +0.125 C 
ATOM     15  C   UNL     1      -4.348 -11.027  17.629  0.00  0.00    +0.241 C 
ENDROOT
BRANCH   8   1
ATOM      1  S   UNL     1     -10.133  -9.720  17.701  0.00  0.00    +0.030 S 
ATOM      3  O   UNL     1     -10.510  -9.850  19.091  0.00  0.00    -0.158 OA
ATOM      4  O   UNL     1     -10.898 -10.345  16.643  0.00  0.00    -0.158 OA
ATOM     16  C   UNL     1      -9.996  -7.991  17.329  0.00  0.00    +0.215 C 
ENDBRANCH   8   1
BRANCH  10  14
ATOM      5  O   UNL     1      -8.153 -12.736  17.034  0.00  0.00    -0.249 OA
ATOM     14  C   UNL     1      -8.052 -12.385  18.203  0.00  0.00    +0.327 C 
BRANCH  14   2
ATOM      2  O   UNL     1      -8.066 -13.200  19.296  0.00  0.00    -0.467 OA
ATOM     18  C   UNL     1      -9.243 -13.123  20.106  0.00  0.00    +0.280 C 
ENDBRANCH  14   2
ENDBRANCH  10  14
BRANCH  15  17
ATOM     17  C   UNL     1      -3.600 -10.819  16.335  0.00  0.00    +0.255 C 
BRANCH  17   7
ATOM      7  O   UNL     1      -2.230 -10.913  16.642  0.00  0.00    -0.374 OA
ATOM     19  C   UNL     1      -1.413 -10.318  15.636  0.00  0.00    +0.194 C 
ENDBRANCH  17   7
ENDBRANCH  15  17
TORSDOF 5
ENDMDL
MODEL 5
REMARK VINA RESULT:      -4.3     36.570     37.901
REMARK  Name = 7161677
REMARK  8 active torsions:
REMARK  status: ('A' for Active; 'I' for Inactive)
REMARK    1  A    between atoms: S_1  and  N_8
REMARK    2  A    between atoms: S_1  and  C_16
REMARK    3  A    between atoms: O_2  and  C_14
REMARK    4  A    between atoms: O_2  and  C_18
REMARK    5  A    between atoms: O_7  and  C_17
REMARK    6  A    between atoms: O_7  and  C_19
REMARK    7  A    between atoms: C_10  and  C_14
REMARK    8  A    between atoms: C_15  and  C_17
REMARK                            x       y       z     vdW  Elec       q    Type
REMARK                         _______ _______ _______ _____ _____    ______ ____
ROOT
ATOM      6  O   UNL     1      10.930   7.409   7.405  0.00  0.00    -0.273 OA
ATOM      8  N   UNL     1      10.624   5.400   2.822  0.00  0.00    -0.165 NA
ATOM      9  N   UNL     1      10.696   5.903   5.648  0.00  0.00    -0.296 N 
ATOM     10  C   UNL     1      11.171   6.689   3.331  0.00  0.00    +0.205 C 
ATOM     11  C   UNL     1      11.638   6.612   4.782  0.00  0.00    +0.140 C 
ATOM     12  C   UNL     1      10.713   4.265   3.777  0.00  0.00    +0.129 C 
ATOM     13  C   UNL     1      10.096   4.681   5.106  0.00  0.00    +0.125 C 
ATOM     15  C   UNL     1      10.435   6.384   6.933  0.00  0.00    +0.241 C 
ENDROOT
BRANCH   8   1
ATOM      1  S   UNL     1      10.932   5.028   1.181  0.00  0.00    +0.030 S 
ATOM      3  O   UNL     1      11.551   6.174   0.552  0.00  0.00    -0.158 OA
ATOM      4  O   UNL     1       9.760   4.392   0.618  0.00  0.00    -0.158 OA
ATOM     16  C   UNL     1      12.179   3.784   1.400  0.00  0.00    +0.215 C 
ENDBRANCH   8   1
BRANCH  10  14
ATOM      5  O   UNL     1       8.931   7.355   2.763  0.00  0.00    -0.249 OA
ATOM     14  C   UNL     1      10.043   7.658   3.175  0.00  0.00    +0.327 C 
BRANCH  14   2
ATOM      2  O   UNL     1      10.454   8.900   3.559  0.00  0.00    -0.467 OA
ATOM     18  C   UNL     1       9.555   9.606   4.419  0.00  0.00    +0.280 C 
ENDBRANCH  14   2
ENDBRANCH  10  14
BRANCH  15  17
ATOM     17  C   UNL     1       9.478   5.564   7.765  0.00  0.00    +0.255 C 
BRANCH  17   7
ATOM      7  O   UNL     1      10.246   4.947   8.769  0.00  0.00    -0.374 OA
ATOM     19  C   UNL     1       9.459   4.593   9.905  0.00  0.00    +0.194 C 
ENDBRANCH  17   7
ENDBRANCH  15  17
TORSDOF 5
ENDMDL
MODEL 6
REMARK VINA RESULT:      -4.3     21.216     22.821
REMARK  Name = 7161677
REMARK  8 active torsions:
REMARK  status: ('A' for Active; 'I' for Inactive)
REMARK    1  A    between atoms: S_1  and  N_8
REMARK    2  A    between atoms: S_1  and  C_16
REMARK    3  A    between atoms: O_2  and  C_14
REMARK    4  A    between atoms: O_2  and  C_18
REMARK    5  A    between atoms: O_7  and  C_17
REMARK    6  A    between atoms: O_7  and  C_19
REMARK    7  A    between atoms: C_10  and  C_14
REMARK    8  A    between atoms: C_15  and  C_17
REMARK                            x       y       z     vdW  Elec       q    Type
REMARK                         _______ _______ _______ _____ _____    ______ ____
ROOT
ATOM      6  O   UNL     1     -10.886 -10.043  17.113  0.00  0.00    -0.273 OA
ATOM      8  N   UNL     1      -6.030 -11.080  17.811  0.00  0.00    -0.165 NA
ATOM      9  N   UNL     1      -8.562  -9.953  17.059  0.00  0.00    -0.296 N 
ATOM     10  C   UNL     1      -7.271 -11.895  17.938  0.00  0.00    +0.205 C 
ATOM     11  C   UNL     1      -8.405 -11.407  17.041  0.00  0.00    +0.140 C 
ATOM     12  C   UNL     1      -6.091 -10.010  16.782  0.00  0.00    +0.129 C 
ATOM     13  C   UNL     1      -7.331  -9.158  17.021  0.00  0.00    +0.125 C 
ATOM     15  C   UNL     1      -9.840  -9.391  17.081  0.00  0.00    +0.241 C 
ENDROOT
BRANCH   8   1
ATOM      1  S   UNL     1      -4.544 -11.918  17.938  0.00  0.00    +0.030 S 
ATOM      3  O   UNL     1      -4.179 -12.008  19.334  0.00  0.00    -0.158 OA
ATOM      4  O   UNL     1      -3.630 -11.399  16.944  0.00  0.00    -0.158 OA
ATOM     16  C   UNL     1      -5.078 -13.525  17.406  0.00  0.00    +0.215 C 
ENDBRANCH   8   1
BRANCH  10  14
ATOM      5  O   UNL     1      -7.277 -10.878  20.117  0.00  0.00    -0.249 OA
ATOM     14  C   UNL     1      -7.639 -11.787  19.383  0.00  0.00    +0.327 C 
BRANCH  14   2
ATOM      2  O   UNL     1      -8.423 -12.847  19.734  0.00  0.00    -0.467 OA
ATOM     18  C   UNL     1      -9.755 -12.518  20.139  0.00  0.00    +0.280 C 
ENDBRANCH  14   2
ENDBRANCH  10  14
BRANCH  15  17
ATOM     17  C   UNL     1      -9.901  -7.882  17.060  0.00  0.00    +0.255 C 
BRANCH  17   7
ATOM      7  O   UNL     1     -10.141  -7.507  15.725  0.00  0.00    -0.374 OA
ATOM     19  C   UNL     1     -10.709  -6.203  15.629  0.00  0.00    +0.194 C 
ENDBRANCH  17   7
ENDBRANCH  15  17
TORSDOF 5
ENDMDL
MODEL 7
REMARK VINA RESULT:      -4.2     36.383     37.930
REMARK  Name = 7161677
REMARK  8 active torsions:
REMARK  status: ('A' for Active; 'I' for Inactive)
REMARK    1  A    between atoms: S_1  and  N_8
REMARK    2  A    between atoms: S_1  and  C_16
REMARK    3  A    between atoms: O_2  and  C_14
REMARK    4  A    between atoms: O_2  and  C_18
REMARK    5  A    between atoms: O_7  and  C_17
REMARK    6  A    between atoms: O_7  and  C_19
REMARK    7  A    between atoms: C_10  and  C_14
REMARK    8  A    between atoms: C_15  and  C_17
REMARK                            x       y       z     vdW  Elec       q    Type
REMARK                         _______ _______ _______ _____ _____    ______ ____
ROOT
ATOM      6  O   UNL     1      10.248   6.967   1.524  0.00  0.00    -0.273 OA
ATOM      8  N   UNL     1      10.374   5.690   6.371  0.00  0.00    -0.165 NA
ATOM      9  N   UNL     1      10.162   5.755   3.508  0.00  0.00    -0.296 N 
ATOM     10  C   UNL     1      10.233   6.996   5.668  0.00  0.00    +0.205 C 
ATOM     11  C   UNL     1       9.609   6.868   4.281  0.00  0.00    +0.140 C 
ATOM     12  C   UNL     1       9.809   4.526   5.640  0.00  0.00    +0.129 C 
ATOM     13  C   UNL     1      10.379   4.498   4.228  0.00  0.00    +0.125 C 
ATOM     15  C   UNL     1      10.425   5.918   2.146  0.00  0.00    +0.241 C 
ENDROOT
BRANCH   8   1
ATOM      1  S   UNL     1      10.143   5.699   8.066  0.00  0.00    +0.030 S 
ATOM      3  O   UNL     1       9.043   6.584   8.381  0.00  0.00    -0.158 OA
ATOM      4  O   UNL     1      11.432   5.828   8.711  0.00  0.00    -0.158 OA
ATOM     16  C   UNL     1       9.584   4.030   8.286  0.00  0.00    +0.215 C 
ENDBRANCH   8   1
BRANCH  10  14
ATOM      5  O   UNL     1      12.623   6.825   5.472  0.00  0.00    -0.249 OA
ATOM     14  C   UNL     1      11.628   7.527   5.589  0.00  0.00    +0.327 C 
BRANCH  14   2
ATOM      2  O   UNL     1      11.602   8.889   5.668  0.00  0.00    -0.467 OA
ATOM     18  C   UNL     1      10.889   9.426   6.786  0.00  0.00    +0.280 C 
ENDBRANCH  14   2
ENDBRANCH  10  14
BRANCH  15  17
ATOM     17  C   UNL     1      10.957   4.702   1.425  0.00  0.00    +0.255 C 
BRANCH  17   7
ATOM      7  O   UNL     1      12.358   4.741   1.551  0.00  0.00    -0.374 OA
ATOM     19  C   UNL     1      12.928   3.435   1.602  0.00  0.00    +0.194 C 
ENDBRANCH  17   7
ENDBRANCH  15  17
TORSDOF 5
ENDMDL
MODEL 8
REMARK VINA RESULT:      -4.1      2.179      2.568
REMARK  Name = 7161677
REMARK  8 active torsions:
REMARK  status: ('A' for Active; 'I' for Inactive)
REMARK    1  A    between atoms: S_1  and  N_8
REMARK    2  A    between atoms: S_1  and  C_16
REMARK    3  A    between atoms: O_2  and  C_14
REMARK    4  A    between atoms: O_2  and  C_18
REMARK    5  A    between atoms: O_7  and  C_17
REMARK    6  A    between atoms: O_7  and  C_19
REMARK    7  A    between atoms: C_10  and  C_14
REMARK    8  A    between atoms: C_15  and  C_17
REMARK                            x       y       z     vdW  Elec       q    Type
REMARK                         _______ _______ _______ _____ _____    ______ ____
ROOT
ATOM      6  O   UNL     1     -14.316   3.966  34.485  0.00  0.00    -0.273 OA
ATOM      8  N   UNL     1     -16.154   2.773  29.975  0.00  0.00    -0.165 NA
ATOM      9  N   UNL     1     -15.519   3.996  32.494  0.00  0.00    -0.296 N 
ATOM     10  C   UNL     1     -15.443   1.987  31.022  0.00  0.00    +0.205 C 
ATOM     11  C   UNL     1     -15.645   2.540  32.430  0.00  0.00    +0.140 C 
ATOM     12  C   UNL     1     -16.992   3.885  30.494  0.00  0.00    +0.129 C 
ATOM     13  C   UNL     1     -16.149   4.759  31.412  0.00  0.00    +0.125 C 
ATOM     15  C   UNL     1     -14.851   4.591  33.567  0.00  0.00    +0.241 C 
ENDROOT
BRANCH   8   1
ATOM      1  S   UNL     1     -16.803   1.891  28.660  0.00  0.00    +0.030 S 
ATOM      3  O   UNL     1     -16.904   0.499  29.037  0.00  0.00    -0.158 OA
ATOM      4  O   UNL     1     -16.131   2.303  27.446  0.00  0.00    -0.158 OA
ATOM     16  C   UNL     1     -18.440   2.574  28.640  0.00  0.00    +0.215 C 
ENDBRANCH   8   1
BRANCH  10  14
ATOM      5  O   UNL     1     -13.462   3.043  30.160  0.00  0.00    -0.249 OA
ATOM     14  C   UNL     1     -14.005   2.046  30.617  0.00  0.00    +0.327 C 
BRANCH  14   2
ATOM      2  O   UNL     1     -13.419   0.834  30.837  0.00  0.00    -0.467 OA
ATOM     18  C   UNL     1     -13.673  -0.161  29.840  0.00  0.00    +0.280 C 
ENDBRANCH  14   2
ENDBRANCH  10  14
BRANCH  15  17
ATOM     17  C   UNL     1     -14.807   6.100  33.565  0.00  0.00    +0.255 C 
BRANCH  17   7
ATOM      7  O   UNL     1     -13.537   6.465  33.081  0.00  0.00    -0.374 OA
ATOM     19  C   UNL     1     -13.558   7.728  32.419  0.00  0.00    +0.194 C 
ENDBRANCH  17   7
ENDBRANCH  15  17
TORSDOF 5
ENDMDL
MODEL 9
REMARK VINA RESULT:      -4.1     36.287     37.818
REMARK  Name = 7161677
REMARK  8 active torsions:
REMARK  status: ('A' for Active; 'I' for Inactive)
REMARK    1  A    between atoms: S_1  and  N_8
REMARK    2  A    between atoms: S_1  and  C_16
REMARK    3  A    between atoms: O_2  and  C_14
REMARK    4  A    between atoms: O_2  and  C_18
REMARK    5  A    between atoms: O_7  and  C_17
REMARK    6  A    between atoms: O_7  and  C_19
REMARK    7  A    between atoms: C_10  and  C_14
REMARK    8  A    between atoms: C_15  and  C_17
REMARK                            x       y       z     vdW  Elec       q    Type
REMARK                         _______ _______ _______ _____ _____    ______ ____
ROOT
ATOM      6  O   UNL     1      11.688   4.231   2.510  0.00  0.00    -0.273 OA
ATOM      8  N   UNL     1       9.596   7.757   5.397  0.00  0.00    -0.165 NA
ATOM      9  N   UNL     1      10.710   6.208   3.251  0.00  0.00    -0.296 N 
ATOM     10  C   UNL     1      10.403   6.543   5.702  0.00  0.00    +0.205 C 
ATOM     11  C   UNL     1      11.345   6.147   4.568  0.00  0.00    +0.140 C 
ATOM     12  C   UNL     1       9.913   8.406   4.098  0.00  0.00    +0.129 C 
ATOM     13  C   UNL     1       9.847   7.363   2.990  0.00  0.00    +0.125 C 
ATOM     15  C   UNL     1      10.965   5.210   2.308  0.00  0.00    +0.241 C 
ENDROOT
BRANCH   8   1
ATOM      1  S   UNL     1       9.267   8.810   6.705  0.00  0.00    +0.030 S 
ATOM      3  O   UNL     1       8.439   8.116   7.665  0.00  0.00    -0.158 OA
ATOM      4  O   UNL     1       8.899  10.107   6.178  0.00  0.00    -0.158 OA
ATOM     16  C   UNL     1      10.902   8.939   7.382  0.00  0.00    +0.215 C 
ENDBRANCH   8   1
BRANCH  10  14
ATOM      5  O   UNL     1       8.259   5.476   5.487  0.00  0.00    -0.249 OA
ATOM     14  C   UNL     1       9.387   5.477   5.960  0.00  0.00    +0.327 C 
BRANCH  14   2
ATOM      2  O   UNL     1       9.918   4.533   6.789  0.00  0.00    -0.467 OA
ATOM     18  C   UNL     1       9.925   4.870   8.179  0.00  0.00    +0.280 C 
ENDBRANCH  14   2
ENDBRANCH  10  14
BRANCH  15  17
ATOM     17  C   UNL     1      10.295   5.379   0.966  0.00  0.00    +0.255 C 
BRANCH  17   7
ATOM      7  O   UNL     1      10.346   4.125   0.329  0.00  0.00    -0.374 OA
ATOM     19  C   UNL     1      11.042   4.184  -0.914  0.00  0.00    +0.194 C 
ENDBRANCH  17   7
ENDBRANCH  15  17
TORSDOF 5
ENDMDL
MODEL 10
REMARK VINA RESULT:      -4.1     40.676     42.503
REMARK  Name = 7161677
REMARK  8 active torsions:
REMARK  status: ('A' for Active; 'I' for Inactive)
REMARK    1  A    between atoms: S_1  and  N_8
REMARK    2  A    between atoms: S_1  and  C_16
REMARK    3  A    between atoms: O_2  and  C_14
REMARK    4  A    between atoms: O_2  and  C_18
REMARK    5  A    between atoms: O_7  and  C_17
REMARK    6  A    between atoms: O_7  and  C_19
REMARK    7  A    between atoms: C_10  and  C_14
REMARK    8  A    between atoms: C_15  and  C_17
REMARK                            x       y       z     vdW  Elec       q    Type
REMARK                         _______ _______ _______ _____ _____    ______ ____
ROOT
ATOM      6  O   UNL     1      -0.047   0.326  -5.369  0.00  0.00    -0.273 OA
ATOM      8  N   UNL     1       2.917   4.190  -6.558  0.00  0.00    -0.165 NA
ATOM      9  N   UNL     1       1.263   1.843  -6.548  0.00  0.00    -0.296 N 
ATOM     10  C   UNL     1       2.599   3.514  -5.269  0.00  0.00    +0.205 C 
ATOM     11  C   UNL     1       2.197   2.052  -5.441  0.00  0.00    +0.140 C 
ATOM     12  C   UNL     1       2.873   3.307  -7.752  0.00  0.00    +0.129 C 
ATOM     13  C   UNL     1       1.535   2.580  -7.786  0.00  0.00    +0.125 C 
ATOM     15  C   UNL     1       0.197   0.953  -6.401  0.00  0.00    +0.241 C 
ENDROOT
BRANCH   8   1
ATOM      1  S   UNL     1       4.173   5.352  -6.527  0.00  0.00    +0.030 S 
ATOM      3  O   UNL     1       4.841   5.281  -5.246  0.00  0.00    -0.158 OA
ATOM      4  O   UNL     1       3.666   6.601  -7.053  0.00  0.00    -0.158 OA
ATOM     16  C   UNL     1       5.248   4.640  -7.746  0.00  0.00    +0.215 C 
ENDBRANCH   8   1
BRANCH  10  14
ATOM      5  O   UNL     1       1.018   4.151  -3.573  0.00  0.00    -0.249 OA
ATOM     14  C   UNL     1       1.479   4.320  -4.694  0.00  0.00    +0.327 C 
BRANCH  14   2
ATOM      2  O   UNL     1       1.071   5.248  -5.606  0.00  0.00    -0.467 OA
ATOM     18  C   UNL     1       0.804   6.551  -5.079  0.00  0.00    +0.280 C 
ENDBRANCH  14   2
ENDBRANCH  10  14
BRANCH  15  17
ATOM     17  C   UNL     1      -0.690   0.777  -7.610  0.00  0.00    +0.255 C 
BRANCH  17   7
ATOM      7  O   UNL     1      -1.557  -0.293  -7.321  0.00  0.00    -0.374 OA
ATOM     19  C   UNL     1      -2.888  -0.040  -7.765  0.00  0.00    +0.194 C 
ENDBRANCH  17   7
ENDBRANCH  15  17
TORSDOF 5
ENDMDL
