MODEL 1
REMARK VINA RESULT:      -6.9      0.000      0.000
REMARK  Name = 44715968
REMARK  8 active torsions:
REMARK  status: ('A' for Active; 'I' for Inactive)
REMARK    1  A    between atoms: O_2  and  C_26
REMARK    2  A    between atoms: N_4  and  C_15
REMARK    3  A    between atoms: N_5  and  C_17
REMARK    4  A    between atoms: N_5  and  C_19
REMARK    5  A    between atoms: C_9  and  C_16
REMARK    6  A    between atoms: C_10  and  C_15
REMARK    7  A    between atoms: C_17  and  C_21
REMARK    8  A    between atoms: C_20  and  C_22
REMARK                            x       y       z     vdW  Elec       q    Type
REMARK                         _______ _______ _______ _____ _____    ______ ____
ROOT
ATOM      3  N   UNL     1      13.241   7.821  21.327  0.00  0.00    -0.297 NA
ATOM      8  C   UNL     1      11.708   9.560  20.144  0.00  0.00    +0.005 C 
ATOM      9  C   UNL     1      12.399  10.170  21.380  0.00  0.00    +0.092 C 
ATOM     10  C   UNL     1      13.793   8.167  19.990  0.00  0.00    +0.078 C 
ATOM     11  C   UNL     1      12.819   9.068  19.197  0.00  0.00    +0.025 C 
ATOM     12  C   UNL     1      10.912   8.312  20.567  0.00  0.00    +0.020 C 
ATOM     13  C   UNL     1      13.161   9.065  22.136  0.00  0.00    +0.097 C 
ATOM     14  C   UNL     1      11.865   7.287  21.199  0.00  0.00    +0.085 C 
ENDROOT
BRANCH   9  16
ATOM      1  O   UNL     1      10.608  10.189  22.920  0.00  0.00    -0.275 OA
ATOM      5  N   UNL     1      11.482  12.257  22.318  0.00  0.00    -0.301 N 
ATOM     16  C   UNL     1      11.416  10.864  22.275  0.00  0.00    +0.220 C 
ATOM     19  C   UNL     1      10.587  13.055  23.145  0.00  0.00    +0.132 C 
BRANCH   5  17
ATOM     17  C   UNL     1      12.455  13.016  21.537  0.00  0.00    +0.134 C 
BRANCH  17  21
ATOM     21  C   UNL     1      11.760  13.651  20.378  0.00  0.00    -0.016 C 
ATOM     23  C   UNL     1      11.832  14.955  20.088  0.00  0.00    +0.005 C 
ENDBRANCH  17  21
ENDBRANCH   5  17
ENDBRANCH   9  16
BRANCH  10  15
ATOM     15  C   UNL     1      14.193   6.924  19.191  0.00  0.00    +0.164 C 
BRANCH  15   4
ATOM      4  N   UNL     1      15.640   6.577  19.399  0.00  0.00    -0.250 N 
ATOM      6  N   UNL     1      16.318   5.882  18.471  0.00  0.00    -0.065 NA
ATOM      7  N   UNL     1      17.558   5.726  18.923  0.00  0.00    -0.130 NA
ATOM     18  C   UNL     1      16.425   6.887  20.467  0.00  0.00    +0.138 A 
ATOM     20  C   UNL     1      17.640   6.336  20.144  0.00  0.00    +0.113 A 
BRANCH  20  22
ATOM     22  C   UNL     1      18.817   6.386  20.951  0.00  0.00    +0.007 A 
ATOM     24  C   UNL     1      18.835   7.161  22.111  0.00  0.00    +0.055 A 
ATOM     25  C   UNL     1      19.948   5.660  20.579  0.00  0.00    +0.010 A 
ATOM     26  C   UNL     1      19.986   7.209  22.899  0.00  0.00    +0.117 A 
ATOM     27  C   UNL     1      21.098   5.709  21.367  0.00  0.00    +0.004 A 
ATOM     28  C   UNL     1      21.117   6.483  22.527  0.00  0.00    +0.045 A 
BRANCH  26   2
ATOM      2  O   UNL     1      20.004   7.965  24.030  0.00  0.00    -0.507 OA
ATOM     29  H   UNL     1      19.304   8.638  23.974  0.00  0.00    +0.292 HD
ENDBRANCH  26   2
ENDBRANCH  20  22
ENDBRANCH  15   4
ENDBRANCH  10  15
TORSDOF 7
ENDMDL
MODEL 2
REMARK VINA RESULT:      -6.6     27.712     29.491
REMARK  Name = 44715968
REMARK  8 active torsions:
REMARK  status: ('A' for Active; 'I' for Inactive)
REMARK    1  A    between atoms: O_2  and  C_26
REMARK    2  A    between atoms: N_4  and  C_15
REMARK    3  A    between atoms: N_5  and  C_17
REMARK    4  A    between atoms: N_5  and  C_19
REMARK    5  A    between atoms: C_9  and  C_16
REMARK    6  A    between atoms: C_10  and  C_15
REMARK    7  A    between atoms: C_17  and  C_21
REMARK    8  A    between atoms: C_20  and  C_22
REMARK                            x       y       z     vdW  Elec       q    Type
REMARK                         _______ _______ _______ _____ _____    ______ ____
ROOT
ATOM      3  N   UNL     1      -5.042 -11.228  10.910  0.00  0.00    -0.297 NA
ATOM      8  C   UNL     1      -4.852  -9.512   8.963  0.00  0.00    +0.005 C 
ATOM      9  C   UNL     1      -6.293  -9.587   9.506  0.00  0.00    +0.092 C 
ATOM     10  C   UNL     1      -4.210 -10.067  11.328  0.00  0.00    +0.078 C 
ATOM     11  C   UNL     1      -3.942  -9.114  10.141  0.00  0.00    +0.025 C 
ATOM     12  C   UNL     1      -4.399 -10.913   8.517  0.00  0.00    +0.020 C 
ATOM     13  C   UNL     1      -6.391 -10.727  10.538  0.00  0.00    +0.097 C 
ATOM     14  C   UNL     1      -4.464 -11.877   9.711  0.00  0.00    +0.085 C 
ENDROOT
BRANCH   9  16
ATOM      1  O   UNL     1      -7.499 -10.900   7.956  0.00  0.00    -0.275 OA
ATOM      5  N   UNL     1      -7.927  -8.616   7.937  0.00  0.00    -0.301 N 
ATOM     16  C   UNL     1      -7.290  -9.767   8.400  0.00  0.00    +0.220 C 
ATOM     19  C   UNL     1      -8.915  -8.648   6.867  0.00  0.00    +0.132 C 
BRANCH   5  17
ATOM     17  C   UNL     1      -7.648  -7.293   8.491  0.00  0.00    +0.134 C 
BRANCH  17  21
ATOM     21  C   UNL     1      -8.529  -6.289   7.823  0.00  0.00    -0.016 C 
ATOM     23  C   UNL     1      -9.339  -5.453   8.482  0.00  0.00    +0.005 C 
ENDBRANCH  17  21
ENDBRANCH   5  17
ENDBRANCH   9  16
BRANCH  10  15
ATOM     15  C   UNL     1      -2.912 -10.503  12.010  0.00  0.00    +0.164 C 
BRANCH  15   4
ATOM      4  N   UNL     1      -3.059 -10.538  13.505  0.00  0.00    -0.250 N 
ATOM      6  N   UNL     1      -1.977 -10.540  14.301  0.00  0.00    -0.065 NA
ATOM      7  N   UNL     1      -2.410 -10.574  15.557  0.00  0.00    -0.130 NA
ATOM     18  C   UNL     1      -4.212 -10.571  14.227  0.00  0.00    +0.138 A 
ATOM     20  C   UNL     1      -3.777 -10.594  15.529  0.00  0.00    +0.113 A 
BRANCH  20  22
ATOM     22  C   UNL     1      -4.613 -10.632  16.685  0.00  0.00    +0.007 A 
ATOM     24  C   UNL     1      -5.800  -9.898  16.713  0.00  0.00    +0.055 A 
ATOM     25  C   UNL     1      -4.244 -11.403  17.787  0.00  0.00    +0.010 A 
ATOM     26  C   UNL     1      -6.617  -9.937  17.844  0.00  0.00    +0.117 A 
ATOM     27  C   UNL     1      -5.060 -11.440  18.917  0.00  0.00    +0.004 A 
ATOM     28  C   UNL     1      -6.246 -10.708  18.945  0.00  0.00    +0.045 A 
BRANCH  26   2
ATOM      2  O   UNL     1      -7.773  -9.221  17.871  0.00  0.00    -0.507 OA
ATOM     29  H   UNL     1      -8.034  -9.075  18.797  0.00  0.00    +0.292 HD
ENDBRANCH  26   2
ENDBRANCH  20  22
ENDBRANCH  15   4
ENDBRANCH  10  15
TORSDOF 7
ENDMDL
MODEL 3
REMARK VINA RESULT:      -6.5      4.111     10.890
REMARK  Name = 44715968
REMARK  8 active torsions:
REMARK  status: ('A' for Active; 'I' for Inactive)
REMARK    1  A    between atoms: O_2  and  C_26
REMARK    2  A    between atoms: N_4  and  C_15
REMARK    3  A    between atoms: N_5  and  C_17
REMARK    4  A    between atoms: N_5  and  C_19
REMARK    5  A    between atoms: C_9  and  C_16
REMARK    6  A    between atoms: C_10  and  C_15
REMARK    7  A    between atoms: C_17  and  C_21
REMARK    8  A    between atoms: C_20  and  C_22
REMARK                            x       y       z     vdW  Elec       q    Type
REMARK                         _______ _______ _______ _____ _____    ______ ____
ROOT
ATOM      3  N   UNL     1      21.099   5.285  22.531  0.00  0.00    -0.297 NA
ATOM      8  C   UNL     1      23.287   5.736  21.195  0.00  0.00    +0.005 C 
ATOM      9  C   UNL     1      23.053   4.224  21.398  0.00  0.00    +0.092 C 
ATOM     10  C   UNL     1      20.777   5.857  21.195  0.00  0.00    +0.078 C 
ATOM     11  C   UNL     1      22.059   6.289  20.448  0.00  0.00    +0.025 C 
ATOM     12  C   UNL     1      23.316   6.437  22.565  0.00  0.00    +0.020 C 
ATOM     13  C   UNL     1      21.844   4.015  22.328  0.00  0.00    +0.097 C 
ATOM     14  C   UNL     1      21.982   6.201  23.290  0.00  0.00    +0.085 C 
ENDROOT
BRANCH   9  16
ATOM      1  O   UNL     1      24.414   3.427  23.156  0.00  0.00    -0.275 OA
ATOM      5  N   UNL     1      25.201   3.083  20.997  0.00  0.00    -0.301 N 
ATOM     16  C   UNL     1      24.278   3.545  21.936  0.00  0.00    +0.220 C 
ATOM     19  C   UNL     1      26.432   2.406  21.382  0.00  0.00    +0.132 C 
BRANCH   5  17
ATOM     17  C   UNL     1      24.999   3.245  19.559  0.00  0.00    +0.134 C 
BRANCH  17  21
ATOM     21  C   UNL     1      26.178   3.954  18.979  0.00  0.00    -0.016 C 
ATOM     23  C   UNL     1      26.323   5.284  18.978  0.00  0.00    +0.005 C 
ENDBRANCH  17  21
ENDBRANCH   5  17
ENDBRANCH   9  16
BRANCH  10  15
ATOM     15  C   UNL     1      19.761   6.998  21.285  0.00  0.00    +0.164 C 
BRANCH  15   4
ATOM      4  N   UNL     1      18.527   6.702  20.483  0.00  0.00    -0.250 N 
ATOM      6  N   UNL     1      18.535   5.746  19.539  0.00  0.00    -0.065 NA
ATOM      7  N   UNL     1      17.320   5.710  19.002  0.00  0.00    -0.130 NA
ATOM     18  C   UNL     1      17.309   7.303  20.576  0.00  0.00    +0.138 A 
ATOM     20  C   UNL     1      16.557   6.658  19.626  0.00  0.00    +0.113 A 
BRANCH  20  22
ATOM     22  C   UNL     1      15.187   6.926  19.326  0.00  0.00    +0.007 A 
ATOM     24  C   UNL     1      14.824   7.359  18.050  0.00  0.00    +0.055 A 
ATOM     25  C   UNL     1      14.213   6.754  20.308  0.00  0.00    +0.010 A 
ATOM     26  C   UNL     1      13.485   7.621  17.758  0.00  0.00    +0.117 A 
ATOM     27  C   UNL     1      12.874   7.016  20.016  0.00  0.00    +0.004 A 
ATOM     28  C   UNL     1      12.510   7.448  18.741  0.00  0.00    +0.045 A 
BRANCH  26   2
ATOM      2  O   UNL     1      13.130   8.044  16.514  0.00  0.00    -0.507 OA
ATOM     29  H   UNL     1      12.689   8.908  16.587  0.00  0.00    +0.292 HD
ENDBRANCH  26   2
ENDBRANCH  20  22
ENDBRANCH  15   4
ENDBRANCH  10  15
TORSDOF 7
ENDMDL
MODEL 4
REMARK VINA RESULT:      -6.3      3.003      9.925
REMARK  Name = 44715968
REMARK  8 active torsions:
REMARK  status: ('A' for Active; 'I' for Inactive)
REMARK    1  A    between atoms: O_2  and  C_26
REMARK    2  A    between atoms: N_4  and  C_15
REMARK    3  A    between atoms: N_5  and  C_17
REMARK    4  A    between atoms: N_5  and  C_19
REMARK    5  A    between atoms: C_9  and  C_16
REMARK    6  A    between atoms: C_10  and  C_15
REMARK    7  A    between atoms: C_17  and  C_21
REMARK    8  A    between atoms: C_20  and  C_22
REMARK                            x       y       z     vdW  Elec       q    Type
REMARK                         _______ _______ _______ _____ _____    ______ ____
ROOT
ATOM      3  N   UNL     1      19.894   8.043  23.068  0.00  0.00    -0.297 NA
ATOM      8  C   UNL     1      21.551   6.697  21.579  0.00  0.00    +0.005 C 
ATOM      9  C   UNL     1      21.356   6.024  22.953  0.00  0.00    +0.092 C 
ATOM     10  C   UNL     1      19.177   7.453  21.905  0.00  0.00    +0.078 C 
ATOM     11  C   UNL     1      20.163   6.790  20.917  0.00  0.00    +0.025 C 
ATOM     12  C   UNL     1      22.034   8.144  21.782  0.00  0.00    +0.020 C 
ATOM     13  C   UNL     1      20.503   6.937  23.852  0.00  0.00    +0.097 C 
ATOM     14  C   UNL     1      20.997   8.919  22.608  0.00  0.00    +0.085 C 
ENDROOT
BRANCH   9  16
ATOM      1  O   UNL     1      23.235   6.556  24.281  0.00  0.00    -0.275 OA
ATOM      5  N   UNL     1      23.177   4.417  23.375  0.00  0.00    -0.301 N 
ATOM     16  C   UNL     1      22.671   5.698  23.597  0.00  0.00    +0.220 C 
ATOM     19  C   UNL     1      24.442   3.970  23.941  0.00  0.00    +0.132 C 
BRANCH   5  17
ATOM     17  C   UNL     1      22.475   3.431  22.557  0.00  0.00    +0.134 C 
BRANCH  17  21
ATOM     21  C   UNL     1      23.230   3.227  21.285  0.00  0.00    -0.016 C 
ATOM     23  C   UNL     1      23.612   2.029  20.829  0.00  0.00    +0.005 C 
ENDBRANCH  17  21
ENDBRANCH   5  17
ENDBRANCH   9  16
BRANCH  10  15
ATOM     15  C   UNL     1      18.273   8.471  21.207  0.00  0.00    +0.164 C 
BRANCH  15   4
ATOM      4  N   UNL     1      16.877   7.943  21.035  0.00  0.00    -0.250 N 
ATOM      6  N   UNL     1      16.633   6.902  20.223  0.00  0.00    -0.065 NA
ATOM      7  N   UNL     1      15.327   6.661  20.271  0.00  0.00    -0.130 NA
ATOM     18  C   UNL     1      15.737   8.396  21.626  0.00  0.00    +0.138 A 
ATOM     20  C   UNL     1      14.764   7.567  21.126  0.00  0.00    +0.113 A 
BRANCH  20  22
ATOM     22  C   UNL     1      13.373   7.632  21.442  0.00  0.00    +0.007 A 
ATOM     24  C   UNL     1      12.568   6.504  21.281  0.00  0.00    +0.055 A 
ATOM     25  C   UNL     1      12.820   8.822  21.913  0.00  0.00    +0.010 A 
ATOM     26  C   UNL     1      11.209   6.568  21.591  0.00  0.00    +0.117 A 
ATOM     27  C   UNL     1      11.462   8.886  22.222  0.00  0.00    +0.004 A 
ATOM     28  C   UNL     1      10.656   7.759  22.062  0.00  0.00    +0.045 A 
BRANCH  26   2
ATOM      2  O   UNL     1      10.423   5.468  21.433  0.00  0.00    -0.507 OA
ATOM     29  H   UNL     1      10.955   4.671  21.601  0.00  0.00    +0.292 HD
ENDBRANCH  26   2
ENDBRANCH  20  22
ENDBRANCH  15   4
ENDBRANCH  10  15
TORSDOF 7
ENDMDL
MODEL 5
REMARK VINA RESULT:      -6.3     28.478     29.856
REMARK  Name = 44715968
REMARK  8 active torsions:
REMARK  status: ('A' for Active; 'I' for Inactive)
REMARK    1  A    between atoms: O_2  and  C_26
REMARK    2  A    between atoms: N_4  and  C_15
REMARK    3  A    between atoms: N_5  and  C_17
REMARK    4  A    between atoms: N_5  and  C_19
REMARK    5  A    between atoms: C_9  and  C_16
REMARK    6  A    between atoms: C_10  and  C_15
REMARK    7  A    between atoms: C_17  and  C_21
REMARK    8  A    between atoms: C_20  and  C_22
REMARK                            x       y       z     vdW  Elec       q    Type
REMARK                         _______ _______ _______ _____ _____    ______ ____
ROOT
ATOM      3  N   UNL     1      -5.468 -10.925  10.218  0.00  0.00    -0.297 NA
ATOM      8  C   UNL     1      -5.526  -8.432   9.474  0.00  0.00    +0.005 C 
ATOM      9  C   UNL     1      -6.836  -9.158   9.108  0.00  0.00    +0.092 C 
ATOM     10  C   UNL     1      -5.486 -10.034  11.409  0.00  0.00    +0.078 C 
ATOM     11  C   UNL     1      -5.351  -8.549  11.000  0.00  0.00    +0.025 C 
ATOM     12  C   UNL     1      -4.335  -9.175   8.841  0.00  0.00    +0.020 C 
ATOM     13  C   UNL     1      -6.691 -10.660   9.417  0.00  0.00    +0.097 C 
ATOM     14  C   UNL     1      -4.301 -10.621   9.358  0.00  0.00    +0.085 C 
ENDROOT
BRANCH   9  16
ATOM      1  O   UNL     1      -6.909  -9.781   6.831  0.00  0.00    -0.275 OA
ATOM      5  N   UNL     1      -7.886  -7.746   7.382  0.00  0.00    -0.301 N 
ATOM     16  C   UNL     1      -7.209  -8.931   7.673  0.00  0.00    +0.220 C 
ATOM     19  C   UNL     1      -8.306  -7.400   6.031  0.00  0.00    +0.132 C 
BRANCH   5  17
ATOM     17  C   UNL     1      -8.220  -6.765   8.411  0.00  0.00    +0.134 C 
BRANCH  17  21
ATOM     21  C   UNL     1      -9.701  -6.571   8.437  0.00  0.00    -0.016 C 
ATOM     23  C   UNL     1     -10.297  -5.374   8.432  0.00  0.00    +0.005 C 
ENDBRANCH  17  21
ENDBRANCH   5  17
ENDBRANCH   9  16
BRANCH  10  15
ATOM     15  C   UNL     1      -4.433 -10.434  12.445  0.00  0.00    +0.164 C 
BRANCH  15   4
ATOM      4  N   UNL     1      -5.065 -10.839  13.746  0.00  0.00    -0.250 N 
ATOM      6  N   UNL     1      -6.231 -11.506  13.764  0.00  0.00    -0.065 NA
ATOM      7  N   UNL     1      -6.541 -11.725  15.037  0.00  0.00    -0.130 NA
ATOM     18  C   UNL     1      -4.598 -10.613  15.005  0.00  0.00    +0.138 A 
ATOM     20  C   UNL     1      -5.552 -11.185  15.810  0.00  0.00    +0.113 A 
BRANCH  20  22
ATOM     22  C   UNL     1      -5.526 -11.216  17.237  0.00  0.00    +0.007 A 
ATOM     24  C   UNL     1      -4.415 -11.735  17.903  0.00  0.00    +0.055 A 
ATOM     25  C   UNL     1      -6.610 -10.729  17.965  0.00  0.00    +0.010 A 
ATOM     26  C   UNL     1      -4.390 -11.766  19.298  0.00  0.00    +0.117 A 
ATOM     27  C   UNL     1      -6.585 -10.760  19.359  0.00  0.00    +0.004 A 
ATOM     28  C   UNL     1      -5.475 -11.278  20.025  0.00  0.00    +0.045 A 
BRANCH  26   2
ATOM      2  O   UNL     1      -3.307 -12.273  19.948  0.00  0.00    -0.507 OA
ATOM     29  H   UNL     1      -2.928 -12.995  19.417  0.00  0.00    +0.292 HD
ENDBRANCH  26   2
ENDBRANCH  20  22
ENDBRANCH  15   4
ENDBRANCH  10  15
TORSDOF 7
ENDMDL
MODEL 6
REMARK VINA RESULT:      -6.2     27.956     29.300
REMARK  Name = 44715968
REMARK  8 active torsions:
REMARK  status: ('A' for Active; 'I' for Inactive)
REMARK    1  A    between atoms: O_2  and  C_26
REMARK    2  A    between atoms: N_4  and  C_15
REMARK    3  A    between atoms: N_5  and  C_17
REMARK    4  A    between atoms: N_5  and  C_19
REMARK    5  A    between atoms: C_9  and  C_16
REMARK    6  A    between atoms: C_10  and  C_15
REMARK    7  A    between atoms: C_17  and  C_21
REMARK    8  A    between atoms: C_20  and  C_22
REMARK                            x       y       z     vdW  Elec       q    Type
REMARK                         _______ _______ _______ _____ _____    ______ ____
ROOT
ATOM      3  N   UNL     1      -4.469 -10.564  17.357  0.00  0.00    -0.297 NA
ATOM      8  C   UNL     1      -6.137 -12.557  17.508  0.00  0.00    +0.005 C 
ATOM      9  C   UNL     1      -6.867 -11.203  17.625  0.00  0.00    +0.092 C 
ATOM     10  C   UNL     1      -4.542 -11.273  16.051  0.00  0.00    +0.078 C 
ATOM     11  C   UNL     1      -5.396 -12.558  16.158  0.00  0.00    +0.025 C 
ATOM     12  C   UNL     1      -5.057 -12.651  18.599  0.00  0.00    +0.020 C 
ATOM     13  C   UNL     1      -5.829 -10.068  17.696  0.00  0.00    +0.097 C 
ATOM     14  C   UNL     1      -4.058 -11.496  18.433  0.00  0.00    +0.085 C 
ENDROOT
BRANCH   9  16
ATOM      1  O   UNL     1      -7.389 -11.611  19.892  0.00  0.00    -0.275 OA
ATOM      5  N   UNL     1      -9.060 -10.642  18.601  0.00  0.00    -0.301 N 
ATOM     16  C   UNL     1      -7.787 -11.174  18.809  0.00  0.00    +0.220 C 
ATOM     19  C   UNL     1     -10.052 -10.555  19.664  0.00  0.00    +0.132 C 
BRANCH   5  17
ATOM     17  C   UNL     1      -9.491 -10.135  17.300  0.00  0.00    +0.134 C 
BRANCH  17  21
ATOM     21  C   UNL     1      -9.322  -8.652  17.275  0.00  0.00    -0.016 C 
ATOM     23  C   UNL     1     -10.335  -7.788  17.144  0.00  0.00    +0.005 C 
ENDBRANCH  17  21
ENDBRANCH   5  17
ENDBRANCH   9  16
BRANCH  10  15
ATOM     15  C   UNL     1      -3.155 -11.561  15.472  0.00  0.00    +0.164 C 
BRANCH  15   4
ATOM      4  N   UNL     1      -3.033 -11.062  14.060  0.00  0.00    -0.250 N 
ATOM      6  N   UNL     1      -1.851 -10.639  13.582  0.00  0.00    -0.065 NA
ATOM      7  N   UNL     1      -2.047 -10.262  12.323  0.00  0.00    -0.130 NA
ATOM     18  C   UNL     1      -4.015 -10.968  13.123  0.00  0.00    +0.138 A 
ATOM     20  C   UNL     1      -3.367 -10.457  12.026  0.00  0.00    +0.113 A 
BRANCH  20  22
ATOM     22  C   UNL     1      -3.968 -10.169  10.763  0.00  0.00    +0.007 A 
ATOM     24  C   UNL     1      -4.573  -8.931  10.545  0.00  0.00    +0.055 A 
ATOM     25  C   UNL     1      -3.950 -11.126   9.749  0.00  0.00    +0.010 A 
ATOM     26  C   UNL     1      -5.160  -8.650   9.310  0.00  0.00    +0.117 A 
ATOM     27  C   UNL     1      -4.537 -10.845   8.516  0.00  0.00    +0.004 A 
ATOM     28  C   UNL     1      -5.141  -9.608   8.296  0.00  0.00    +0.045 A 
BRANCH  26   2
ATOM      2  O   UNL     1      -5.750  -7.444   9.096  0.00  0.00    -0.507 OA
ATOM     29  H   UNL     1      -6.048  -7.395   8.171  0.00  0.00    +0.292 HD
ENDBRANCH  26   2
ENDBRANCH  20  22
ENDBRANCH  15   4
ENDBRANCH  10  15
TORSDOF 7
ENDMDL
MODEL 7
REMARK VINA RESULT:      -6.1     28.107     30.761
REMARK  Name = 44715968
REMARK  8 active torsions:
REMARK  status: ('A' for Active; 'I' for Inactive)
REMARK    1  A    between atoms: O_2  and  C_26
REMARK    2  A    between atoms: N_4  and  C_15
REMARK    3  A    between atoms: N_5  and  C_17
REMARK    4  A    between atoms: N_5  and  C_19
REMARK    5  A    between atoms: C_9  and  C_16
REMARK    6  A    between atoms: C_10  and  C_15
REMARK    7  A    between atoms: C_17  and  C_21
REMARK    8  A    between atoms: C_20  and  C_22
REMARK                            x       y       z     vdW  Elec       q    Type
REMARK                         _______ _______ _______ _____ _____    ______ ____
ROOT
ATOM      3  N   UNL     1      -6.220 -11.944  16.992  0.00  0.00    -0.297 NA
ATOM      8  C   UNL     1      -4.383 -10.445  15.919  0.00  0.00    +0.005 C 
ATOM      9  C   UNL     1      -4.860 -11.537  14.940  0.00  0.00    +0.092 C 
ATOM     10  C   UNL     1      -6.737 -10.564  16.788  0.00  0.00    +0.078 C 
ATOM     11  C   UNL     1      -5.618  -9.611  16.308  0.00  0.00    +0.025 C 
ATOM     12  C   UNL     1      -3.877 -11.105  17.214  0.00  0.00    +0.020 C 
ATOM     13  C   UNL     1      -5.821 -12.494  15.671  0.00  0.00    +0.097 C 
ATOM     14  C   UNL     1      -5.011 -11.925  17.848  0.00  0.00    +0.085 C 
ENDROOT
BRANCH   9  16
ATOM      1  O   UNL     1      -3.319 -13.325  14.867  0.00  0.00    -0.275 OA
ATOM      5  N   UNL     1      -3.131 -11.725  13.193  0.00  0.00    -0.301 N 
ATOM     16  C   UNL     1      -3.704 -12.280  14.338  0.00  0.00    +0.220 C 
ATOM     19  C   UNL     1      -2.003 -12.342  12.508  0.00  0.00    +0.132 C 
BRANCH   5  17
ATOM     17  C   UNL     1      -3.619 -10.482  12.599  0.00  0.00    +0.134 C 
BRANCH  17  21
ATOM     21  C   UNL     1      -2.824 -10.184  11.371  0.00  0.00    -0.016 C 
ATOM     23  C   UNL     1      -3.238  -9.368  10.395  0.00  0.00    +0.005 C 
ENDBRANCH  17  21
ENDBRANCH   5  17
ENDBRANCH   9  16
BRANCH  10  15
ATOM     15  C   UNL     1      -7.447 -10.024  18.032  0.00  0.00    +0.164 C 
BRANCH  15   4
ATOM      4  N   UNL     1      -8.866  -9.633  17.730  0.00  0.00    -0.250 N 
ATOM      6  N   UNL     1      -9.893 -10.319  18.259  0.00  0.00    -0.065 NA
ATOM      7  N   UNL     1     -11.013  -9.753  17.822  0.00  0.00    -0.130 NA
ATOM     18  C   UNL     1      -9.299  -8.611  16.942  0.00  0.00    +0.138 A 
ATOM     20  C   UNL     1     -10.667  -8.706  17.014  0.00  0.00    +0.113 A 
BRANCH  20  22
ATOM     22  C   UNL     1     -11.596  -7.847  16.352  0.00  0.00    +0.007 A 
ATOM     24  C   UNL     1     -11.133  -6.792  15.566  0.00  0.00    +0.055 A 
ATOM     25  C   UNL     1     -12.966  -8.065  16.491  0.00  0.00    +0.010 A 
ATOM     26  C   UNL     1     -12.042  -5.953  14.919  0.00  0.00    +0.117 A 
ATOM     27  C   UNL     1     -13.874  -7.227  15.845  0.00  0.00    +0.004 A 
ATOM     28  C   UNL     1     -13.412  -6.171  15.059  0.00  0.00    +0.045 A 
BRANCH  26   2
ATOM      2  O   UNL     1     -11.591  -4.923  14.153  0.00  0.00    -0.507 OA
ATOM     29  H   UNL     1     -12.353  -4.423  13.813  0.00  0.00    +0.292 HD
ENDBRANCH  26   2
ENDBRANCH  20  22
ENDBRANCH  15   4
ENDBRANCH  10  15
TORSDOF 7
ENDMDL
MODEL 8
REMARK VINA RESULT:      -6.0     28.229     30.309
REMARK  Name = 44715968
REMARK  8 active torsions:
REMARK  status: ('A' for Active; 'I' for Inactive)
REMARK    1  A    between atoms: O_2  and  C_26
REMARK    2  A    between atoms: N_4  and  C_15
REMARK    3  A    between atoms: N_5  and  C_17
REMARK    4  A    between atoms: N_5  and  C_19
REMARK    5  A    between atoms: C_9  and  C_16
REMARK    6  A    between atoms: C_10  and  C_15
REMARK    7  A    between atoms: C_17  and  C_21
REMARK    8  A    between atoms: C_20  and  C_22
REMARK                            x       y       z     vdW  Elec       q    Type
REMARK                         _______ _______ _______ _____ _____    ______ ____
ROOT
ATOM      3  N   UNL     1      -3.953 -12.946  14.578  0.00  0.00    -0.297 NA
ATOM      8  C   UNL     1      -2.864 -11.459  12.741  0.00  0.00    +0.005 C 
ATOM      9  C   UNL     1      -4.143 -12.147  12.221  0.00  0.00    +0.092 C 
ATOM     10  C   UNL     1      -4.049 -11.510  14.955  0.00  0.00    +0.078 C 
ATOM     11  C   UNL     1      -3.264 -10.617  13.966  0.00  0.00    +0.025 C 
ATOM     12  C   UNL     1      -1.880 -12.528  13.249  0.00  0.00    +0.020 C 
ATOM     13  C   UNL     1      -4.657 -13.137  13.283  0.00  0.00    +0.097 C 
ATOM     14  C   UNL     1      -2.539 -13.337  14.376  0.00  0.00    +0.085 C 
ENDROOT
BRANCH   9  16
ATOM      1  O   UNL     1      -3.312 -13.911  10.890  0.00  0.00    -0.275 OA
ATOM      5  N   UNL     1      -4.387 -12.182   9.769  0.00  0.00    -0.301 N 
ATOM     16  C   UNL     1      -3.907 -12.830  10.908  0.00  0.00    +0.220 C 
ATOM     19  C   UNL     1      -4.225 -12.735   8.431  0.00  0.00    +0.132 C 
BRANCH   5  17
ATOM     17  C   UNL     1      -5.086 -10.902   9.836  0.00  0.00    +0.134 C 
BRANCH  17  21
ATOM     21  C   UNL     1      -4.207  -9.836   9.268  0.00  0.00    -0.016 C 
ATOM     23  C   UNL     1      -3.280  -9.180   9.974  0.00  0.00    +0.005 C 
ENDBRANCH  17  21
ENDBRANCH   5  17
ENDBRANCH   9  16
BRANCH  10  15
ATOM     15  C   UNL     1      -3.621 -11.263  16.404  0.00  0.00    +0.164 C 
BRANCH  15   4
ATOM      4  N   UNL     1      -4.807 -11.163  17.320  0.00  0.00    -0.250 N 
ATOM      6  N   UNL     1      -4.721 -11.563  18.599  0.00  0.00    -0.065 NA
ATOM      7  N   UNL     1      -5.910 -11.359  19.158  0.00  0.00    -0.130 NA
ATOM     18  C   UNL     1      -6.050 -10.693  17.025  0.00  0.00    +0.138 A 
ATOM     20  C   UNL     1      -6.734 -10.826  18.207  0.00  0.00    +0.113 A 
BRANCH  20  22
ATOM     22  C   UNL     1      -8.100 -10.467  18.423  0.00  0.00    +0.007 A 
ATOM     24  C   UNL     1      -8.809 -11.029  19.485  0.00  0.00    +0.055 A 
ATOM     25  C   UNL     1      -8.723  -9.555  17.572  0.00  0.00    +0.010 A 
ATOM     26  C   UNL     1     -10.143 -10.678  19.695  0.00  0.00    +0.117 A 
ATOM     27  C   UNL     1     -10.056  -9.204  17.783  0.00  0.00    +0.004 A 
ATOM     28  C   UNL     1     -10.766  -9.765  18.844  0.00  0.00    +0.045 A 
BRANCH  26   2
ATOM      2  O   UNL     1     -10.836 -11.226  20.730  0.00  0.00    -0.507 OA
ATOM     29  H   UNL     1     -11.777 -10.997  20.639  0.00  0.00    +0.292 HD
ENDBRANCH  26   2
ENDBRANCH  20  22
ENDBRANCH  15   4
ENDBRANCH  10  15
TORSDOF 7
ENDMDL
MODEL 9
REMARK VINA RESULT:      -6.0     28.422     30.416
REMARK  Name = 44715968
REMARK  8 active torsions:
REMARK  status: ('A' for Active; 'I' for Inactive)
REMARK    1  A    between atoms: O_2  and  C_26
REMARK    2  A    between atoms: N_4  and  C_15
REMARK    3  A    between atoms: N_5  and  C_17
REMARK    4  A    between atoms: N_5  and  C_19
REMARK    5  A    between atoms: C_9  and  C_16
REMARK    6  A    between atoms: C_10  and  C_15
REMARK    7  A    between atoms: C_17  and  C_21
REMARK    8  A    between atoms: C_20  and  C_22
REMARK                            x       y       z     vdW  Elec       q    Type
REMARK                         _______ _______ _______ _____ _____    ______ ____
ROOT
ATOM      3  N   UNL     1      -5.637  -8.745   9.994  0.00  0.00    -0.297 NA
ATOM      8  C   UNL     1      -6.597 -10.954   9.007  0.00  0.00    +0.005 C 
ATOM      9  C   UNL     1      -5.212 -10.627   8.410  0.00  0.00    +0.092 C 
ATOM     10  C   UNL     1      -5.701  -9.794  11.048  0.00  0.00    +0.078 C 
ATOM     11  C   UNL     1      -6.421 -11.062  10.533  0.00  0.00    +0.025 C 
ATOM     12  C   UNL     1      -7.552  -9.772   8.761  0.00  0.00    +0.020 C 
ATOM     13  C   UNL     1      -4.762  -9.237   8.898  0.00  0.00    +0.097 C 
ATOM     14  C   UNL     1      -6.980  -8.506   9.416  0.00  0.00    +0.085 C 
ENDROOT
BRANCH   9  16
ATOM      1  O   UNL     1      -5.754  -9.789   6.270  0.00  0.00    -0.275 OA
ATOM      5  N   UNL     1      -4.629 -11.821   6.335  0.00  0.00    -0.301 N 
ATOM     16  C   UNL     1      -5.227 -10.701   6.913  0.00  0.00    +0.220 C 
ATOM     19  C   UNL     1      -4.574 -12.019   4.893  0.00  0.00    +0.132 C 
BRANCH   5  17
ATOM     17  C   UNL     1      -4.017 -12.879   7.135  0.00  0.00    +0.134 C 
BRANCH  17  21
ATOM     21  C   UNL     1      -4.816 -14.131   6.982  0.00  0.00    -0.016 C 
ATOM     23  C   UNL     1      -6.086 -14.259   7.382  0.00  0.00    +0.005 C 
ENDBRANCH  17  21
ENDBRANCH   5  17
ENDBRANCH   9  16
BRANCH  10  15
ATOM     15  C   UNL     1      -6.327  -9.273  12.343  0.00  0.00    +0.164 C 
BRANCH  15   4
ATOM      4  N   UNL     1      -5.650  -9.849  13.554  0.00  0.00    -0.250 N 
ATOM      6  N   UNL     1      -4.421 -10.384  13.462  0.00  0.00    -0.065 NA
ATOM      7  N   UNL     1      -4.084 -10.808  14.676  0.00  0.00    -0.130 NA
ATOM     18  C   UNL     1      -6.132  -9.915  14.825  0.00  0.00    +0.138 A 
ATOM     20  C   UNL     1      -5.120 -10.528  15.522  0.00  0.00    +0.113 A 
BRANCH  20  22
ATOM     22  C   UNL     1      -5.136 -10.832  16.917  0.00  0.00    +0.007 A 
ATOM     24  C   UNL     1      -6.177 -10.366  17.721  0.00  0.00    +0.055 A 
ATOM     25  C   UNL     1      -4.112 -11.596  17.475  0.00  0.00    +0.010 A 
ATOM     26  C   UNL     1      -6.192 -10.664  19.084  0.00  0.00    +0.117 A 
ATOM     27  C   UNL     1      -4.127 -11.893  18.838  0.00  0.00    +0.004 A 
ATOM     28  C   UNL     1      -5.166 -11.428  19.642  0.00  0.00    +0.045 A 
BRANCH  26   2
ATOM      2  O   UNL     1      -7.206 -10.209  19.869  0.00  0.00    -0.507 OA
ATOM     29  H   UNL     1      -8.044 -10.282  19.379  0.00  0.00    +0.292 HD
ENDBRANCH  26   2
ENDBRANCH  20  22
ENDBRANCH  15   4
ENDBRANCH  10  15
TORSDOF 7
ENDMDL
MODEL 10
REMARK VINA RESULT:      -5.9     17.009     18.633
REMARK  Name = 44715968
REMARK  8 active torsions:
REMARK  status: ('A' for Active; 'I' for Inactive)
REMARK    1  A    between atoms: O_2  and  C_26
REMARK    2  A    between atoms: N_4  and  C_15
REMARK    3  A    between atoms: N_5  and  C_17
REMARK    4  A    between atoms: N_5  and  C_19
REMARK    5  A    between atoms: C_9  and  C_16
REMARK    6  A    between atoms: C_10  and  C_15
REMARK    7  A    between atoms: C_17  and  C_21
REMARK    8  A    between atoms: C_20  and  C_22
REMARK                            x       y       z     vdW  Elec       q    Type
REMARK                         _______ _______ _______ _____ _____    ______ ____
ROOT
ATOM      3  N   UNL     1      10.793   5.264   5.030  0.00  0.00    -0.297 NA
ATOM      8  C   UNL     1       9.063   7.200   4.853  0.00  0.00    +0.005 C 
ATOM      9  C   UNL     1      10.303   7.627   5.666  0.00  0.00    +0.092 C 
ATOM     10  C   UNL     1      10.697   5.740   3.624  0.00  0.00    +0.078 C 
ATOM     11  C   UNL     1       9.559   6.773   3.458  0.00  0.00    +0.025 C 
ATOM     12  C   UNL     1       8.436   5.950   5.494  0.00  0.00    +0.020 C 
ATOM     13  C   UNL     1      11.216   6.406   5.882  0.00  0.00    +0.097 C 
ATOM     14  C   UNL     1       9.469   4.813   5.518  0.00  0.00    +0.085 C 
ENDROOT
BRANCH   9  16
ATOM      1  O   UNL     1       9.680   7.531   7.942  0.00  0.00    -0.275 OA
ATOM      5  N   UNL     1       9.844   9.648   7.000  0.00  0.00    -0.301 N 
ATOM     16  C   UNL     1       9.915   8.255   6.972  0.00  0.00    +0.220 C 
ATOM     19  C   UNL     1       9.480  10.386   8.202  0.00  0.00    +0.132 C 
BRANCH   5  17
ATOM     17  C   UNL     1      10.130  10.468   5.825  0.00  0.00    +0.134 C 
BRANCH  17  21
ATOM     21  C   UNL     1       8.894  11.211   5.437  0.00  0.00    -0.016 C 
ATOM     23  C   UNL     1       7.855  10.653   4.807  0.00  0.00    +0.005 C 
ENDBRANCH  17  21
ENDBRANCH   5  17
ENDBRANCH   9  16
BRANCH  10  15
ATOM     15  C   UNL     1      10.561   4.583   2.631  0.00  0.00    +0.164 C 
BRANCH  15   4
ATOM      4  N   UNL     1      11.864   4.292   1.942  0.00  0.00    -0.250 N 
ATOM      6  N   UNL     1      12.466   3.100   2.089  0.00  0.00    -0.065 NA
ATOM      7  N   UNL     1      13.586   3.133   1.373  0.00  0.00    -0.130 NA
ATOM     18  C   UNL     1      12.579   5.118   1.130  0.00  0.00    +0.138 A 
ATOM     20  C   UNL     1      13.669   4.361   0.780  0.00  0.00    +0.113 A 
BRANCH  20  22
ATOM     22  C   UNL     1      14.735   4.782  -0.073  0.00  0.00    +0.007 A 
ATOM     24  C   UNL     1      15.859   3.972  -0.236  0.00  0.00    +0.055 A 
ATOM     25  C   UNL     1      14.650   6.001  -0.744  0.00  0.00    +0.010 A 
ATOM     26  C   UNL     1      16.900   4.383  -1.070  0.00  0.00    +0.117 A 
ATOM     27  C   UNL     1      15.690   6.413  -1.577  0.00  0.00    +0.004 A 
ATOM     28  C   UNL     1      16.815   5.604  -1.740  0.00  0.00    +0.045 A 
BRANCH  26   2
ATOM      2  O   UNL     1      17.997   3.594  -1.228  0.00  0.00    -0.507 OA
ATOM     29  H   UNL     1      18.756   4.015  -0.789  0.00  0.00    +0.292 HD
ENDBRANCH  26   2
ENDBRANCH  20  22
ENDBRANCH  15   4
ENDBRANCH  10  15
TORSDOF 7
ENDMDL
