MODEL 1
REMARK VINA RESULT:      -7.9      0.000      0.000
REMARK  Name = 11866366
REMARK  9 active torsions:
REMARK  status: ('A' for Active; 'I' for Inactive)
REMARK    1  A    between atoms: O_3  and  C_12
REMARK    2  A    between atoms: O_4  and  C_15
REMARK    3  A    between atoms: O_5  and  C_17
REMARK    4  A    between atoms: N_9  and  C_13
REMARK    5  A    between atoms: N_10  and  C_20
REMARK    6  A    between atoms: C_12  and  C_18
REMARK    7  A    between atoms: C_19  and  C_21
REMARK    8  A    between atoms: C_20  and  C_22
REMARK    9  A    between atoms: C_22  and  C_25
REMARK                            x       y       z     vdW  Elec       q    Type
REMARK                         _______ _______ _______ _____ _____    ______ ____
ROOT
ATOM     12  C   UNL     1      11.917   9.494  22.207  0.00  0.00    +0.146 C 
ATOM     13  C   UNL     1      13.166   7.445  21.371  0.00  0.00    +0.107 C 
ATOM     14  C   UNL     1      13.276   8.808  22.063  0.00  0.00    +0.069 C 
ATOM     15  C   UNL     1      12.432   7.546  20.027  0.00  0.00    +0.163 C 
ATOM     16  C   UNL     1      11.206   9.605  20.860  0.00  0.00    +0.078 C 
ATOM     17  C   UNL     1      11.080   8.250  20.162  0.00  0.00    +0.148 C 
ENDROOT
BRANCH  12  18
ATOM      6  O   UNL     1      13.143  11.237  23.287  0.00  0.00    -0.273 OA
ATOM     10  N   UNL     1      10.888  11.571  22.815  0.00  0.00    -0.312 N 
ATOM     18  C   UNL     1      12.072  10.854  22.823  0.00  0.00    +0.245 C 
ATOM     33  H   UNL     1      10.044  11.162  22.429  0.00  0.00    +0.149 HD
BRANCH  10  20
ATOM     20  C   UNL     1      10.765  12.900  23.369  0.00  0.00    +0.113 C 
BRANCH  20  22
ATOM     22  C   UNL     1      10.543  12.877  24.876  0.00  0.00    +0.114 C 
BRANCH  22  25
ATOM      8  O   UNL     1      11.775  14.712  25.884  0.00  0.00    -0.276 OA
ATOM     11  N   UNL     1      12.600  12.576  26.089  0.00  0.00    -0.329 N 
ATOM     25  C   UNL     1      11.678  13.508  25.661  0.00  0.00    +0.212 C 
ATOM     34  H   UNL     1      12.501  11.586  25.890  0.00  0.00    +0.145 HD
ATOM     35  H   UNL     1      13.415  12.856  26.624  0.00  0.00    +0.145 HD
ENDBRANCH  22  25
ENDBRANCH  20  22
ENDBRANCH  10  20
ENDBRANCH  12  18
BRANCH  13   9
ATOM      7  O   UNL     1      15.277   8.513  19.746  0.00  0.00    -0.270 OA
ATOM      9  N   UNL     1      14.486   6.881  21.189  0.00  0.00    -0.306 N 
ATOM     19  C   UNL     1      15.439   7.474  20.379  0.00  0.00    +0.244 C 
ATOM     29  H   UNL     1      14.648   5.961  21.587  0.00  0.00    +0.149 HD
BRANCH  19  21
ATOM      1 CL   UNL     1      20.104   6.505  22.375  0.00  0.00    -0.081 Cl
ATOM      2  F   UNL     1      20.307   4.766  19.982  0.00  0.00    -0.204 F 
ATOM     21  C   UNL     1      16.736   6.756  20.277  0.00  0.00    +0.038 A 
ATOM     23  C   UNL     1      17.686   6.952  21.259  0.00  0.00    +0.036 A 
ATOM     24  C   UNL     1      16.949   5.915  19.204  0.00  0.00    +0.016 A 
ATOM     26  C   UNL     1      18.903   6.278  21.164  0.00  0.00    +0.077 A 
ATOM     27  C   UNL     1      18.166   5.240  19.110  0.00  0.00    +0.040 A 
ATOM     28  C   UNL     1      19.143   5.421  20.088  0.00  0.00    +0.142 A 
ENDBRANCH  19  21
ENDBRANCH  13   9
BRANCH  12   3
ATOM      3  O   UNL     1      11.088   8.773  23.112  0.00  0.00    -0.379 OA
ATOM     30  H   UNL     1      11.433   8.899  24.012  0.00  0.00    +0.211 HD
ENDBRANCH  12   3
BRANCH  15   4
ATOM      4  O   UNL     1      12.185   6.227  19.530  0.00  0.00    -0.387 OA
ATOM     31  H   UNL     1      13.046   5.816  19.346  0.00  0.00    +0.210 HD
ENDBRANCH  15   4
BRANCH  17   5
ATOM      5  O   UNL     1      10.543   8.453  18.855  0.00  0.00    -0.389 OA
ATOM     32  H   UNL     1      10.637   7.620  18.363  0.00  0.00    +0.210 HD
ENDBRANCH  17   5
TORSDOF 9
ENDMDL
MODEL 2
REMARK VINA RESULT:      -7.3      4.356      6.227
REMARK  Name = 11866366
REMARK  9 active torsions:
REMARK  status: ('A' for Active; 'I' for Inactive)
REMARK    1  A    between atoms: O_3  and  C_12
REMARK    2  A    between atoms: O_4  and  C_15
REMARK    3  A    between atoms: O_5  and  C_17
REMARK    4  A    between atoms: N_9  and  C_13
REMARK    5  A    between atoms: N_10  and  C_20
REMARK    6  A    between atoms: C_12  and  C_18
REMARK    7  A    between atoms: C_19  and  C_21
REMARK    8  A    between atoms: C_20  and  C_22
REMARK    9  A    between atoms: C_22  and  C_25
REMARK                            x       y       z     vdW  Elec       q    Type
REMARK                         _______ _______ _______ _____ _____    ______ ____
ROOT
ATOM     12  C   UNL     1      13.488   8.766  17.892  0.00  0.00    +0.146 C 
ATOM     13  C   UNL     1      14.820   7.971  19.904  0.00  0.00    +0.107 C 
ATOM     14  C   UNL     1      14.879   8.487  18.463  0.00  0.00    +0.069 C 
ATOM     15  C   UNL     1      13.895   6.753  20.036  0.00  0.00    +0.163 C 
ATOM     16  C   UNL     1      12.584   7.541  18.012  0.00  0.00    +0.078 C 
ATOM     17  C   UNL     1      12.508   7.020  19.448  0.00  0.00    +0.148 C 
ENDROOT
BRANCH  12  18
ATOM      6  O   UNL     1      13.411   8.418  15.530  0.00  0.00    -0.273 OA
ATOM     10  N   UNL     1      13.893  10.546  16.340  0.00  0.00    -0.312 N 
ATOM     18  C   UNL     1      13.581   9.202  16.459  0.00  0.00    +0.245 C 
ATOM     33  H   UNL     1      14.039  11.113  17.168  0.00  0.00    +0.149 HD
BRANCH  10  20
ATOM     20  C   UNL     1      14.062  11.208  15.067  0.00  0.00    +0.113 C 
BRANCH  20  22
ATOM     22  C   UNL     1      15.450  10.983  14.480  0.00  0.00    +0.114 C 
BRANCH  22  25
ATOM      8  O   UNL     1      15.819  13.186  13.525  0.00  0.00    -0.276 OA
ATOM     11  N   UNL     1      16.098  11.335  12.189  0.00  0.00    -0.329 N 
ATOM     25  C   UNL     1      15.804  11.967  13.379  0.00  0.00    +0.212 C 
ATOM     34  H   UNL     1      16.076  10.326  12.091  0.00  0.00    +0.145 HD
ATOM     35  H   UNL     1      16.349  11.869  11.364  0.00  0.00    +0.145 HD
ENDBRANCH  22  25
ENDBRANCH  20  22
ENDBRANCH  10  20
ENDBRANCH  12  18
BRANCH  13   9
ATOM      7  O   UNL     1      16.460   5.792  19.008  0.00  0.00    -0.270 OA
ATOM      9  N   UNL     1      16.154   7.648  20.364  0.00  0.00    -0.306 N 
ATOM     19  C   UNL     1      16.866   6.570  19.867  0.00  0.00    +0.244 C 
ATOM     29  H   UNL     1      16.504   8.176  21.156  0.00  0.00    +0.149 HD
BRANCH  19  21
ATOM      1 CL   UNL     1      20.343   7.852  23.466  0.00  0.00    -0.081 Cl
ATOM      2  F   UNL     1      21.926   5.758  22.088  0.00  0.00    -0.204 F 
ATOM     21  C   UNL     1      18.212   6.357  20.461  0.00  0.00    +0.038 A 
ATOM     23  C   UNL     1      18.588   7.117  21.550  0.00  0.00    +0.036 A 
ATOM     24  C   UNL     1      19.042   5.406  19.905  0.00  0.00    +0.016 A 
ATOM     26  C   UNL     1      19.850   6.918  22.108  0.00  0.00    +0.077 A 
ATOM     27  C   UNL     1      20.305   5.206  20.463  0.00  0.00    +0.040 A 
ATOM     28  C   UNL     1      20.709   5.961  21.564  0.00  0.00    +0.142 A 
ENDBRANCH  19  21
ENDBRANCH  13   9
BRANCH  12   3
ATOM      3  O   UNL     1      12.881   9.861  18.570  0.00  0.00    -0.379 OA
ATOM     30  H   UNL     1      12.051  10.082  18.116  0.00  0.00    +0.211 HD
ENDBRANCH  12   3
BRANCH  15   4
ATOM      4  O   UNL     1      13.724   6.445  21.423  0.00  0.00    -0.387 OA
ATOM     31  H   UNL     1      13.131   7.115  21.802  0.00  0.00    +0.210 HD
ENDBRANCH  15   4
BRANCH  17   5
ATOM      5  O   UNL     1      11.769   5.798  19.456  0.00  0.00    -0.389 OA
ATOM     32  H   UNL     1      11.860   5.403  20.340  0.00  0.00    +0.210 HD
ENDBRANCH  17   5
TORSDOF 9
ENDMDL
MODEL 3
REMARK VINA RESULT:      -7.0     27.520     28.857
REMARK  Name = 11866366
REMARK  9 active torsions:
REMARK  status: ('A' for Active; 'I' for Inactive)
REMARK    1  A    between atoms: O_3  and  C_12
REMARK    2  A    between atoms: O_4  and  C_15
REMARK    3  A    between atoms: O_5  and  C_17
REMARK    4  A    between atoms: N_9  and  C_13
REMARK    5  A    between atoms: N_10  and  C_20
REMARK    6  A    between atoms: C_12  and  C_18
REMARK    7  A    between atoms: C_19  and  C_21
REMARK    8  A    between atoms: C_20  and  C_22
REMARK    9  A    between atoms: C_22  and  C_25
REMARK                            x       y       z     vdW  Elec       q    Type
REMARK                         _______ _______ _______ _____ _____    ______ ____
ROOT
ATOM     12  C   UNL     1      -6.851 -10.951  18.436  0.00  0.00    +0.146 C 
ATOM     13  C   UNL     1      -4.938 -10.369  16.867  0.00  0.00    +0.107 C 
ATOM     14  C   UNL     1      -6.456 -10.506  17.026  0.00  0.00    +0.069 C 
ATOM     15  C   UNL     1      -4.203 -11.649  17.288  0.00  0.00    +0.163 C 
ATOM     16  C   UNL     1      -6.127 -12.236  18.834  0.00  0.00    +0.078 C 
ATOM     17  C   UNL     1      -4.610 -12.111  18.689  0.00  0.00    +0.148 C 
ENDROOT
BRANCH  12  18
ATOM      6  O   UNL     1      -8.851 -12.256  18.492  0.00  0.00    -0.273 OA
ATOM     10  N   UNL     1      -9.011  -9.939  18.651  0.00  0.00    -0.312 N 
ATOM     18  C   UNL     1      -8.336 -11.142  18.534  0.00  0.00    +0.245 C 
ATOM     33  H   UNL     1      -8.501  -9.062  18.654  0.00  0.00    +0.149 HD
BRANCH  10  20
ATOM     20  C   UNL     1     -10.451  -9.846  18.740  0.00  0.00    +0.113 C 
BRANCH  20  22
ATOM     22  C   UNL     1     -11.065  -9.208  17.501  0.00  0.00    +0.114 C 
BRANCH  22  25
ATOM      8  O   UNL     1      -9.206  -8.531  16.093  0.00  0.00    -0.276 OA
ATOM     11  N   UNL     1     -10.474  -6.907  17.112  0.00  0.00    -0.329 N 
ATOM     25  C   UNL     1     -10.144  -8.213  16.818  0.00  0.00    +0.212 C 
ATOM     34  H   UNL     1     -11.253  -6.669  17.717  0.00  0.00    +0.145 HD
ATOM     35  H   UNL     1      -9.942  -6.135  16.727  0.00  0.00    +0.145 HD
ENDBRANCH  22  25
ENDBRANCH  20  22
ENDBRANCH  10  20
ENDBRANCH  12  18
BRANCH  13   9
ATOM      7  O   UNL     1      -5.157 -12.083  14.575  0.00  0.00    -0.270 OA
ATOM      9  N   UNL     1      -4.619 -10.026  15.498  0.00  0.00    -0.306 N 
ATOM     19  C   UNL     1      -4.758 -10.928  14.457  0.00  0.00    +0.244 C 
ATOM     29  H   UNL     1      -4.171  -9.128  15.345  0.00  0.00    +0.149 HD
BRANCH  19  21
ATOM      1 CL   UNL     1      -6.114  -8.581  10.059  0.00  0.00    -0.081 Cl
ATOM      2  F   UNL     1      -3.260  -9.059   9.413  0.00  0.00    -0.204 F 
ATOM     21  C   UNL     1      -4.364 -10.430  13.114  0.00  0.00    +0.038 A 
ATOM     23  C   UNL     1      -5.316  -9.818  12.324  0.00  0.00    +0.036 A 
ATOM     24  C   UNL     1      -3.059 -10.594  12.700  0.00  0.00    +0.016 A 
ATOM     26  C   UNL     1      -4.946  -9.349  11.064  0.00  0.00    +0.077 A 
ATOM     27  C   UNL     1      -2.689 -10.126  11.439  0.00  0.00    +0.040 A 
ATOM     28  C   UNL     1      -3.631  -9.503  10.621  0.00  0.00    +0.142 A 
ENDBRANCH  19  21
ENDBRANCH  13   9
BRANCH  12   3
ATOM      3  O   UNL     1      -6.547  -9.933  19.383  0.00  0.00    -0.379 OA
ATOM     30  H   UNL     1      -6.642  -9.069  18.948  0.00  0.00    +0.211 HD
ENDBRANCH  12   3
BRANCH  15   4
ATOM      4  O   UNL     1      -2.795 -11.393  17.308  0.00  0.00    -0.387 OA
ATOM     31  H   UNL     1      -2.563 -10.959  16.471  0.00  0.00    +0.210 HD
ENDBRANCH  15   4
BRANCH  17   5
ATOM      5  O   UNL     1      -4.017 -13.386  18.935  0.00  0.00    -0.389 OA
ATOM     32  H   UNL     1      -3.807 -13.436  19.884  0.00  0.00    +0.210 HD
ENDBRANCH  17   5
TORSDOF 9
ENDMDL
MODEL 4
REMARK VINA RESULT:      -6.9      3.921      6.455
REMARK  Name = 11866366
REMARK  9 active torsions:
REMARK  status: ('A' for Active; 'I' for Inactive)
REMARK    1  A    between atoms: O_3  and  C_12
REMARK    2  A    between atoms: O_4  and  C_15
REMARK    3  A    between atoms: O_5  and  C_17
REMARK    4  A    between atoms: N_9  and  C_13
REMARK    5  A    between atoms: N_10  and  C_20
REMARK    6  A    between atoms: C_12  and  C_18
REMARK    7  A    between atoms: C_19  and  C_21
REMARK    8  A    between atoms: C_20  and  C_22
REMARK    9  A    between atoms: C_22  and  C_25
REMARK                            x       y       z     vdW  Elec       q    Type
REMARK                         _______ _______ _______ _____ _____    ______ ____
ROOT
ATOM     12  C   UNL     1      16.146   7.160  21.184  0.00  0.00    +0.146 C 
ATOM     13  C   UNL     1      18.646   6.711  21.251  0.00  0.00    +0.107 C 
ATOM     14  C   UNL     1      17.530   7.732  21.495  0.00  0.00    +0.069 C 
ATOM     15  C   UNL     1      18.578   6.120  19.836  0.00  0.00    +0.163 C 
ATOM     16  C   UNL     1      16.087   6.593  19.767  0.00  0.00    +0.078 C 
ATOM     17  C   UNL     1      17.190   5.565  19.512  0.00  0.00    +0.148 C 
ENDROOT
BRANCH  12  18
ATOM      6  O   UNL     1      15.328   9.403  21.233  0.00  0.00    -0.273 OA
ATOM     10  N   UNL     1      13.863   7.659  21.714  0.00  0.00    -0.312 N 
ATOM     18  C   UNL     1      15.087   8.207  21.367  0.00  0.00    +0.245 C 
ATOM     33  H   UNL     1      13.764   6.655  21.825  0.00  0.00    +0.149 HD
BRANCH  10  20
ATOM     20  C   UNL     1      12.685   8.455  21.969  0.00  0.00    +0.113 C 
BRANCH  20  22
ATOM     22  C   UNL     1      11.400   7.655  21.797  0.00  0.00    +0.114 C 
BRANCH  22  25
ATOM      8  O   UNL     1      12.074   6.577  19.727  0.00  0.00    -0.276 OA
ATOM     11  N   UNL     1      10.985   5.332  21.324  0.00  0.00    -0.329 N 
ATOM     25  C   UNL     1      11.539   6.494  20.829  0.00  0.00    +0.212 C 
ATOM     34  H   UNL     1      10.545   5.287  22.237  0.00  0.00    +0.145 HD
ATOM     35  H   UNL     1      11.002   4.475  20.782  0.00  0.00    +0.145 HD
ENDBRANCH  22  25
ENDBRANCH  20  22
ENDBRANCH  10  20
ENDBRANCH  12  18
BRANCH  13   9
ATOM      7  O   UNL     1      20.854   5.581  22.695  0.00  0.00    -0.270 OA
ATOM      9  N   UNL     1      19.934   7.329  21.482  0.00  0.00    -0.306 N 
ATOM     19  C   UNL     1      20.939   6.699  22.196  0.00  0.00    +0.244 C 
ATOM     29  H   UNL     1      20.032   8.299  21.202  0.00  0.00    +0.149 HD
BRANCH  19  21
ATOM      1 CL   UNL     1      23.339  11.271  22.045  0.00  0.00    -0.081 Cl
ATOM      2  F   UNL     1      25.659   9.611  22.852  0.00  0.00    -0.204 F 
ATOM     21  C   UNL     1      22.193   7.477  22.369  0.00  0.00    +0.038 A 
ATOM     23  C   UNL     1      22.168   8.840  22.149  0.00  0.00    +0.036 A 
ATOM     24  C   UNL     1      23.343   6.814  22.744  0.00  0.00    +0.016 A 
ATOM     26  C   UNL     1      23.344   9.571  22.312  0.00  0.00    +0.077 A 
ATOM     27  C   UNL     1      24.519   7.545  22.907  0.00  0.00    +0.040 A 
ATOM     28  C   UNL     1      24.521   8.923  22.692  0.00  0.00    +0.142 A 
ENDBRANCH  19  21
ENDBRANCH  13   9
BRANCH  12   3
ATOM      3  O   UNL     1      15.812   6.133  22.111  0.00  0.00    -0.379 OA
ATOM     30  H   UNL     1      16.591   5.949  22.662  0.00  0.00    +0.211 HD
ENDBRANCH  12   3
BRANCH  15   4
ATOM      4  O   UNL     1      19.511   5.039  19.737  0.00  0.00    -0.387 OA
ATOM     31  H   UNL     1      19.003   4.227  19.575  0.00  0.00    +0.210 HD
ENDBRANCH  15   4
BRANCH  17   5
ATOM      5  O   UNL     1      17.162   5.192  18.134  0.00  0.00    -0.389 OA
ATOM     32  H   UNL     1      16.516   4.471  18.036  0.00  0.00    +0.210 HD
ENDBRANCH  17   5
TORSDOF 9
ENDMDL
MODEL 5
REMARK VINA RESULT:      -6.9     27.464     30.097
REMARK  Name = 11866366
REMARK  9 active torsions:
REMARK  status: ('A' for Active; 'I' for Inactive)
REMARK    1  A    between atoms: O_3  and  C_12
REMARK    2  A    between atoms: O_4  and  C_15
REMARK    3  A    between atoms: O_5  and  C_17
REMARK    4  A    between atoms: N_9  and  C_13
REMARK    5  A    between atoms: N_10  and  C_20
REMARK    6  A    between atoms: C_12  and  C_18
REMARK    7  A    between atoms: C_19  and  C_21
REMARK    8  A    between atoms: C_20  and  C_22
REMARK    9  A    between atoms: C_22  and  C_25
REMARK                            x       y       z     vdW  Elec       q    Type
REMARK                         _______ _______ _______ _____ _____    ______ ____
ROOT
ATOM     12  C   UNL     1      -5.113 -11.571  17.296  0.00  0.00    +0.146 C 
ATOM     13  C   UNL     1      -7.441 -10.617  17.652  0.00  0.00    +0.107 C 
ATOM     14  C   UNL     1      -6.156 -10.558  16.820  0.00  0.00    +0.069 C 
ATOM     15  C   UNL     1      -7.156 -10.480  19.154  0.00  0.00    +0.163 C 
ATOM     16  C   UNL     1      -4.824 -11.411  18.787  0.00  0.00    +0.078 C 
ATOM     17  C   UNL     1      -6.098 -11.477  19.631  0.00  0.00    +0.148 C 
ENDROOT
BRANCH  12  18
ATOM      6  O   UNL     1      -3.033 -10.543  16.730  0.00  0.00    -0.273 OA
ATOM     10  N   UNL     1      -3.737 -12.404  15.521  0.00  0.00    -0.312 N 
ATOM     18  C   UNL     1      -3.845 -11.436  16.506  0.00  0.00    +0.245 C 
ATOM     33  H   UNL     1      -4.472 -13.090  15.394  0.00  0.00    +0.149 HD
BRANCH  10  20
ATOM     20  C   UNL     1      -2.619 -12.479  14.608  0.00  0.00    +0.113 C 
BRANCH  20  22
ATOM     22  C   UNL     1      -2.912 -11.793  13.280  0.00  0.00    +0.114 C 
BRANCH  22  25
ATOM      8  O   UNL     1      -1.626 -10.266  11.896  0.00  0.00    -0.276 OA
ATOM     11  N   UNL     1      -1.688  -9.921  14.169  0.00  0.00    -0.329 N 
ATOM     25  C   UNL     1      -2.019 -10.595  13.012  0.00  0.00    +0.212 C 
ATOM     34  H   UNL     1      -2.022 -10.214  15.081  0.00  0.00    +0.145 HD
ATOM     35  H   UNL     1      -1.093  -9.101  14.142  0.00  0.00    +0.145 HD
ENDBRANCH  22  25
ENDBRANCH  20  22
ENDBRANCH  10  20
ENDBRANCH  12  18
BRANCH  13   9
ATOM      7  O   UNL     1     -10.298 -10.828  17.469  0.00  0.00    -0.270 OA
ATOM      9  N   UNL     1      -8.357  -9.587  17.212  0.00  0.00    -0.306 N 
ATOM     19  C   UNL     1      -9.726  -9.787  17.158  0.00  0.00    +0.244 C 
ATOM     29  H   UNL     1      -7.944  -8.744  16.827  0.00  0.00    +0.149 HD
BRANCH  19  21
ATOM      1 CL   UNL     1     -14.375  -7.749  16.201  0.00  0.00    -0.081 Cl
ATOM      2  F   UNL     1     -12.723  -5.465  15.282  0.00  0.00    -0.204 F 
ATOM     21  C   UNL     1     -10.527  -8.640  16.659  0.00  0.00    +0.038 A 
ATOM     23  C   UNL     1     -11.904  -8.734  16.667  0.00  0.00    +0.036 A 
ATOM     24  C   UNL     1      -9.869  -7.516  16.204  0.00  0.00    +0.016 A 
ATOM     26  C   UNL     1     -12.656  -7.657  16.200  0.00  0.00    +0.077 A 
ATOM     27  C   UNL     1     -10.622  -6.438  15.737  0.00  0.00    +0.040 A 
ATOM     28  C   UNL     1     -12.014  -6.508  15.735  0.00  0.00    +0.142 A 
ENDBRANCH  19  21
ENDBRANCH  13   9
BRANCH  12   3
ATOM      3  O   UNL     1      -5.560 -12.900  17.049  0.00  0.00    -0.379 OA
ATOM     30  H   UNL     1      -5.537 -13.393  17.886  0.00  0.00    +0.211 HD
ENDBRANCH  12   3
BRANCH  15   4
ATOM      4  O   UNL     1      -8.359 -10.743  19.884  0.00  0.00    -0.387 OA
ATOM     31  H   UNL     1      -8.528 -11.698  19.837  0.00  0.00    +0.210 HD
ENDBRANCH  15   4
BRANCH  17   5
ATOM      5  O   UNL     1      -5.769 -11.174  20.987  0.00  0.00    -0.389 OA
ATOM     32  H   UNL     1      -4.876 -11.519  21.158  0.00  0.00    +0.210 HD
ENDBRANCH  17   5
TORSDOF 9
ENDMDL
MODEL 6
REMARK VINA RESULT:      -6.8     27.597     29.984
REMARK  Name = 11866366
REMARK  9 active torsions:
REMARK  status: ('A' for Active; 'I' for Inactive)
REMARK    1  A    between atoms: O_3  and  C_12
REMARK    2  A    between atoms: O_4  and  C_15
REMARK    3  A    between atoms: O_5  and  C_17
REMARK    4  A    between atoms: N_9  and  C_13
REMARK    5  A    between atoms: N_10  and  C_20
REMARK    6  A    between atoms: C_12  and  C_18
REMARK    7  A    between atoms: C_19  and  C_21
REMARK    8  A    between atoms: C_20  and  C_22
REMARK    9  A    between atoms: C_22  and  C_25
REMARK                            x       y       z     vdW  Elec       q    Type
REMARK                         _______ _______ _______ _____ _____    ______ ____
ROOT
ATOM     12  C   UNL     1     -16.543   3.617  25.160  0.00  0.00    +0.146 C 
ATOM     13  C   UNL     1     -15.799   4.464  22.883  0.00  0.00    +0.107 C 
ATOM     14  C   UNL     1     -15.741   4.675  24.399  0.00  0.00    +0.069 C 
ATOM     15  C   UNL     1     -17.244   4.369  22.374  0.00  0.00    +0.163 C 
ATOM     16  C   UNL     1     -17.983   3.546  24.658  0.00  0.00    +0.078 C 
ATOM     17  C   UNL     1     -18.056   3.327  23.146  0.00  0.00    +0.148 C 
ENDROOT
BRANCH  12  18
ATOM      6  O   UNL     1     -17.223   4.768  27.140  0.00  0.00    -0.273 OA
ATOM     10  N   UNL     1     -15.625   3.083  27.308  0.00  0.00    -0.312 N 
ATOM     18  C   UNL     1     -16.522   3.896  26.634  0.00  0.00    +0.245 C 
ATOM     33  H   UNL     1     -15.069   2.403  26.801  0.00  0.00    +0.149 HD
BRANCH  10  20
ATOM     20  C   UNL     1     -15.399   3.167  28.732  0.00  0.00    +0.113 C 
BRANCH  20  22
ATOM     22  C   UNL     1     -15.750   1.870  29.450  0.00  0.00    +0.114 C 
BRANCH  22  25
ATOM      8  O   UNL     1     -14.657  -0.299  29.442  0.00  0.00    -0.276 OA
ATOM     11  N   UNL     1     -13.400   1.575  29.882  0.00  0.00    -0.329 N 
ATOM     25  C   UNL     1     -14.574   0.918  29.580  0.00  0.00    +0.212 C 
ATOM     34  H   UNL     1     -13.357   2.583  29.994  0.00  0.00    +0.145 HD
ATOM     35  H   UNL     1     -12.533   1.064  30.002  0.00  0.00    +0.145 HD
ENDBRANCH  22  25
ENDBRANCH  20  22
ENDBRANCH  10  20
ENDBRANCH  12  18
BRANCH  13   9
ATOM      7  O   UNL     1     -12.953   4.752  22.638  0.00  0.00    -0.270 OA
ATOM      9  N   UNL     1     -15.093   5.535  22.213  0.00  0.00    -0.306 N 
ATOM     19  C   UNL     1     -13.711   5.585  22.150  0.00  0.00    +0.244 C 
ATOM     29  H   UNL     1     -15.652   6.318  21.891  0.00  0.00    +0.149 HD
BRANCH  19  21
ATOM      1 CL   UNL     1     -14.207  10.523  20.717  0.00  0.00    -0.081 Cl
ATOM      2  F   UNL     1     -11.547  10.007  19.513  0.00  0.00    -0.204 F 
ATOM     21  C   UNL     1     -13.139   6.764  21.448  0.00  0.00    +0.038 A 
ATOM     23  C   UNL     1     -13.862   7.939  21.422  0.00  0.00    +0.036 A 
ATOM     24  C   UNL     1     -11.903   6.646  20.848  0.00  0.00    +0.016 A 
ATOM     26  C   UNL     1     -13.325   9.046  20.764  0.00  0.00    +0.077 A 
ATOM     27  C   UNL     1     -11.366   7.753  20.191  0.00  0.00    +0.040 A 
ATOM     28  C   UNL     1     -12.076   8.952  20.149  0.00  0.00    +0.142 A 
ENDBRANCH  19  21
ENDBRANCH  13   9
BRANCH  12   3
ATOM      3  O   UNL     1     -15.938   2.337  25.019  0.00  0.00    -0.379 OA
ATOM     30  H   UNL     1     -16.124   1.818  25.820  0.00  0.00    +0.211 HD
ENDBRANCH  12   3
BRANCH  15   4
ATOM      4  O   UNL     1     -17.230   3.974  20.999  0.00  0.00    -0.387 OA
ATOM     31  H   UNL     1     -16.314   4.044  20.682  0.00  0.00    +0.210 HD
ENDBRANCH  15   4
BRANCH  17   5
ATOM      5  O   UNL     1     -19.420   3.418  22.732  0.00  0.00    -0.389 OA
ATOM     32  H   UNL     1     -19.937   2.805  23.281  0.00  0.00    +0.210 HD
ENDBRANCH  17   5
TORSDOF 9
ENDMDL
MODEL 7
REMARK VINA RESULT:      -6.7     26.837     29.241
REMARK  Name = 11866366
REMARK  9 active torsions:
REMARK  status: ('A' for Active; 'I' for Inactive)
REMARK    1  A    between atoms: O_3  and  C_12
REMARK    2  A    between atoms: O_4  and  C_15
REMARK    3  A    between atoms: O_5  and  C_17
REMARK    4  A    between atoms: N_9  and  C_13
REMARK    5  A    between atoms: N_10  and  C_20
REMARK    6  A    between atoms: C_12  and  C_18
REMARK    7  A    between atoms: C_19  and  C_21
REMARK    8  A    between atoms: C_20  and  C_22
REMARK    9  A    between atoms: C_22  and  C_25
REMARK                            x       y       z     vdW  Elec       q    Type
REMARK                         _______ _______ _______ _____ _____    ______ ____
ROOT
ATOM     12  C   UNL     1      -2.730 -10.978  13.213  0.00  0.00    +0.146 C 
ATOM     13  C   UNL     1      -4.215 -11.130  15.268  0.00  0.00    +0.107 C 
ATOM     14  C   UNL     1      -4.080 -10.613  13.833  0.00  0.00    +0.069 C 
ATOM     15  C   UNL     1      -3.042 -10.681  16.150  0.00  0.00    +0.163 C 
ATOM     16  C   UNL     1      -1.571 -10.508  14.090  0.00  0.00    +0.078 C 
ATOM     17  C   UNL     1      -1.689 -11.025  15.525  0.00  0.00    +0.148 C 
ENDROOT
BRANCH  12  18
ATOM      6  O   UNL     1      -1.615  -9.758  11.488  0.00  0.00    -0.273 OA
ATOM     10  N   UNL     1      -3.721 -10.650  11.057  0.00  0.00    -0.312 N 
ATOM     18  C   UNL     1      -2.605 -10.396  11.835  0.00  0.00    +0.245 C 
ATOM     33  H   UNL     1      -4.505 -11.168  11.438  0.00  0.00    +0.149 HD
BRANCH  10  20
ATOM     20  C   UNL     1      -3.860 -10.179   9.698  0.00  0.00    +0.113 C 
BRANCH  20  22
ATOM     22  C   UNL     1      -4.340  -8.735   9.634  0.00  0.00    +0.114 C 
BRANCH  22  25
ATOM      8  O   UNL     1      -6.550  -9.244  10.505  0.00  0.00    -0.276 OA
ATOM     11  N   UNL     1      -6.348  -7.669   8.842  0.00  0.00    -0.329 N 
ATOM     25  C   UNL     1      -5.849  -8.597   9.732  0.00  0.00    +0.212 C 
ATOM     34  H   UNL     1      -5.749  -7.149   8.209  0.00  0.00    +0.145 HD
ATOM     35  H   UNL     1      -7.342  -7.476   8.793  0.00  0.00    +0.145 HD
ENDBRANCH  22  25
ENDBRANCH  20  22
ENDBRANCH  10  20
ENDBRANCH  12  18
BRANCH  13   9
ATOM      7  O   UNL     1      -5.864 -12.572  17.124  0.00  0.00    -0.270 OA
ATOM      9  N   UNL     1      -5.473 -10.688  15.831  0.00  0.00    -0.306 N 
ATOM     19  C   UNL     1      -6.198 -11.461  16.722  0.00  0.00    +0.244 C 
ATOM     29  H   UNL     1      -5.868  -9.833  15.452  0.00  0.00    +0.149 HD
BRANCH  19  21
ATOM      1 CL   UNL     1      -9.672  -7.651  16.405  0.00  0.00    -0.081 Cl
ATOM      2  F   UNL     1     -11.027  -9.277  18.481  0.00  0.00    -0.204 F 
ATOM     21  C   UNL     1      -7.482 -10.876  17.188  0.00  0.00    +0.038 A 
ATOM     23  C   UNL     1      -7.910  -9.685  16.639  0.00  0.00    +0.036 A 
ATOM     24  C   UNL     1      -8.206 -11.544  18.154  0.00  0.00    +0.016 A 
ATOM     26  C   UNL     1      -9.116  -9.136  17.075  0.00  0.00    +0.077 A 
ATOM     27  C   UNL     1      -9.412 -10.995  18.590  0.00  0.00    +0.040 A 
ATOM     28  C   UNL     1      -9.867  -9.792  18.051  0.00  0.00    +0.142 A 
ENDBRANCH  19  21
ENDBRANCH  13   9
BRANCH  12   3
ATOM      3  O   UNL     1      -2.631 -12.386  13.027  0.00  0.00    -0.379 OA
ATOM     30  H   UNL     1      -2.185 -12.554  12.181  0.00  0.00    +0.211 HD
ENDBRANCH  12   3
BRANCH  15   4
ATOM      4  O   UNL     1      -3.121 -11.354  17.410  0.00  0.00    -0.387 OA
ATOM     31  H   UNL     1      -2.794 -12.260  17.280  0.00  0.00    +0.210 HD
ENDBRANCH  15   4
BRANCH  17   5
ATOM      5  O   UNL     1      -0.660 -10.429  16.315  0.00  0.00    -0.389 OA
ATOM     32  H   UNL     1      -0.000 -11.117  16.509  0.00  0.00    +0.210 HD
ENDBRANCH  17   5
TORSDOF 9
ENDMDL
MODEL 8
REMARK VINA RESULT:      -6.6     27.593     29.779
REMARK  Name = 11866366
REMARK  9 active torsions:
REMARK  status: ('A' for Active; 'I' for Inactive)
REMARK    1  A    between atoms: O_3  and  C_12
REMARK    2  A    between atoms: O_4  and  C_15
REMARK    3  A    between atoms: O_5  and  C_17
REMARK    4  A    between atoms: N_9  and  C_13
REMARK    5  A    between atoms: N_10  and  C_20
REMARK    6  A    between atoms: C_12  and  C_18
REMARK    7  A    between atoms: C_19  and  C_21
REMARK    8  A    between atoms: C_20  and  C_22
REMARK    9  A    between atoms: C_22  and  C_25
REMARK                            x       y       z     vdW  Elec       q    Type
REMARK                         _______ _______ _______ _____ _____    ______ ____
ROOT
ATOM     12  C   UNL     1     -10.480 -10.587  19.369  0.00  0.00    +0.146 C 
ATOM     13  C   UNL     1      -8.168 -11.348  18.639  0.00  0.00    +0.107 C 
ATOM     14  C   UNL     1      -9.373 -10.455  18.322  0.00  0.00    +0.069 C 
ATOM     15  C   UNL     1      -8.583 -12.811  18.851  0.00  0.00    +0.163 C 
ATOM     16  C   UNL     1     -10.897 -12.044  19.555  0.00  0.00    +0.078 C 
ATOM     17  C   UNL     1      -9.705 -12.946  19.882  0.00  0.00    +0.148 C 
ENDROOT
BRANCH  12  18
ATOM      6  O   UNL     1     -12.587  -9.537  19.775  0.00  0.00    -0.273 OA
ATOM     10  N   UNL     1     -11.597  -9.304  17.681  0.00  0.00    -0.312 N 
ATOM     18  C   UNL     1     -11.669  -9.754  18.989  0.00  0.00    +0.245 C 
ATOM     33  H   UNL     1     -10.807  -9.554  17.096  0.00  0.00    +0.149 HD
BRANCH  10  20
ATOM     20  C   UNL     1     -12.628  -8.501  17.064  0.00  0.00    +0.113 C 
BRANCH  20  22
ATOM     22  C   UNL     1     -12.124  -7.764  15.831  0.00  0.00    +0.114 C 
BRANCH  22  25
ATOM      8  O   UNL     1      -9.733  -7.683  16.253  0.00  0.00    -0.276 OA
ATOM     11  N   UNL     1     -10.880  -5.709  15.984  0.00  0.00    -0.329 N 
ATOM     25  C   UNL     1     -10.783  -7.083  16.043  0.00  0.00    +0.212 C 
ATOM     34  H   UNL     1     -11.761  -5.235  15.812  0.00  0.00    +0.145 HD
ATOM     35  H   UNL     1     -10.062  -5.123  16.111  0.00  0.00    +0.145 HD
ENDBRANCH  22  25
ENDBRANCH  20  22
ENDBRANCH  10  20
ENDBRANCH  12  18
BRANCH  13   9
ATOM      7  O   UNL     1      -5.425 -10.547  18.910  0.00  0.00    -0.270 OA
ATOM      9  N   UNL     1      -7.190 -11.245  17.578  0.00  0.00    -0.306 N 
ATOM     19  C   UNL     1      -5.885 -10.846  17.812  0.00  0.00    +0.244 C 
ATOM     29  H   UNL     1      -7.531 -11.361  16.630  0.00  0.00    +0.149 HD
BRANCH  19  21
ATOM      1 CL   UNL     1      -1.109 -10.748  15.845  0.00  0.00    -0.081 Cl
ATOM      2  F   UNL     1      -2.611 -10.546  13.297  0.00  0.00    -0.204 F 
ATOM     21  C   UNL     1      -5.010 -10.766  16.613  0.00  0.00    +0.038 A 
ATOM     23  C   UNL     1      -3.641 -10.792  16.784  0.00  0.00    +0.036 A 
ATOM     24  C   UNL     1      -5.595 -10.669  15.368  0.00  0.00    +0.016 A 
ATOM     26  C   UNL     1      -2.820 -10.717  15.659  0.00  0.00    +0.077 A 
ATOM     27  C   UNL     1      -4.773 -10.594  14.243  0.00  0.00    +0.040 A 
ATOM     28  C   UNL     1      -3.387 -10.619  14.388  0.00  0.00    +0.142 A 
ENDBRANCH  19  21
ENDBRANCH  13   9
BRANCH  12   3
ATOM      3  O   UNL     1     -10.049 -10.062  20.620  0.00  0.00    -0.379 OA
ATOM     30  H   UNL     1      -9.797 -10.804  21.194  0.00  0.00    +0.211 HD
ENDBRANCH  12   3
BRANCH  15   4
ATOM      4  O   UNL     1      -7.457 -13.549  19.337  0.00  0.00    -0.387 OA
ATOM     31  H   UNL     1      -6.983 -13.903  18.567  0.00  0.00    +0.210 HD
ENDBRANCH  15   4
BRANCH  17   5
ATOM      5  O   UNL     1     -10.146 -14.304  19.896  0.00  0.00    -0.389 OA
ATOM     32  H   UNL     1      -9.486 -14.824  20.387  0.00  0.00    +0.210 HD
ENDBRANCH  17   5
TORSDOF 9
ENDMDL
MODEL 9
REMARK VINA RESULT:      -6.6     26.993     29.209
REMARK  Name = 11866366
REMARK  9 active torsions:
REMARK  status: ('A' for Active; 'I' for Inactive)
REMARK    1  A    between atoms: O_3  and  C_12
REMARK    2  A    between atoms: O_4  and  C_15
REMARK    3  A    between atoms: O_5  and  C_17
REMARK    4  A    between atoms: N_9  and  C_13
REMARK    5  A    between atoms: N_10  and  C_20
REMARK    6  A    between atoms: C_12  and  C_18
REMARK    7  A    between atoms: C_19  and  C_21
REMARK    8  A    between atoms: C_20  and  C_22
REMARK    9  A    between atoms: C_22  and  C_25
REMARK                            x       y       z     vdW  Elec       q    Type
REMARK                         _______ _______ _______ _____ _____    ______ ____
ROOT
ATOM     12  C   UNL     1      -8.854 -10.742  18.687  0.00  0.00    +0.146 C 
ATOM     13  C   UNL     1      -6.560 -11.367  17.790  0.00  0.00    +0.107 C 
ATOM     14  C   UNL     1      -7.788 -10.465  17.625  0.00  0.00    +0.069 C 
ATOM     15  C   UNL     1      -6.946 -12.852  17.838  0.00  0.00    +0.163 C 
ATOM     16  C   UNL     1      -9.242 -12.218  18.711  0.00  0.00    +0.078 C 
ATOM     17  C   UNL     1      -8.027 -13.131  18.885  0.00  0.00    +0.148 C 
ENDROOT
BRANCH  12  18
ATOM      6  O   UNL     1     -11.189 -10.253  18.798  0.00  0.00    -0.273 OA
ATOM     10  N   UNL     1      -9.760  -8.707  17.804  0.00  0.00    -0.312 N 
ATOM     18  C   UNL     1     -10.068  -9.891  18.453  0.00  0.00    +0.245 C 
ATOM     33  H   UNL     1      -8.803  -8.503  17.536  0.00  0.00    +0.149 HD
BRANCH  10  20
ATOM     20  C   UNL     1     -10.754  -7.723  17.442  0.00  0.00    +0.113 C 
BRANCH  20  22
ATOM     22  C   UNL     1     -10.563  -7.205  16.023  0.00  0.00    +0.114 C 
BRANCH  22  25
ATOM      8  O   UNL     1     -10.422  -9.349  14.888  0.00  0.00    -0.276 OA
ATOM     11  N   UNL     1     -11.852  -7.749  14.064  0.00  0.00    -0.329 N 
ATOM     25  C   UNL     1     -10.917  -8.227  14.957  0.00  0.00    +0.212 C 
ATOM     34  H   UNL     1     -12.245  -6.816  14.139  0.00  0.00    +0.145 HD
ATOM     35  H   UNL     1     -12.181  -8.323  13.295  0.00  0.00    +0.145 HD
ENDBRANCH  22  25
ENDBRANCH  20  22
ENDBRANCH  10  20
ENDBRANCH  12  18
BRANCH  13   9
ATOM      7  O   UNL     1      -3.697 -11.332  17.986  0.00  0.00    -0.270 OA
ATOM      9  N   UNL     1      -5.624 -11.120  16.715  0.00  0.00    -0.306 N 
ATOM     19  C   UNL     1      -4.253 -11.123  16.912  0.00  0.00    +0.244 C 
ATOM     29  H   UNL     1      -6.015 -10.822  15.827  0.00  0.00    +0.149 HD
BRANCH  19  21
ATOM      1 CL   UNL     1      -3.977 -10.583  11.782  0.00  0.00    -0.081 Cl
ATOM      2  F   UNL     1      -1.139 -10.001  12.414  0.00  0.00    -0.204 F 
ATOM     21  C   UNL     1      -3.428 -10.826  15.712  0.00  0.00    +0.038 A 
ATOM     23  C   UNL     1      -4.027 -10.846  14.469  0.00  0.00    +0.036 A 
ATOM     24  C   UNL     1      -2.090 -10.538  15.880  0.00  0.00    +0.016 A 
ATOM     26  C   UNL     1      -3.253 -10.566  13.343  0.00  0.00    +0.077 A 
ATOM     27  C   UNL     1      -1.316 -10.258  14.754  0.00  0.00    +0.040 A 
ATOM     28  C   UNL     1      -1.897 -10.271  13.486  0.00  0.00    +0.142 A 
ENDBRANCH  19  21
ENDBRANCH  13   9
BRANCH  12   3
ATOM      3  O   UNL     1      -8.383 -10.363  19.976  0.00  0.00    -0.379 OA
ATOM     30  H   UNL     1      -9.116 -10.445  20.608  0.00  0.00    +0.211 HD
ENDBRANCH  12   3
BRANCH  15   4
ATOM      4  O   UNL     1      -5.793 -13.622  18.191  0.00  0.00    -0.387 OA
ATOM     31  H   UNL     1      -5.218 -13.058  18.735  0.00  0.00    +0.210 HD
ENDBRANCH  15   4
BRANCH  17   5
ATOM      5  O   UNL     1      -8.447 -14.489  18.751  0.00  0.00    -0.389 OA
ATOM     32  H   UNL     1      -7.652 -15.034  18.628  0.00  0.00    +0.210 HD
ENDBRANCH  17   5
TORSDOF 9
ENDMDL
MODEL 10
REMARK VINA RESULT:      -6.5     27.883     29.668
REMARK  Name = 11866366
REMARK  9 active torsions:
REMARK  status: ('A' for Active; 'I' for Inactive)
REMARK    1  A    between atoms: O_3  and  C_12
REMARK    2  A    between atoms: O_4  and  C_15
REMARK    3  A    between atoms: O_5  and  C_17
REMARK    4  A    between atoms: N_9  and  C_13
REMARK    5  A    between atoms: N_10  and  C_20
REMARK    6  A    between atoms: C_12  and  C_18
REMARK    7  A    between atoms: C_19  and  C_21
REMARK    8  A    between atoms: C_20  and  C_22
REMARK    9  A    between atoms: C_22  and  C_25
REMARK                            x       y       z     vdW  Elec       q    Type
REMARK                         _______ _______ _______ _____ _____    ______ ____
ROOT
ATOM     12  C   UNL     1      -9.039 -11.008  18.994  0.00  0.00    +0.146 C 
ATOM     13  C   UNL     1      -7.111 -11.584  17.442  0.00  0.00    +0.107 C 
ATOM     14  C   UNL     1      -8.379 -10.746  17.639  0.00  0.00    +0.069 C 
ATOM     15  C   UNL     1      -7.374 -13.079  17.670  0.00  0.00    +0.163 C 
ATOM     16  C   UNL     1      -9.313 -12.496  19.199  0.00  0.00    +0.078 C 
ATOM     17  C   UNL     1      -8.053 -13.344  19.015  0.00  0.00    +0.148 C 
ENDROOT
BRANCH  12  18
ATOM      6  O   UNL     1     -10.824  -9.993  20.214  0.00  0.00    -0.273 OA
ATOM     10  N   UNL     1     -10.816  -9.839  17.891  0.00  0.00    -0.312 N 
ATOM     18  C   UNL     1     -10.313 -10.225  19.122  0.00  0.00    +0.245 C 
ATOM     33  H   UNL     1     -10.335 -10.098  17.037  0.00  0.00    +0.149 HD
BRANCH  10  20
ATOM     20  C   UNL     1     -12.045  -9.094  17.739  0.00  0.00    +0.113 C 
BRANCH  20  22
ATOM     22  C   UNL     1     -11.981  -8.106  16.582  0.00  0.00    +0.114 C 
BRANCH  22  25
ATOM      8  O   UNL     1      -9.612  -7.586  16.722  0.00  0.00    -0.276 OA
ATOM     11  N   UNL     1     -11.122  -5.857  16.600  0.00  0.00    -0.329 N 
ATOM     25  C   UNL     1     -10.771  -7.190  16.639  0.00  0.00    +0.212 C 
ATOM     34  H   UNL     1     -12.088  -5.553  16.534  0.00  0.00    +0.145 HD
ATOM     35  H   UNL     1     -10.416  -5.131  16.634  0.00  0.00    +0.145 HD
ENDBRANCH  22  25
ENDBRANCH  20  22
ENDBRANCH  10  20
ENDBRANCH  12  18
BRANCH  13   9
ATOM      7  O   UNL     1      -4.906  -9.880  16.753  0.00  0.00    -0.270 OA
ATOM      9  N   UNL     1      -6.576 -11.357  16.117  0.00  0.00    -0.306 N 
ATOM     19  C   UNL     1      -5.504 -10.511  15.886  0.00  0.00    +0.244 C 
ATOM     29  H   UNL     1      -7.096 -11.752  15.341  0.00  0.00    +0.149 HD
BRANCH  19  21
ATOM      1 CL   UNL     1      -1.828 -11.038  12.295  0.00  0.00    -0.081 Cl
ATOM      2  F   UNL     1      -3.966  -9.961  10.546  0.00  0.00    -0.204 F 
ATOM     21  C   UNL     1      -5.091 -10.366  14.467  0.00  0.00    +0.038 A 
ATOM     23  C   UNL     1      -3.809 -10.728  14.105  0.00  0.00    +0.036 A 
ATOM     24  C   UNL     1      -6.002  -9.874  13.555  0.00  0.00    +0.016 A 
ATOM     26  C   UNL     1      -3.421 -10.593  12.772  0.00  0.00    +0.077 A 
ATOM     27  C   UNL     1      -5.613  -9.739  12.222  0.00  0.00    +0.040 A 
ATOM     28  C   UNL     1      -4.324 -10.098  11.830  0.00  0.00    +0.142 A 
ENDBRANCH  19  21
ENDBRANCH  13   9
BRANCH  12   3
ATOM      3  O   UNL     1      -8.210 -10.537  20.051  0.00  0.00    -0.379 OA
ATOM     30  H   UNL     1      -7.313 -10.885  19.917  0.00  0.00    +0.211 HD
ENDBRANCH  12   3
BRANCH  15   4
ATOM      4  O   UNL     1      -6.125 -13.777  17.671  0.00  0.00    -0.387 OA
ATOM     31  H   UNL     1      -5.641 -13.515  16.870  0.00  0.00    +0.210 HD
ENDBRANCH  15   4
BRANCH  17   5
ATOM      5  O   UNL     1      -8.413 -14.724  19.076  0.00  0.00    -0.389 OA
ATOM     32  H   UNL     1      -9.271 -14.786  19.530  0.00  0.00    +0.210 HD
ENDBRANCH  17   5
TORSDOF 9
ENDMDL
