MODEL 1
REMARK VINA RESULT:      -7.5      0.000      0.000
REMARK  Name = 45784269
REMARK  4 active torsions:
REMARK  status: ('A' for Active; 'I' for Inactive)
REMARK    1  A    between atoms: N_4  and  C_13
REMARK    2  A    between atoms: C_8  and  C_12
REMARK    3  A    between atoms: C_13  and  C_15
REMARK    4  A    between atoms: C_20  and  C_24
REMARK                            x       y       z     vdW  Elec       q    Type
REMARK                         _______ _______ _______ _____ _____    ______ ____
ROOT
ATOM      5  N   UNL     1      15.467   8.482  20.644  0.00  0.00    -0.342 N 
ATOM      6  N   UNL     1      14.635   7.322  18.940  0.00  0.00    -0.232 NA
ATOM     12  C   UNL     1      14.409   8.290  19.801  0.00  0.00    +0.113 A 
ATOM     14  C   UNL     1      16.441   7.578  20.306  0.00  0.00    +0.067 A 
ATOM     16  C   UNL     1      15.898   6.866  19.240  0.00  0.00    +0.089 A 
ATOM     17  C   UNL     1      17.712   7.330  20.825  0.00  0.00    +0.040 A 
ATOM     18  C   UNL     1      16.653   5.843  18.644  0.00  0.00    +0.030 A 
ATOM     20  C   UNL     1      18.450   6.308  20.220  0.00  0.00    +0.057 A 
ATOM     22  C   UNL     1      17.932   5.576  19.149  0.00  0.00    +0.014 A 
ATOM     26  H   UNL     1      15.524   9.167  21.387  0.00  0.00    +0.167 HD
ENDROOT
BRANCH  12   8
ATOM      4  N   UNL     1      11.366   9.641  21.331  0.00  0.00    -0.297 NA
ATOM      8  C   UNL     1      13.157   9.131  19.906  0.00  0.00    +0.070 C 
ATOM      9  C   UNL     1      11.876   8.452  19.387  0.00  0.00    +0.028 C 
ATOM     10  C   UNL     1      12.826   9.533  21.350  0.00  0.00    +0.096 C 
ATOM     11  C   UNL     1      10.911   8.482  20.564  0.00  0.00    +0.085 C 
BRANCH   4  13
ATOM     13  C   UNL     1      10.794   9.681  22.669  0.00  0.00    +0.121 C 
BRANCH  13  15
ATOM      7  N   UNL     1      11.227  12.357  25.310  0.00  0.00    -0.263 NA
ATOM     15  C   UNL     1      10.947  11.036  23.305  0.00  0.00    -0.015 A 
ATOM     19  C   UNL     1      10.953  12.193  22.533  0.00  0.00    +0.008 A 
ATOM     21  C   UNL     1      11.086  11.171  24.677  0.00  0.00    +0.115 A 
ATOM     23  C   UNL     1      11.096  13.431  23.149  0.00  0.00    +0.020 A 
ATOM     25  C   UNL     1      11.227  13.460  24.528  0.00  0.00    +0.111 A 
ENDBRANCH  13  15
ENDBRANCH   4  13
ENDBRANCH  12   8
BRANCH  20  24
ATOM      1  F   UNL     1      20.230   4.740  20.385  0.00  0.00    -0.166 F 
ATOM      2  F   UNL     1      20.782   6.839  20.264  0.00  0.00    -0.166 F 
ATOM      3  F   UNL     1      19.919   6.052  22.091  0.00  0.00    -0.166 F 
ATOM     24  C   UNL     1      19.819   5.993  20.731  0.00  0.00    +0.417 C 
ENDBRANCH  20  24
TORSDOF 4
ENDMDL
MODEL 2
REMARK VINA RESULT:      -7.3     16.265     19.561
REMARK  Name = 45784269
REMARK  4 active torsions:
REMARK  status: ('A' for Active; 'I' for Inactive)
REMARK    1  A    between atoms: N_4  and  C_13
REMARK    2  A    between atoms: C_8  and  C_12
REMARK    3  A    between atoms: C_13  and  C_15
REMARK    4  A    between atoms: C_20  and  C_24
REMARK                            x       y       z     vdW  Elec       q    Type
REMARK                         _______ _______ _______ _____ _____    ______ ____
ROOT
ATOM      5  N   UNL     1      10.443   4.636   5.069  0.00  0.00    -0.342 N 
ATOM      6  N   UNL     1       9.558   6.631   4.647  0.00  0.00    -0.232 NA
ATOM     12  C   UNL     1      10.168   5.589   4.128  0.00  0.00    +0.113 A 
ATOM     14  C   UNL     1       9.980   5.095   6.276  0.00  0.00    +0.067 A 
ATOM     16  C   UNL     1       9.432   6.341   5.986  0.00  0.00    +0.089 A 
ATOM     17  C   UNL     1       9.993   4.543   7.557  0.00  0.00    +0.040 A 
ATOM     18  C   UNL     1       8.858   7.096   7.022  0.00  0.00    +0.030 A 
ATOM     20  C   UNL     1       9.418   5.308   8.578  0.00  0.00    +0.057 A 
ATOM     22  C   UNL     1       8.860   6.562   8.317  0.00  0.00    +0.014 A 
ATOM     26  H   UNL     1      10.905   3.751   4.909  0.00  0.00    +0.167 HD
ENDROOT
BRANCH  12   8
ATOM      4  N   UNL     1      12.130   4.357   1.289  0.00  0.00    -0.297 NA
ATOM      8  C   UNL     1      10.553   5.395   2.679  0.00  0.00    +0.070 C 
ATOM      9  C   UNL     1      11.521   6.453   2.119  0.00  0.00    +0.028 C 
ATOM     10  C   UNL     1      11.250   4.053   2.419  0.00  0.00    +0.096 C 
ATOM     11  C   UNL     1      12.715   5.660   1.605  0.00  0.00    +0.085 C 
BRANCH   4  13
ATOM     13  C   UNL     1      13.141   3.331   1.080  0.00  0.00    +0.121 C 
BRANCH  13  15
ATOM      7  N   UNL     1      14.690   4.331  -2.226  0.00  0.00    -0.263 NA
ATOM     15  C   UNL     1      14.167   3.753   0.062  0.00  0.00    -0.015 A 
ATOM     19  C   UNL     1      15.495   3.952   0.424  0.00  0.00    +0.008 A 
ATOM     21  C   UNL     1      13.819   3.953  -1.263  0.00  0.00    +0.115 A 
ATOM     23  C   UNL     1      16.421   4.341  -0.538  0.00  0.00    +0.020 A 
ATOM     25  C   UNL     1      15.972   4.514  -1.837  0.00  0.00    +0.111 A 
ENDBRANCH  13  15
ENDBRANCH   4  13
ENDBRANCH  12   8
BRANCH  20  24
ATOM      1  F   UNL     1       9.500   3.412  10.011  0.00  0.00    -0.166 F 
ATOM      2  F   UNL     1      10.423   5.238  10.746  0.00  0.00    -0.166 F 
ATOM      3  F   UNL     1       8.262   5.079  10.660  0.00  0.00    -0.166 F 
ATOM     24  C   UNL     1       9.401   4.772   9.972  0.00  0.00    +0.417 C 
ENDBRANCH  20  24
TORSDOF 4
ENDMDL
MODEL 3
REMARK VINA RESULT:      -7.1      3.601      5.757
REMARK  Name = 45784269
REMARK  4 active torsions:
REMARK  status: ('A' for Active; 'I' for Inactive)
REMARK    1  A    between atoms: N_4  and  C_13
REMARK    2  A    between atoms: C_8  and  C_12
REMARK    3  A    between atoms: C_13  and  C_15
REMARK    4  A    between atoms: C_20  and  C_24
REMARK                            x       y       z     vdW  Elec       q    Type
REMARK                         _______ _______ _______ _____ _____    ______ ____
ROOT
ATOM      5  N   UNL     1      19.939   5.074  20.230  0.00  0.00    -0.342 N 
ATOM      6  N   UNL     1      20.067   6.453  21.968  0.00  0.00    -0.232 NA
ATOM     12  C   UNL     1      19.424   6.175  20.856  0.00  0.00    +0.113 A 
ATOM     14  C   UNL     1      20.984   4.612  20.988  0.00  0.00    +0.067 A 
ATOM     16  C   UNL     1      21.043   5.490  22.067  0.00  0.00    +0.089 A 
ATOM     17  C   UNL     1      21.856   3.535  20.828  0.00  0.00    +0.040 A 
ATOM     18  C   UNL     1      22.023   5.296  23.055  0.00  0.00    +0.030 A 
ATOM     20  C   UNL     1      22.826   3.357  21.820  0.00  0.00    +0.057 A 
ATOM     22  C   UNL     1      22.910   4.221  22.915  0.00  0.00    +0.014 A 
ATOM     26  H   UNL     1      19.612   4.670  19.362  0.00  0.00    +0.167 HD
ENDROOT
BRANCH  12   8
ATOM      4  N   UNL     1      16.017   7.513  20.686  0.00  0.00    -0.297 NA
ATOM      8  C   UNL     1      18.251   6.931  20.275  0.00  0.00    +0.070 C 
ATOM      9  C   UNL     1      17.327   6.096  19.370  0.00  0.00    +0.028 C 
ATOM     10  C   UNL     1      17.322   7.511  21.350  0.00  0.00    +0.096 C 
ATOM     11  C   UNL     1      15.944   6.226  19.994  0.00  0.00    +0.085 C 
BRANCH   4  13
ATOM     13  C   UNL     1      14.918   7.703  21.621  0.00  0.00    +0.121 C 
BRANCH  13  15
ATOM      7  N   UNL     1      11.317   7.408  20.491  0.00  0.00    -0.263 NA
ATOM     15  C   UNL     1      13.623   7.999  20.913  0.00  0.00    -0.015 A 
ATOM     19  C   UNL     1      13.510   9.085  20.052  0.00  0.00    +0.008 A 
ATOM     21  C   UNL     1      12.508   7.198  21.096  0.00  0.00    +0.115 A 
ATOM     23  C   UNL     1      12.302   9.333  19.411  0.00  0.00    +0.020 A 
ATOM     25  C   UNL     1      11.245   8.472  19.661  0.00  0.00    +0.111 A 
ENDBRANCH  13  15
ENDBRANCH   4  13
ENDBRANCH  12   8
BRANCH  20  24
ATOM      1  F   UNL     1      23.668   1.326  22.728  0.00  0.00    -0.166 F 
ATOM      2  F   UNL     1      23.640   1.495  20.560  0.00  0.00    -0.166 F 
ATOM      3  F   UNL     1      25.097   2.614  21.713  0.00  0.00    -0.166 F 
ATOM     24  C   UNL     1      23.790   2.221  21.706  0.00  0.00    +0.417 C 
ENDBRANCH  20  24
TORSDOF 4
ENDMDL
MODEL 4
REMARK VINA RESULT:      -7.1     17.168     20.213
REMARK  Name = 45784269
REMARK  4 active torsions:
REMARK  status: ('A' for Active; 'I' for Inactive)
REMARK    1  A    between atoms: N_4  and  C_13
REMARK    2  A    between atoms: C_8  and  C_12
REMARK    3  A    between atoms: C_13  and  C_15
REMARK    4  A    between atoms: C_20  and  C_24
REMARK                            x       y       z     vdW  Elec       q    Type
REMARK                         _______ _______ _______ _____ _____    ______ ____
ROOT
ATOM      5  N   UNL     1       9.974   5.606   4.413  0.00  0.00    -0.342 N 
ATOM      6  N   UNL     1       9.139   7.666   4.383  0.00  0.00    -0.232 NA
ATOM     12  C   UNL     1       9.652   6.698   3.657  0.00  0.00    +0.113 A 
ATOM     14  C   UNL     1       9.648   5.888   5.715  0.00  0.00    +0.067 A 
ATOM     16  C   UNL     1       9.129   7.179   5.670  0.00  0.00    +0.089 A 
ATOM     17  C   UNL     1       9.759   5.148   6.892  0.00  0.00    +0.040 A 
ATOM     18  C   UNL     1       8.690   7.784   6.860  0.00  0.00    +0.030 A 
ATOM     20  C   UNL     1       9.318   5.764   8.068  0.00  0.00    +0.057 A 
ATOM     22  C   UNL     1       8.793   7.059   8.054  0.00  0.00    +0.014 A 
ATOM     26  H   UNL     1      10.380   4.743   4.077  0.00  0.00    +0.167 HD
ENDROOT
BRANCH  12   8
ATOM      4  N   UNL     1      11.307   5.896   0.487  0.00  0.00    -0.297 NA
ATOM      8  C   UNL     1       9.887   6.716   2.163  0.00  0.00    +0.070 C 
ATOM      9  C   UNL     1      10.805   7.847   1.667  0.00  0.00    +0.028 C 
ATOM     10  C   UNL     1      10.541   5.428   1.645  0.00  0.00    +0.096 C 
ATOM     11  C   UNL     1      11.934   7.142   0.927  0.00  0.00    +0.085 C 
BRANCH   4  13
ATOM     13  C   UNL     1      12.281   4.914   0.033  0.00  0.00    +0.121 C 
BRANCH  13  15
ATOM      7  N   UNL     1      10.032   3.673  -2.746  0.00  0.00    -0.263 NA
ATOM     15  C   UNL     1      11.737   4.054  -1.076  0.00  0.00    -0.015 A 
ATOM     19  C   UNL     1      12.386   2.886  -1.460  0.00  0.00    +0.008 A 
ATOM     21  C   UNL     1      10.574   4.400  -1.744  0.00  0.00    +0.115 A 
ATOM     23  C   UNL     1      11.859   2.111  -2.487  0.00  0.00    +0.020 A 
ATOM     25  C   UNL     1      10.690   2.543  -3.092  0.00  0.00    +0.111 A 
ENDBRANCH  13  15
ENDBRANCH   4  13
ENDBRANCH  12   8
BRANCH  20  24
ATOM      1  F   UNL     1       9.440   3.670   9.188  0.00  0.00    -0.166 F 
ATOM      2  F   UNL     1      10.529   5.326  10.083  0.00  0.00    -0.166 F 
ATOM      3  F   UNL     1       8.364   5.265  10.204  0.00  0.00    -0.166 F 
ATOM     24  C   UNL     1       9.411   5.023   9.361  0.00  0.00    +0.417 C 
ENDBRANCH  20  24
TORSDOF 4
ENDMDL
MODEL 5
REMARK VINA RESULT:      -7.0     16.155     19.419
REMARK  Name = 45784269
REMARK  4 active torsions:
REMARK  status: ('A' for Active; 'I' for Inactive)
REMARK    1  A    between atoms: N_4  and  C_13
REMARK    2  A    between atoms: C_8  and  C_12
REMARK    3  A    between atoms: C_13  and  C_15
REMARK    4  A    between atoms: C_20  and  C_24
REMARK                            x       y       z     vdW  Elec       q    Type
REMARK                         _______ _______ _______ _____ _____    ______ ____
ROOT
ATOM      5  N   UNL     1      11.484   5.798   5.298  0.00  0.00    -0.342 N 
ATOM      6  N   UNL     1      10.449   7.739   4.976  0.00  0.00    -0.232 NA
ATOM     12  C   UNL     1      11.317   6.883   4.484  0.00  0.00    +0.113 A 
ATOM     14  C   UNL     1      10.670   5.964   6.389  0.00  0.00    +0.067 A 
ATOM     16  C   UNL     1      10.035   7.183   6.165  0.00  0.00    +0.089 A 
ATOM     17  C   UNL     1      10.442   5.178   7.518  0.00  0.00    +0.040 A 
ATOM     18  C   UNL     1       9.114   7.661   7.112  0.00  0.00    +0.030 A 
ATOM     20  C   UNL     1       9.522   5.669   8.451  0.00  0.00    +0.057 A 
ATOM     22  C   UNL     1       8.870   6.888   8.254  0.00  0.00    +0.014 A 
ATOM     26  H   UNL     1      12.097   5.011   5.130  0.00  0.00    +0.167 HD
ENDROOT
BRANCH  12   8
ATOM      4  N   UNL     1      13.608   5.905   1.796  0.00  0.00    -0.297 NA
ATOM      8  C   UNL     1      12.077   7.014   3.184  0.00  0.00    +0.070 C 
ATOM      9  C   UNL     1      13.460   7.679   3.307  0.00  0.00    +0.028 C 
ATOM     10  C   UNL     1      12.355   5.662   2.514  0.00  0.00    +0.096 C 
ATOM     11  C   UNL     1      14.438   6.663   2.732  0.00  0.00    +0.085 C 
BRANCH   4  13
ATOM     13  C   UNL     1      14.248   4.672   1.362  0.00  0.00    +0.121 C 
BRANCH  13  15
ATOM      7  N   UNL     1      13.987   4.591  -2.413  0.00  0.00    -0.263 NA
ATOM     15  C   UNL     1      13.815   4.273  -0.023  0.00  0.00    -0.015 A 
ATOM     19  C   UNL     1      12.879   3.263  -0.218  0.00  0.00    +0.008 A 
ATOM     21  C   UNL     1      14.334   4.901  -1.144  0.00  0.00    +0.115 A 
ATOM     23  C   UNL     1      12.497   2.916  -1.509  0.00  0.00    +0.020 A 
ATOM     25  C   UNL     1      13.075   3.605  -2.564  0.00  0.00    +0.111 A 
ENDBRANCH  13  15
ENDBRANCH   4  13
ENDBRANCH  12   8
BRANCH  20  24
ATOM      1  F   UNL     1      10.276   4.878  10.564  0.00  0.00    -0.166 F 
ATOM      2  F   UNL     1       8.156   5.327  10.384  0.00  0.00    -0.166 F 
ATOM      3  F   UNL     1       8.971   3.557   9.431  0.00  0.00    -0.166 F 
ATOM     24  C   UNL     1       9.235   4.873   9.683  0.00  0.00    +0.417 C 
ENDBRANCH  20  24
TORSDOF 4
ENDMDL
MODEL 6
REMARK VINA RESULT:      -7.0      4.669     10.106
REMARK  Name = 45784269
REMARK  4 active torsions:
REMARK  status: ('A' for Active; 'I' for Inactive)
REMARK    1  A    between atoms: N_4  and  C_13
REMARK    2  A    between atoms: C_8  and  C_12
REMARK    3  A    between atoms: C_13  and  C_15
REMARK    4  A    between atoms: C_20  and  C_24
REMARK                            x       y       z     vdW  Elec       q    Type
REMARK                         _______ _______ _______ _____ _____    ______ ____
ROOT
ATOM      5  N   UNL     1      17.183   7.440  21.687  0.00  0.00    -0.342 N 
ATOM      6  N   UNL     1      17.315   6.578  19.643  0.00  0.00    -0.232 NA
ATOM     12  C   UNL     1      17.995   6.941  20.707  0.00  0.00    +0.113 A 
ATOM     14  C   UNL     1      15.893   7.397  21.224  0.00  0.00    +0.067 A 
ATOM     16  C   UNL     1      16.002   6.855  19.946  0.00  0.00    +0.089 A 
ATOM     17  C   UNL     1      14.677   7.773  21.795  0.00  0.00    +0.040 A 
ATOM     18  C   UNL     1      14.840   6.669  19.178  0.00  0.00    +0.030 A 
ATOM     20  C   UNL     1      13.530   7.583  21.016  0.00  0.00    +0.057 A 
ATOM     22  C   UNL     1      13.608   7.041  19.731  0.00  0.00    +0.014 A 
ATOM     26  H   UNL     1      17.476   7.782  22.593  0.00  0.00    +0.167 HD
ENDROOT
BRANCH  12   8
ATOM      4  N   UNL     1      21.196   5.412  21.625  0.00  0.00    -0.297 NA
ATOM      8  C   UNL     1      19.492   6.849  20.899  0.00  0.00    +0.070 C 
ATOM      9  C   UNL     1      19.995   7.304  22.281  0.00  0.00    +0.028 C 
ATOM     10  C   UNL     1      20.029   5.421  20.740  0.00  0.00    +0.096 C 
ATOM     11  C   UNL     1      20.759   6.108  22.834  0.00  0.00    +0.085 C 
BRANCH   4  13
ATOM     13  C   UNL     1      21.673   4.065  21.902  0.00  0.00    +0.121 C 
BRANCH  13  15
ATOM      7  N   UNL     1      24.764   4.519  19.765  0.00  0.00    -0.263 NA
ATOM     15  C   UNL     1      22.932   3.748  21.140  0.00  0.00    -0.015 A 
ATOM     19  C   UNL     1      23.430   2.450  21.089  0.00  0.00    +0.008 A 
ATOM     21  C   UNL     1      23.629   4.737  20.467  0.00  0.00    +0.115 A 
ATOM     23  C   UNL     1      24.595   2.187  20.377  0.00  0.00    +0.020 A 
ATOM     25  C   UNL     1      25.218   3.246  19.737  0.00  0.00    +0.111 A 
ENDBRANCH  13  15
ENDBRANCH   4  13
ENDBRANCH  12   8
BRANCH  20  24
ATOM      1  F   UNL     1      12.292   8.910  22.552  0.00  0.00    -0.166 F 
ATOM      2  F   UNL     1      11.350   8.489  20.639  0.00  0.00    -0.166 F 
ATOM      3  F   UNL     1      11.518   6.922  22.128  0.00  0.00    -0.166 F 
ATOM     24  C   UNL     1      12.198   7.967  21.572  0.00  0.00    +0.417 C 
ENDBRANCH  20  24
TORSDOF 4
ENDMDL
MODEL 7
REMARK VINA RESULT:      -6.9     27.408     29.550
REMARK  Name = 45784269
REMARK  4 active torsions:
REMARK  status: ('A' for Active; 'I' for Inactive)
REMARK    1  A    between atoms: N_4  and  C_13
REMARK    2  A    between atoms: C_8  and  C_12
REMARK    3  A    between atoms: C_13  and  C_15
REMARK    4  A    between atoms: C_20  and  C_24
REMARK                            x       y       z     vdW  Elec       q    Type
REMARK                         _______ _______ _______ _____ _____    ______ ____
ROOT
ATOM      5  N   UNL     1      -5.561  -9.990  16.315  0.00  0.00    -0.342 N 
ATOM      6  N   UNL     1      -4.257 -11.177  17.668  0.00  0.00    -0.232 NA
ATOM     12  C   UNL     1      -4.308 -10.479  16.555  0.00  0.00    +0.113 A 
ATOM     14  C   UNL     1      -6.374 -10.399  17.341  0.00  0.00    +0.067 A 
ATOM     16  C   UNL     1      -5.537 -11.139  18.172  0.00  0.00    +0.089 A 
ATOM     17  C   UNL     1      -7.728 -10.193  17.605  0.00  0.00    +0.040 A 
ATOM     18  C   UNL     1      -6.064 -11.713  19.341  0.00  0.00    +0.030 A 
ATOM     20  C   UNL     1      -8.237 -10.773  18.773  0.00  0.00    +0.057 A 
ATOM     22  C   UNL     1      -7.421 -11.520  19.626  0.00  0.00    +0.014 A 
ATOM     26  H   UNL     1      -5.844  -9.427  15.523  0.00  0.00    +0.167 HD
ENDROOT
BRANCH  12   8
ATOM      4  N   UNL     1      -2.091 -11.032  13.690  0.00  0.00    -0.297 NA
ATOM      8  C   UNL     1      -3.164 -10.207  15.605  0.00  0.00    +0.070 C 
ATOM      9  C   UNL     1      -1.825 -10.855  16.004  0.00  0.00    +0.028 C 
ATOM     10  C   UNL     1      -3.433 -10.715  14.183  0.00  0.00    +0.096 C 
ATOM     11  C   UNL     1      -1.430 -11.709  14.806  0.00  0.00    +0.085 C 
BRANCH   4  13
ATOM     13  C   UNL     1      -2.120 -11.849  12.485  0.00  0.00    +0.121 C 
BRANCH  13  15
ATOM      7  N   UNL     1      -4.448 -11.251   9.561  0.00  0.00    -0.263 NA
ATOM     15  C   UNL     1      -2.829 -11.154  11.354  0.00  0.00    -0.015 A 
ATOM     19  C   UNL     1      -2.553  -9.827  11.043  0.00  0.00    +0.008 A 
ATOM     21  C   UNL     1      -3.776 -11.816  10.590  0.00  0.00    +0.115 A 
ATOM     23  C   UNL     1      -3.223  -9.212   9.991  0.00  0.00    +0.020 A 
ATOM     25  C   UNL     1      -4.152  -9.960   9.287  0.00  0.00    +0.111 A 
ENDBRANCH  13  15
ENDBRANCH   4  13
ENDBRANCH  12   8
BRANCH  20  24
ATOM      1  F   UNL     1     -10.463 -11.595  18.626  0.00  0.00    -0.166 F 
ATOM      2  F   UNL     1      -9.923 -10.547  20.453  0.00  0.00    -0.166 F 
ATOM      3  F   UNL     1     -10.213  -9.434  18.615  0.00  0.00    -0.166 F 
ATOM     24  C   UNL     1      -9.680 -10.589  19.111  0.00  0.00    +0.417 C 
ENDBRANCH  20  24
TORSDOF 4
ENDMDL
MODEL 8
REMARK VINA RESULT:      -6.8     28.229     31.075
REMARK  Name = 45784269
REMARK  4 active torsions:
REMARK  status: ('A' for Active; 'I' for Inactive)
REMARK    1  A    between atoms: N_4  and  C_13
REMARK    2  A    between atoms: C_8  and  C_12
REMARK    3  A    between atoms: C_13  and  C_15
REMARK    4  A    between atoms: C_20  and  C_24
REMARK                            x       y       z     vdW  Elec       q    Type
REMARK                         _______ _______ _______ _____ _____    ______ ____
ROOT
ATOM      5  N   UNL     1     -15.798   4.156  25.368  0.00  0.00    -0.342 N 
ATOM      6  N   UNL     1     -16.507   2.315  24.343  0.00  0.00    -0.232 NA
ATOM     12  C   UNL     1     -16.111   3.558  24.180  0.00  0.00    +0.113 A 
ATOM     14  C   UNL     1     -16.007   3.238  26.366  0.00  0.00    +0.067 A 
ATOM     16  C   UNL     1     -16.449   2.098  25.701  0.00  0.00    +0.089 A 
ATOM     17  C   UNL     1     -15.851   3.305  27.750  0.00  0.00    +0.040 A 
ATOM     18  C   UNL     1     -16.758   0.947  26.444  0.00  0.00    +0.030 A 
ATOM     20  C   UNL     1     -16.164   2.150  28.476  0.00  0.00    +0.057 A 
ATOM     22  C   UNL     1     -16.610   0.991  27.836  0.00  0.00    +0.014 A 
ATOM     26  H   UNL     1     -15.472   5.105  25.494  0.00  0.00    +0.167 HD
ENDROOT
BRANCH  12   8
ATOM      4  N   UNL     1     -15.162   6.278  21.915  0.00  0.00    -0.297 NA
ATOM      8  C   UNL     1     -15.992   4.304  22.870  0.00  0.00    +0.070 C 
ATOM      9  C   UNL     1     -17.160   5.256  22.559  0.00  0.00    +0.028 C 
ATOM     10  C   UNL     1     -14.740   5.187  22.797  0.00  0.00    +0.096 C 
ATOM     11  C   UNL     1     -16.513   6.620  22.358  0.00  0.00    +0.085 C 
BRANCH   4  13
ATOM     13  C   UNL     1     -14.256   7.416  21.967  0.00  0.00    +0.121 C 
BRANCH  13  15
ATOM      7  N   UNL     1     -13.249   7.961  18.359  0.00  0.00    -0.263 NA
ATOM     15  C   UNL     1     -13.405   7.513  20.729  0.00  0.00    -0.015 A 
ATOM     19  C   UNL     1     -12.039   7.257  20.778  0.00  0.00    +0.008 A 
ATOM     21  C   UNL     1     -13.957   7.857  19.506  0.00  0.00    +0.115 A 
ATOM     23  C   UNL     1     -11.278   7.353  19.619  0.00  0.00    +0.020 A 
ATOM     25  C   UNL     1     -11.924   7.704  18.445  0.00  0.00    +0.111 A 
ENDBRANCH  13  15
ENDBRANCH   4  13
ENDBRANCH  12   8
BRANCH  20  24
ATOM      1  F   UNL     1     -16.030   0.904  30.496  0.00  0.00    -0.166 F 
ATOM      2  F   UNL     1     -14.856   2.731  30.392  0.00  0.00    -0.166 F 
ATOM      3  F   UNL     1     -17.012   2.842  30.603  0.00  0.00    -0.166 F 
ATOM     24  C   UNL     1     -16.018   2.159  29.963  0.00  0.00    +0.417 C 
ENDBRANCH  20  24
TORSDOF 4
ENDMDL
MODEL 9
REMARK VINA RESULT:      -6.8     14.233     16.898
REMARK  Name = 45784269
REMARK  4 active torsions:
REMARK  status: ('A' for Active; 'I' for Inactive)
REMARK    1  A    between atoms: N_4  and  C_13
REMARK    2  A    between atoms: C_8  and  C_12
REMARK    3  A    between atoms: C_13  and  C_15
REMARK    4  A    between atoms: C_20  and  C_24
REMARK                            x       y       z     vdW  Elec       q    Type
REMARK                         _______ _______ _______ _____ _____    ______ ____
ROOT
ATOM      5  N   UNL     1      13.193   7.096   6.630  0.00  0.00    -0.342 N 
ATOM      6  N   UNL     1      12.127   6.934   4.686  0.00  0.00    -0.232 NA
ATOM     12  C   UNL     1      13.228   7.334   5.284  0.00  0.00    +0.113 A 
ATOM     14  C   UNL     1      11.990   6.505   6.920  0.00  0.00    +0.067 A 
ATOM     16  C   UNL     1      11.344   6.415   5.691  0.00  0.00    +0.089 A 
ATOM     17  C   UNL     1      11.430   6.055   8.116  0.00  0.00    +0.040 A 
ATOM     18  C   UNL     1      10.061   5.844   5.631  0.00  0.00    +0.030 A 
ATOM     20  C   UNL     1      10.152   5.490   8.038  0.00  0.00    +0.057 A 
ATOM     22  C   UNL     1       9.478   5.386   6.819  0.00  0.00    +0.014 A 
ATOM     26  H   UNL     1      13.922   7.317   7.297  0.00  0.00    +0.167 HD
ENDROOT
BRANCH  12   8
ATOM      4  N   UNL     1      16.419   9.126   5.105  0.00  0.00    -0.297 NA
ATOM      8  C   UNL     1      14.426   7.984   4.632  0.00  0.00    +0.070 C 
ATOM      9  C   UNL     1      14.253   9.478   4.305  0.00  0.00    +0.028 C 
ATOM     10  C   UNL     1      15.689   7.919   5.501  0.00  0.00    +0.096 C 
ATOM     11  C   UNL     1      15.401  10.173   5.025  0.00  0.00    +0.085 C 
BRANCH   4  13
ATOM     13  C   UNL     1      17.486   9.460   6.036  0.00  0.00    +0.121 C 
BRANCH  13  15
ATOM      7  N   UNL     1      20.065   7.386   4.200  0.00  0.00    -0.263 NA
ATOM     15  C   UNL     1      18.741   8.677   5.756  0.00  0.00    -0.015 A 
ATOM     19  C   UNL     1      19.713   8.508   6.736  0.00  0.00    +0.008 A 
ATOM     21  C   UNL     1      18.962   8.101   4.516  0.00  0.00    +0.115 A 
ATOM     23  C   UNL     1      20.861   7.778   6.449  0.00  0.00    +0.020 A 
ATOM     25  C   UNL     1      20.988   7.241   5.177  0.00  0.00    +0.111 A 
ENDBRANCH  13  15
ENDBRANCH   4  13
ENDBRANCH  12   8
BRANCH  20  24
ATOM      1  F   UNL     1       9.054   3.706   9.163  0.00  0.00    -0.166 F 
ATOM      2  F   UNL     1      10.322   4.994  10.372  0.00  0.00    -0.166 F 
ATOM      3  F   UNL     1       8.408   5.722   9.659  0.00  0.00    -0.166 F 
ATOM     24  C   UNL     1       9.497   4.990   9.285  0.00  0.00    +0.417 C 
ENDBRANCH  20  24
TORSDOF 4
ENDMDL
MODEL 10
REMARK VINA RESULT:      -6.6     27.117     29.262
REMARK  Name = 45784269
REMARK  4 active torsions:
REMARK  status: ('A' for Active; 'I' for Inactive)
REMARK    1  A    between atoms: N_4  and  C_13
REMARK    2  A    between atoms: C_8  and  C_12
REMARK    3  A    between atoms: C_13  and  C_15
REMARK    4  A    between atoms: C_20  and  C_24
REMARK                            x       y       z     vdW  Elec       q    Type
REMARK                         _______ _______ _______ _____ _____    ______ ____
ROOT
ATOM      5  N   UNL     1      -7.037  -9.713  15.441  0.00  0.00    -0.342 N 
ATOM      6  N   UNL     1      -7.335 -10.204  17.588  0.00  0.00    -0.232 NA
ATOM     12  C   UNL     1      -7.909  -9.761  16.492  0.00  0.00    +0.113 A 
ATOM     14  C   UNL     1      -5.818 -10.155  15.888  0.00  0.00    +0.067 A 
ATOM     16  C   UNL     1      -6.030 -10.454  17.231  0.00  0.00    +0.089 A 
ATOM     17  C   UNL     1      -4.586 -10.313  15.253  0.00  0.00    +0.040 A 
ATOM     18  C   UNL     1      -4.961 -10.942  18.002  0.00  0.00    +0.030 A 
ATOM     20  C   UNL     1      -3.533 -10.799  16.035  0.00  0.00    +0.057 A 
ATOM     22  C   UNL     1      -3.715 -11.108  17.385  0.00  0.00    +0.014 A 
ATOM     26  H   UNL     1      -7.248  -9.407  14.500  0.00  0.00    +0.167 HD
ENDROOT
BRANCH  12   8
ATOM      4  N   UNL     1     -10.719  -7.465  15.978  0.00  0.00    -0.297 NA
ATOM      8  C   UNL     1      -9.351  -9.336  16.336  0.00  0.00    +0.070 C 
ATOM      9  C   UNL     1     -10.060  -8.957  17.649  0.00  0.00    +0.028 C 
ATOM     10  C   UNL     1      -9.519  -8.106  15.434  0.00  0.00    +0.096 C 
ATOM     11  C   UNL     1     -10.559  -7.535  17.430  0.00  0.00    +0.085 C 
BRANCH   4  13
ATOM     13  C   UNL     1     -10.882  -6.099  15.503  0.00  0.00    +0.121 C 
BRANCH  13  15
ATOM      7  N   UNL     1     -13.513  -4.839  13.091  0.00  0.00    -0.263 NA
ATOM     15  C   UNL     1     -12.217  -5.891  14.839  0.00  0.00    -0.015 A 
ATOM     19  C   UNL     1     -13.361  -6.520  15.319  0.00  0.00    +0.008 A 
ATOM     21  C   UNL     1     -12.345  -5.068  13.733  0.00  0.00    +0.115 A 
ATOM     23  C   UNL     1     -14.580  -6.309  14.686  0.00  0.00    +0.020 A 
ATOM     25  C   UNL     1     -14.603  -5.466  13.586  0.00  0.00    +0.111 A 
ENDBRANCH  13  15
ENDBRANCH   4  13
ENDBRANCH  12   8
BRANCH  20  24
ATOM      1  F   UNL     1      -1.953 -10.110  14.396  0.00  0.00    -0.166 F 
ATOM      2  F   UNL     1      -1.154 -10.824  16.289  0.00  0.00    -0.166 F 
ATOM      3  F   UNL     1      -2.007 -12.231  14.876  0.00  0.00    -0.166 F 
ATOM     24  C   UNL     1      -2.188 -10.989  15.413  0.00  0.00    +0.417 C 
ENDBRANCH  20  24
TORSDOF 4
ENDMDL
