MODEL 1
REMARK VINA RESULT:      -6.2      0.000      0.000
REMARK  Name = 75536738
REMARK  10 active torsions:
REMARK  status: ('A' for Active; 'I' for Inactive)
REMARK    1  A    between atoms: O_2  and  C_10
REMARK    2  A    between atoms: N_4  and  C_9
REMARK    3  A    between atoms: N_4  and  C_14
REMARK    4  A    between atoms: N_5  and  C_13
REMARK    5  A    between atoms: N_6  and  C_19
REMARK    6  A    between atoms: N_7  and  C_17
REMARK    7  A    between atoms: C_11  and  C_13
REMARK    8  A    between atoms: C_14  and  C_15
REMARK    9  A    between atoms: C_17  and  C_21
REMARK   10  A    between atoms: C_17  and  C_22
REMARK                            x       y       z     vdW  Elec       q    Type
REMARK                         _______ _______ _______ _____ _____    ______ ____
ROOT
ATOM      1  O   UNL     1      18.117   6.100  19.352  0.00  0.00    -0.371 OA
ATOM      9  C   UNL     1      15.892   6.762  19.855  0.00  0.00    +0.111 C 
ATOM     10  C   UNL     1      16.721   6.810  21.125  0.00  0.00    +0.164 C 
ATOM     11  C   UNL     1      18.129   6.892  20.552  0.00  0.00    +0.165 C 
ATOM     12  C   UNL     1      16.749   5.872  18.970  0.00  0.00    +0.181 C 
ENDROOT
BRANCH  10   2
ATOM      2  O   UNL     1      16.415   7.930  21.933  0.00  0.00    -0.388 OA
ATOM     24  H   UNL     1      15.748   7.662  22.588  0.00  0.00    +0.210 HD
ENDBRANCH  10   2
BRANCH   9   4
ATOM      4  N   UNL     1      14.550   6.237  20.054  0.00  0.00    -0.302 NA
ATOM     23  H   UNL     1      14.409   6.048  21.048  0.00  0.00    +0.123 HD
BRANCH   4  14
ATOM     14  C   UNL     1      13.541   7.188  19.606  0.00  0.00    +0.156 C 
BRANCH  14  15
ATOM      6  N   UNL     1      12.371   8.381  21.487  0.00  0.00    -0.336 N 
ATOM      8  N   UNL     1      11.408   6.518  20.755  0.00  0.00    -0.239 NA
ATOM     15  C   UNL     1      12.426   7.336  20.606  0.00  0.00    +0.123 A 
ATOM     18  C   UNL     1      11.246   8.219  22.245  0.00  0.00    +0.106 A 
ATOM     19  C   UNL     1      13.317   9.464  21.607  0.00  0.00    +0.150 C 
ATOM     20  C   UNL     1      10.668   7.062  21.775  0.00  0.00    +0.130 A 
ENDBRANCH  14  15
ENDBRANCH   4  14
ENDBRANCH   9   4
BRANCH  11  13
ATOM     13  C   UNL     1      19.195   6.371  21.500  0.00  0.00    +0.140 C 
BRANCH  13   5
ATOM      3  O   UNL     1      21.445   4.960  22.626  0.00  0.00    -0.253 OA
ATOM      5  N   UNL     1      20.271   5.750  20.784  0.00  0.00    -0.297 N 
ATOM      7  N   UNL     1      22.234   4.573  20.479  0.00  0.00    -0.297 N 
ATOM     16  C   UNL     1      21.330   5.082  21.408  0.00  0.00    +0.300 C 
ATOM     25  H   UNL     1      20.272   5.809  19.770  0.00  0.00    +0.150 HD
ATOM     26  H   UNL     1      22.011   4.660  19.492  0.00  0.00    +0.150 HD
BRANCH   7  17
ATOM     17  C   UNL     1      23.418   3.839  20.861  0.00  0.00    +0.068 C 
ATOM     21  C   UNL     1      24.572   4.175  19.925  0.00  0.00    +0.027 C 
ATOM     22  C   UNL     1      23.137   2.343  20.878  0.00  0.00    +0.027 C 
ENDBRANCH   7  17
ENDBRANCH  13   5
ENDBRANCH  11  13
TORSDOF 7
ENDMDL
MODEL 2
REMARK VINA RESULT:      -6.2      2.028      2.551
REMARK  Name = 75536738
REMARK  10 active torsions:
REMARK  status: ('A' for Active; 'I' for Inactive)
REMARK    1  A    between atoms: O_2  and  C_10
REMARK    2  A    between atoms: N_4  and  C_9
REMARK    3  A    between atoms: N_4  and  C_14
REMARK    4  A    between atoms: N_5  and  C_13
REMARK    5  A    between atoms: N_6  and  C_19
REMARK    6  A    between atoms: N_7  and  C_17
REMARK    7  A    between atoms: C_11  and  C_13
REMARK    8  A    between atoms: C_14  and  C_15
REMARK    9  A    between atoms: C_17  and  C_21
REMARK   10  A    between atoms: C_17  and  C_22
REMARK                            x       y       z     vdW  Elec       q    Type
REMARK                         _______ _______ _______ _____ _____    ______ ____
ROOT
ATOM      1  O   UNL     1      17.826   6.939  21.642  0.00  0.00    -0.371 OA
ATOM      9  C   UNL     1      16.400   6.233  19.878  0.00  0.00    +0.111 C 
ATOM     10  C   UNL     1      17.840   6.181  19.401  0.00  0.00    +0.164 C 
ATOM     11  C   UNL     1      18.585   6.131  20.728  0.00  0.00    +0.165 C 
ATOM     12  C   UNL     1      16.516   7.149  21.085  0.00  0.00    +0.181 C 
ENDROOT
BRANCH  10   2
ATOM      2  O   UNL     1      18.108   5.045  18.602  0.00  0.00    -0.388 OA
ATOM     24  H   UNL     1      19.020   5.113  18.270  0.00  0.00    +0.210 HD
ENDBRANCH  10   2
BRANCH   9   4
ATOM      4  N   UNL     1      15.471   6.733  18.876  0.00  0.00    -0.302 NA
ATOM     23  H   UNL     1      15.234   5.976  18.234  0.00  0.00    +0.123 HD
BRANCH   4  14
ATOM     14  C   UNL     1      14.249   7.231  19.495  0.00  0.00    +0.156 C 
BRANCH  14  15
ATOM      6  N   UNL     1      13.483   9.225  18.166  0.00  0.00    -0.336 N 
ATOM      8  N   UNL     1      12.361   7.336  17.837  0.00  0.00    -0.239 NA
ATOM     15  C   UNL     1      13.348   7.904  18.494  0.00  0.00    +0.123 A 
ATOM     18  C   UNL     1      12.521   9.517  17.241  0.00  0.00    +0.106 A 
ATOM     19  C   UNL     1      14.456  10.153  18.689  0.00  0.00    +0.150 C 
ATOM     20  C   UNL     1      11.842   8.336  17.054  0.00  0.00    +0.130 A 
ENDBRANCH  14  15
ENDBRANCH   4  14
ENDBRANCH   9   4
BRANCH  11  13
ATOM     13  C   UNL     1      20.007   6.656  20.638  0.00  0.00    +0.140 C 
BRANCH  13   5
ATOM      3  O   UNL     1      22.415   5.667  21.884  0.00  0.00    -0.253 OA
ATOM      5  N   UNL     1      20.900   5.658  20.123  0.00  0.00    -0.297 N 
ATOM      7  N   UNL     1      22.734   4.257  20.069  0.00  0.00    -0.297 N 
ATOM     16  C   UNL     1      22.051   5.233  20.792  0.00  0.00    +0.300 C 
ATOM     25  H   UNL     1      20.692   5.248  19.217  0.00  0.00    +0.150 HD
ATOM     26  H   UNL     1      22.313   3.909  19.213  0.00  0.00    +0.150 HD
BRANCH   7  17
ATOM     17  C   UNL     1      23.957   3.649  20.538  0.00  0.00    +0.068 C 
ATOM     21  C   UNL     1      25.086   3.901  19.547  0.00  0.00    +0.027 C 
ATOM     22  C   UNL     1      23.755   2.159  20.779  0.00  0.00    +0.027 C 
ENDBRANCH   7  17
ENDBRANCH  13   5
ENDBRANCH  11  13
TORSDOF 7
ENDMDL
MODEL 3
REMARK VINA RESULT:      -6.2      4.190      9.031
REMARK  Name = 75536738
REMARK  10 active torsions:
REMARK  status: ('A' for Active; 'I' for Inactive)
REMARK    1  A    between atoms: O_2  and  C_10
REMARK    2  A    between atoms: N_4  and  C_9
REMARK    3  A    between atoms: N_4  and  C_14
REMARK    4  A    between atoms: N_5  and  C_13
REMARK    5  A    between atoms: N_6  and  C_19
REMARK    6  A    between atoms: N_7  and  C_17
REMARK    7  A    between atoms: C_11  and  C_13
REMARK    8  A    between atoms: C_14  and  C_15
REMARK    9  A    between atoms: C_17  and  C_21
REMARK   10  A    between atoms: C_17  and  C_22
REMARK                            x       y       z     vdW  Elec       q    Type
REMARK                         _______ _______ _______ _____ _____    ______ ____
ROOT
ATOM      1  O   UNL     1      11.097   8.792  20.251  0.00  0.00    -0.371 OA
ATOM      9  C   UNL     1      12.324   6.846  19.661  0.00  0.00    +0.111 C 
ATOM     10  C   UNL     1      12.063   6.833  21.156  0.00  0.00    +0.164 C 
ATOM     11  C   UNL     1      10.882   7.788  21.256  0.00  0.00    +0.165 C 
ATOM     12  C   UNL     1      12.090   8.310  19.329  0.00  0.00    +0.181 C 
ENDROOT
BRANCH  10   2
ATOM      2  O   UNL     1      11.742   5.544  21.642  0.00  0.00    -0.388 OA
ATOM     24  H   UNL     1      11.118   5.642  22.382  0.00  0.00    +0.210 HD
ENDBRANCH  10   2
BRANCH   9   4
ATOM      4  N   UNL     1      13.656   6.389  19.297  0.00  0.00    -0.302 NA
ATOM     23  H   UNL     1      13.684   6.211  18.292  0.00  0.00    +0.123 HD
BRANCH   4  14
ATOM     14  C   UNL     1      14.663   7.388  19.629  0.00  0.00    +0.156 C 
BRANCH  14  15
ATOM      6  N   UNL     1      17.044   7.261  20.431  0.00  0.00    -0.336 N 
ATOM      8  N   UNL     1      16.477   5.851  18.812  0.00  0.00    -0.239 NA
ATOM     15  C   UNL     1      16.054   6.813  19.601  0.00  0.00    +0.123 A 
ATOM     18  C   UNL     1      18.170   6.538  20.154  0.00  0.00    +0.106 A 
ATOM     19  C   UNL     1      16.938   8.304  21.424  0.00  0.00    +0.150 C 
ATOM     20  C   UNL     1      17.795   5.674  19.152  0.00  0.00    +0.130 A 
ENDBRANCH  14  15
ENDBRANCH   4  14
ENDBRANCH   9   4
BRANCH  11  13
ATOM     13  C   UNL     1      10.753   8.444  22.619  0.00  0.00    +0.140 C 
BRANCH  13   5
ATOM      3  O   UNL     1      12.390  10.763  23.139  0.00  0.00    -0.253 OA
ATOM      5  N   UNL     1      10.365   9.820  22.501  0.00  0.00    -0.297 N 
ATOM      7  N   UNL     1      10.590  12.116  22.579  0.00  0.00    -0.297 N 
ATOM     16  C   UNL     1      11.222  10.890  22.773  0.00  0.00    +0.300 C 
ATOM     25  H   UNL     1       9.412  10.027  22.218  0.00  0.00    +0.150 HD
ATOM     26  H   UNL     1       9.647  12.117  22.202  0.00  0.00    +0.150 HD
BRANCH   7  17
ATOM     17  C   UNL     1      11.254  13.381  22.790  0.00  0.00    +0.068 C 
ATOM     21  C   UNL     1      12.415  13.536  21.816  0.00  0.00    +0.027 C 
ATOM     22  C   UNL     1      11.723  13.505  24.233  0.00  0.00    +0.027 C 
ENDBRANCH   7  17
ENDBRANCH  13   5
ENDBRANCH  11  13
TORSDOF 7
ENDMDL
MODEL 4
REMARK VINA RESULT:      -6.2      2.436      3.390
REMARK  Name = 75536738
REMARK  10 active torsions:
REMARK  status: ('A' for Active; 'I' for Inactive)
REMARK    1  A    between atoms: O_2  and  C_10
REMARK    2  A    between atoms: N_4  and  C_9
REMARK    3  A    between atoms: N_4  and  C_14
REMARK    4  A    between atoms: N_5  and  C_13
REMARK    5  A    between atoms: N_6  and  C_19
REMARK    6  A    between atoms: N_7  and  C_17
REMARK    7  A    between atoms: C_11  and  C_13
REMARK    8  A    between atoms: C_14  and  C_15
REMARK    9  A    between atoms: C_17  and  C_21
REMARK   10  A    between atoms: C_17  and  C_22
REMARK                            x       y       z     vdW  Elec       q    Type
REMARK                         _______ _______ _______ _____ _____    ______ ____
ROOT
ATOM      1  O   UNL     1      17.937   6.214  19.361  0.00  0.00    -0.371 OA
ATOM      9  C   UNL     1      15.772   6.841  20.108  0.00  0.00    +0.111 C 
ATOM     10  C   UNL     1      16.744   6.942  21.269  0.00  0.00    +0.164 C 
ATOM     11  C   UNL     1      18.072   7.038  20.531  0.00  0.00    +0.165 C 
ATOM     12  C   UNL     1      16.540   5.946  19.150  0.00  0.00    +0.181 C 
ENDROOT
BRANCH  10   2
ATOM      2  O   UNL     1      16.508   8.076  22.080  0.00  0.00    -0.388 OA
ATOM     24  H   UNL     1      15.570   8.320  22.001  0.00  0.00    +0.210 HD
ENDBRANCH  10   2
BRANCH   9   4
ATOM      4  N   UNL     1      14.476   6.293  20.478  0.00  0.00    -0.302 NA
ATOM     23  H   UNL     1      14.371   6.341  21.492  0.00  0.00    +0.123 HD
BRANCH   4  14
ATOM     14  C   UNL     1      13.392   7.040  19.853  0.00  0.00    +0.156 C 
BRANCH  14  15
ATOM      6  N   UNL     1      12.238   8.393  21.633  0.00  0.00    -0.336 N 
ATOM      8  N   UNL     1      11.202   6.538  20.983  0.00  0.00    -0.239 NA
ATOM     15  C   UNL     1      12.262   7.298  20.814  0.00  0.00    +0.123 A 
ATOM     18  C   UNL     1      11.090   8.328  22.370  0.00  0.00    +0.106 A 
ATOM     19  C   UNL     1      13.233   9.436  21.716  0.00  0.00    +0.150 C 
ATOM     20  C   UNL     1      10.467   7.175  21.951  0.00  0.00    +0.130 A 
ENDBRANCH  14  15
ENDBRANCH   4  14
ENDBRANCH   9   4
BRANCH  11  13
ATOM     13  C   UNL     1      19.254   6.567  21.358  0.00  0.00    +0.140 C 
BRANCH  13   5
ATOM      3  O   UNL     1      21.084   6.067  23.533  0.00  0.00    -0.253 OA
ATOM      5  N   UNL     1      19.356   7.299  22.587  0.00  0.00    -0.297 N 
ATOM      7  N   UNL     1      20.159   7.860  24.678  0.00  0.00    -0.297 N 
ATOM     16  C   UNL     1      20.275   6.992  23.596  0.00  0.00    +0.300 C 
ATOM     25  H   UNL     1      18.718   8.074  22.739  0.00  0.00    +0.150 HD
ATOM     26  H   UNL     1      19.512   8.640  24.603  0.00  0.00    +0.150 HD
BRANCH   7  17
ATOM     17  C   UNL     1      20.992   7.762  25.853  0.00  0.00    +0.068 C 
ATOM     21  C   UNL     1      20.294   6.937  26.927  0.00  0.00    +0.027 C 
ATOM     22  C   UNL     1      21.356   9.147  26.370  0.00  0.00    +0.027 C 
ENDBRANCH   7  17
ENDBRANCH  13   5
ENDBRANCH  11  13
TORSDOF 7
ENDMDL
MODEL 5
REMARK VINA RESULT:      -6.0      3.466      8.399
REMARK  Name = 75536738
REMARK  10 active torsions:
REMARK  status: ('A' for Active; 'I' for Inactive)
REMARK    1  A    between atoms: O_2  and  C_10
REMARK    2  A    between atoms: N_4  and  C_9
REMARK    3  A    between atoms: N_4  and  C_14
REMARK    4  A    between atoms: N_5  and  C_13
REMARK    5  A    between atoms: N_6  and  C_19
REMARK    6  A    between atoms: N_7  and  C_17
REMARK    7  A    between atoms: C_11  and  C_13
REMARK    8  A    between atoms: C_14  and  C_15
REMARK    9  A    between atoms: C_17  and  C_21
REMARK   10  A    between atoms: C_17  and  C_22
REMARK                            x       y       z     vdW  Elec       q    Type
REMARK                         _______ _______ _______ _____ _____    ______ ____
ROOT
ATOM      1  O   UNL     1      13.136   6.575  20.821  0.00  0.00    -0.371 OA
ATOM      9  C   UNL     1      14.640   7.994  21.989  0.00  0.00    +0.111 C 
ATOM     10  C   UNL     1      13.365   8.761  21.694  0.00  0.00    +0.164 C 
ATOM     11  C   UNL     1      12.385   7.620  21.460  0.00  0.00    +0.165 C 
ATOM     12  C   UNL     1      14.538   6.847  20.998  0.00  0.00    +0.181 C 
ENDROOT
BRANCH  10   2
ATOM      2  O   UNL     1      12.964   9.588  22.769  0.00  0.00    -0.388 OA
ATOM     24  H   UNL     1      12.037   9.844  22.630  0.00  0.00    +0.210 HD
ENDBRANCH  10   2
BRANCH   9   4
ATOM      4  N   UNL     1      15.849   8.784  21.816  0.00  0.00    -0.302 NA
ATOM     23  H   UNL     1      16.446   8.665  22.636  0.00  0.00    +0.123 HD
BRANCH   4  14
ATOM     14  C   UNL     1      16.585   8.366  20.630  0.00  0.00    +0.156 C 
BRANCH  14  15
ATOM      6  N   UNL     1      18.364   6.610  20.341  0.00  0.00    -0.336 N 
ATOM      8  N   UNL     1      18.736   8.136  21.912  0.00  0.00    -0.239 NA
ATOM     15  C   UNL     1      17.901   7.725  20.983  0.00  0.00    +0.123 A 
ATOM     18  C   UNL     1      19.571   6.290  20.894  0.00  0.00    +0.106 A 
ATOM     19  C   UNL     1      17.711   5.891  19.272  0.00  0.00    +0.150 C 
ATOM     20  C   UNL     1      19.780   7.245  21.861  0.00  0.00    +0.130 A 
ENDBRANCH  14  15
ENDBRANCH   4  14
ENDBRANCH   9   4
BRANCH  11  13
ATOM     13  C   UNL     1      11.205   8.011  20.588  0.00  0.00    +0.140 C 
BRANCH  13   5
ATOM      3  O   UNL     1      11.782   7.321  17.846  0.00  0.00    -0.253 OA
ATOM      5  N   UNL     1      11.604   8.903  19.538  0.00  0.00    -0.297 N 
ATOM      7  N   UNL     1      12.235   9.555  17.415  0.00  0.00    -0.297 N 
ATOM     16  C   UNL     1      11.867   8.487  18.229  0.00  0.00    +0.300 C 
ATOM     25  H   UNL     1      11.716   9.887  19.761  0.00  0.00    +0.150 HD
ATOM     26  H   UNL     1      12.201  10.492  17.806  0.00  0.00    +0.150 HD
BRANCH   7  17
ATOM     17  C   UNL     1      12.558   9.398  16.017  0.00  0.00    +0.068 C 
ATOM     21  C   UNL     1      13.620  10.409  15.605  0.00  0.00    +0.027 C 
ATOM     22  C   UNL     1      11.307   9.530  15.160  0.00  0.00    +0.027 C 
ENDBRANCH   7  17
ENDBRANCH  13   5
ENDBRANCH  11  13
TORSDOF 7
ENDMDL
MODEL 6
REMARK VINA RESULT:      -5.9      3.608      6.259
REMARK  Name = 75536738
REMARK  10 active torsions:
REMARK  status: ('A' for Active; 'I' for Inactive)
REMARK    1  A    between atoms: O_2  and  C_10
REMARK    2  A    between atoms: N_4  and  C_9
REMARK    3  A    between atoms: N_4  and  C_14
REMARK    4  A    between atoms: N_5  and  C_13
REMARK    5  A    between atoms: N_6  and  C_19
REMARK    6  A    between atoms: N_7  and  C_17
REMARK    7  A    between atoms: C_11  and  C_13
REMARK    8  A    between atoms: C_14  and  C_15
REMARK    9  A    between atoms: C_17  and  C_21
REMARK   10  A    between atoms: C_17  and  C_22
REMARK                            x       y       z     vdW  Elec       q    Type
REMARK                         _______ _______ _______ _____ _____    ______ ____
ROOT
ATOM      1  O   UNL     1      10.730   7.006  21.108  0.00  0.00    -0.371 OA
ATOM      9  C   UNL     1      11.206   9.080  22.163  0.00  0.00    +0.111 C 
ATOM     10  C   UNL     1      12.430   8.626  21.389  0.00  0.00    +0.164 C 
ATOM     11  C   UNL     1      11.806   7.646  20.404  0.00  0.00    +0.165 C 
ATOM     12  C   UNL     1      10.426   7.781  22.282  0.00  0.00    +0.181 C 
ENDROOT
BRANCH  10   2
ATOM      2  O   UNL     1      13.084   9.692  20.729  0.00  0.00    -0.388 OA
ATOM     24  H   UNL     1      13.722  10.089  21.347  0.00  0.00    +0.210 HD
ENDBRANCH  10   2
BRANCH   9   4
ATOM      4  N   UNL     1      11.519   9.671  23.454  0.00  0.00    -0.302 NA
ATOM     23  H   UNL     1      12.532   9.690  23.576  0.00  0.00    +0.123 HD
BRANCH   4  14
ATOM     14  C   UNL     1      11.004  11.031  23.548  0.00  0.00    +0.156 C 
BRANCH  14  15
ATOM      6  N   UNL     1      12.698  12.785  24.166  0.00  0.00    -0.336 N 
ATOM      8  N   UNL     1      12.472  12.360  21.998  0.00  0.00    -0.239 NA
ATOM     15  C   UNL     1      12.056  12.053  23.207  0.00  0.00    +0.123 A 
ATOM     18  C   UNL     1      13.581  13.611  23.529  0.00  0.00    +0.106 A 
ATOM     19  C   UNL     1      12.495  12.712  25.594  0.00  0.00    +0.150 C 
ATOM     20  C   UNL     1      13.424  13.330  22.192  0.00  0.00    +0.130 A 
ENDBRANCH  14  15
ENDBRANCH   4  14
ENDBRANCH   9   4
BRANCH  11  13
ATOM     13  C   UNL     1      12.783   6.600  19.897  0.00  0.00    +0.140 C 
BRANCH  13   5
ATOM      3  O   UNL     1      15.562   7.138  19.339  0.00  0.00    -0.253 OA
ATOM      5  N   UNL     1      13.891   6.443  20.795  0.00  0.00    -0.297 N 
ATOM      7  N   UNL     1      16.088   6.487  21.503  0.00  0.00    -0.297 N 
ATOM     16  C   UNL     1      15.214   6.727  20.445  0.00  0.00    +0.300 C 
ATOM     25  H   UNL     1      13.705   6.093  21.730  0.00  0.00    +0.150 HD
ATOM     26  H   UNL     1      15.695   6.221  22.401  0.00  0.00    +0.150 HD
BRANCH   7  17
ATOM     17  C   UNL     1      17.512   6.701  21.405  0.00  0.00    +0.068 C 
ATOM     21  C   UNL     1      17.825   8.192  21.428  0.00  0.00    +0.027 C 
ATOM     22  C   UNL     1      18.069   6.039  20.152  0.00  0.00    +0.027 C 
ENDBRANCH   7  17
ENDBRANCH  13   5
ENDBRANCH  11  13
TORSDOF 7
ENDMDL
MODEL 7
REMARK VINA RESULT:      -5.8      6.544      9.231
REMARK  Name = 75536738
REMARK  10 active torsions:
REMARK  status: ('A' for Active; 'I' for Inactive)
REMARK    1  A    between atoms: O_2  and  C_10
REMARK    2  A    between atoms: N_4  and  C_9
REMARK    3  A    between atoms: N_4  and  C_14
REMARK    4  A    between atoms: N_5  and  C_13
REMARK    5  A    between atoms: N_6  and  C_19
REMARK    6  A    between atoms: N_7  and  C_17
REMARK    7  A    between atoms: C_11  and  C_13
REMARK    8  A    between atoms: C_14  and  C_15
REMARK    9  A    between atoms: C_17  and  C_21
REMARK   10  A    between atoms: C_17  and  C_22
REMARK                            x       y       z     vdW  Elec       q    Type
REMARK                         _______ _______ _______ _____ _____    ______ ____
ROOT
ATOM      1  O   UNL     1      10.831  12.707  22.817  0.00  0.00    -0.371 OA
ATOM      9  C   UNL     1      11.204  10.369  23.016  0.00  0.00    +0.111 C 
ATOM     10  C   UNL     1      11.574  11.043  24.324  0.00  0.00    +0.164 C 
ATOM     11  C   UNL     1      10.803  12.351  24.208  0.00  0.00    +0.165 C 
ATOM     12  C   UNL     1      11.219  11.548  22.056  0.00  0.00    +0.181 C 
ENDROOT
BRANCH  10   2
ATOM      2  O   UNL     1      11.174  10.293  25.455  0.00  0.00    -0.388 OA
ATOM     24  H   UNL     1      11.810  10.457  26.172  0.00  0.00    +0.210 HD
ENDBRANCH  10   2
BRANCH   9   4
ATOM      4  N   UNL     1      12.122   9.311  22.624  0.00  0.00    -0.302 NA
ATOM     23  H   UNL     1      12.631   8.989  23.449  0.00  0.00    +0.123 HD
BRANCH   4  14
ATOM     14  C   UNL     1      11.406   8.185  22.039  0.00  0.00    +0.156 C 
BRANCH  14  15
ATOM      6  N   UNL     1      12.679   7.546  19.965  0.00  0.00    -0.336 N 
ATOM      8  N   UNL     1      10.746   8.594  19.647  0.00  0.00    -0.239 NA
ATOM     15  C   UNL     1      11.583   8.123  20.545  0.00  0.00    +0.123 A 
ATOM     18  C   UNL     1      12.531   7.656  18.611  0.00  0.00    +0.106 A 
ATOM     19  C   UNL     1      13.795   6.929  20.642  0.00  0.00    +0.150 C 
ATOM     20  C   UNL     1      11.331   8.305  18.440  0.00  0.00    +0.130 A 
ENDBRANCH  14  15
ENDBRANCH   4  14
ENDBRANCH   9   4
BRANCH  11  13
ATOM     13  C   UNL     1      11.398  13.474  25.038  0.00  0.00    +0.140 C 
BRANCH  13   5
ATOM      3  O   UNL     1      14.212  13.852  25.551  0.00  0.00    -0.253 OA
ATOM      5  N   UNL     1      12.151  12.962  26.147  0.00  0.00    -0.297 N 
ATOM      7  N   UNL     1      13.997  12.580  27.480  0.00  0.00    -0.297 N 
ATOM     16  C   UNL     1      13.519  13.191  26.323  0.00  0.00    +0.300 C 
ATOM     25  H   UNL     1      11.667  12.390  26.833  0.00  0.00    +0.150 HD
ATOM     26  H   UNL     1      13.329  12.121  28.093  0.00  0.00    +0.150 HD
BRANCH   7  17
ATOM     17  C   UNL     1      15.377  12.663  27.895  0.00  0.00    +0.068 C 
ATOM     21  C   UNL     1      16.001  11.274  27.932  0.00  0.00    +0.027 C 
ATOM     22  C   UNL     1      15.489  13.355  29.247  0.00  0.00    +0.027 C 
ENDBRANCH   7  17
ENDBRANCH  13   5
ENDBRANCH  11  13
TORSDOF 7
ENDMDL
MODEL 8
REMARK VINA RESULT:      -5.7     26.342     29.813
REMARK  Name = 75536738
REMARK  10 active torsions:
REMARK  status: ('A' for Active; 'I' for Inactive)
REMARK    1  A    between atoms: O_2  and  C_10
REMARK    2  A    between atoms: N_4  and  C_9
REMARK    3  A    between atoms: N_4  and  C_14
REMARK    4  A    between atoms: N_5  and  C_13
REMARK    5  A    between atoms: N_6  and  C_19
REMARK    6  A    between atoms: N_7  and  C_17
REMARK    7  A    between atoms: C_11  and  C_13
REMARK    8  A    between atoms: C_14  and  C_15
REMARK    9  A    between atoms: C_17  and  C_21
REMARK   10  A    between atoms: C_17  and  C_22
REMARK                            x       y       z     vdW  Elec       q    Type
REMARK                         _______ _______ _______ _____ _____    ______ ____
ROOT
ATOM      1  O   UNL     1      -7.219 -12.778  19.448  0.00  0.00    -0.371 OA
ATOM      9  C   UNL     1      -8.711 -11.038  18.825  0.00  0.00    +0.111 C 
ATOM     10  C   UNL     1      -7.287 -10.519  18.754  0.00  0.00    +0.164 C 
ATOM     11  C   UNL     1      -6.505 -11.821  18.650  0.00  0.00    +0.165 C 
ATOM     12  C   UNL     1      -8.539 -12.266  19.704  0.00  0.00    +0.181 C 
ENDROOT
BRANCH  10   2
ATOM      2  O   UNL     1      -7.068  -9.680  17.636  0.00  0.00    -0.388 OA
ATOM     24  H   UNL     1      -7.930  -9.371  17.312  0.00  0.00    +0.210 HD
ENDBRANCH  10   2
BRANCH   9   4
ATOM      4  N   UNL     1      -9.656 -10.078  19.374  0.00  0.00    -0.302 NA
ATOM     23  H   UNL     1      -9.221  -9.155  19.393  0.00  0.00    +0.123 HD
BRANCH   4  14
ATOM     14  C   UNL     1     -10.868 -10.014  18.567  0.00  0.00    +0.156 C 
BRANCH  14  15
ATOM      6  N   UNL     1     -11.965  -8.428  16.951  0.00  0.00    -0.336 N 
ATOM      8  N   UNL     1      -9.794  -8.121  17.307  0.00  0.00    -0.239 NA
ATOM     15  C   UNL     1     -10.845  -8.849  17.613  0.00  0.00    +0.123 A 
ATOM     18  C   UNL     1     -11.606  -7.363  16.175  0.00  0.00    +0.106 A 
ATOM     19  C   UNL     1     -13.291  -8.992  17.045  0.00  0.00    +0.150 C 
ATOM     20  C   UNL     1     -10.262  -7.192  16.411  0.00  0.00    +0.130 A 
ENDBRANCH  14  15
ENDBRANCH   4  14
ENDBRANCH   9   4
BRANCH  11  13
ATOM     13  C   UNL     1      -5.075 -11.704  19.145  0.00  0.00    +0.140 C 
BRANCH  13   5
ATOM      3  O   UNL     1      -4.223 -10.010  16.970  0.00  0.00    -0.253 OA
ATOM      5  N   UNL     1      -4.136 -12.031  18.111  0.00  0.00    -0.297 N 
ATOM      7  N   UNL     1      -2.848 -11.721  16.221  0.00  0.00    -0.297 N 
ATOM     16  C   UNL     1      -3.775 -11.149  17.088  0.00  0.00    +0.300 C 
ATOM     25  H   UNL     1      -3.721 -12.958  18.116  0.00  0.00    +0.150 HD
ATOM     26  H   UNL     1      -2.481 -12.641  16.447  0.00  0.00    +0.150 HD
BRANCH   7  17
ATOM     17  C   UNL     1      -2.310 -11.022  15.078  0.00  0.00    +0.068 C 
ATOM     21  C   UNL     1      -1.934 -12.011  13.983  0.00  0.00    +0.027 C 
ATOM     22  C   UNL     1      -1.116 -10.169  15.486  0.00  0.00    +0.027 C 
ENDBRANCH   7  17
ENDBRANCH  13   5
ENDBRANCH  11  13
TORSDOF 7
ENDMDL
MODEL 9
REMARK VINA RESULT:      -5.7      2.482      9.171
REMARK  Name = 75536738
REMARK  10 active torsions:
REMARK  status: ('A' for Active; 'I' for Inactive)
REMARK    1  A    between atoms: O_2  and  C_10
REMARK    2  A    between atoms: N_4  and  C_9
REMARK    3  A    between atoms: N_4  and  C_14
REMARK    4  A    between atoms: N_5  and  C_13
REMARK    5  A    between atoms: N_6  and  C_19
REMARK    6  A    between atoms: N_7  and  C_17
REMARK    7  A    between atoms: C_11  and  C_13
REMARK    8  A    between atoms: C_14  and  C_15
REMARK    9  A    between atoms: C_17  and  C_21
REMARK   10  A    between atoms: C_17  and  C_22
REMARK                            x       y       z     vdW  Elec       q    Type
REMARK                         _______ _______ _______ _____ _____    ______ ____
ROOT
ATOM      1  O   UNL     1      18.668   7.086  21.718  0.00  0.00    -0.371 OA
ATOM      9  C   UNL     1      19.924   5.719  20.236  0.00  0.00    +0.111 C 
ATOM     10  C   UNL     1      18.446   5.543  19.939  0.00  0.00    +0.164 C 
ATOM     11  C   UNL     1      17.871   6.811  20.554  0.00  0.00    +0.165 C 
ATOM     12  C   UNL     1      19.881   6.316  21.633  0.00  0.00    +0.181 C 
ENDROOT
BRANCH  10   2
ATOM      2  O   UNL     1      18.174   5.458  18.554  0.00  0.00    -0.388 OA
ATOM     24  H   UNL     1      18.797   6.038  18.084  0.00  0.00    +0.210 HD
ENDBRANCH  10   2
BRANCH   9   4
ATOM      4  N   UNL     1      20.683   4.479  20.175  0.00  0.00    -0.302 NA
ATOM     23  H   UNL     1      21.264   4.485  19.336  0.00  0.00    +0.123 HD
BRANCH   4  14
ATOM     14  C   UNL     1      21.540   4.330  21.344  0.00  0.00    +0.156 C 
BRANCH  14  15
ATOM      6  N   UNL     1      23.952   4.578  20.670  0.00  0.00    -0.336 N 
ATOM      8  N   UNL     1      23.210   2.499  20.919  0.00  0.00    -0.239 NA
ATOM     15  C   UNL     1      22.891   3.772  20.981  0.00  0.00    +0.123 A 
ATOM     18  C   UNL     1      25.015   3.766  20.393  0.00  0.00    +0.106 A 
ATOM     19  C   UNL     1      23.964   6.021  20.636  0.00  0.00    +0.150 C 
ATOM     20  C   UNL     1      24.533   2.487  20.554  0.00  0.00    +0.130 A 
ENDBRANCH  14  15
ENDBRANCH   4  14
ENDBRANCH   9   4
BRANCH  11  13
ATOM     13  C   UNL     1      16.412   6.679  20.951  0.00  0.00    +0.140 C 
BRANCH  13   5
ATOM      3  O   UNL     1      15.240   8.988  19.679  0.00  0.00    -0.253 OA
ATOM      5  N   UNL     1      15.555   6.690  19.800  0.00  0.00    -0.297 N 
ATOM      7  N   UNL     1      14.229   7.583  18.135  0.00  0.00    -0.297 N 
ATOM     16  C   UNL     1      15.026   7.858  19.243  0.00  0.00    +0.300 C 
ATOM     25  H   UNL     1      15.309   5.801  19.376  0.00  0.00    +0.150 HD
ATOM     26  H   UNL     1      14.176   6.623  17.806  0.00  0.00    +0.150 HD
BRANCH   7  17
ATOM     17  C   UNL     1      13.564   8.614  17.374  0.00  0.00    +0.068 C 
ATOM     21  C   UNL     1      12.053   8.434  17.451  0.00  0.00    +0.027 C 
ATOM     22  C   UNL     1      14.047   8.611  15.930  0.00  0.00    +0.027 C 
ENDBRANCH   7  17
ENDBRANCH  13   5
ENDBRANCH  11  13
TORSDOF 7
ENDMDL
MODEL 10
REMARK VINA RESULT:      -5.6     29.140     32.025
REMARK  Name = 75536738
REMARK  10 active torsions:
REMARK  status: ('A' for Active; 'I' for Inactive)
REMARK    1  A    between atoms: O_2  and  C_10
REMARK    2  A    between atoms: N_4  and  C_9
REMARK    3  A    between atoms: N_4  and  C_14
REMARK    4  A    between atoms: N_5  and  C_13
REMARK    5  A    between atoms: N_6  and  C_19
REMARK    6  A    between atoms: N_7  and  C_17
REMARK    7  A    between atoms: C_11  and  C_13
REMARK    8  A    between atoms: C_14  and  C_15
REMARK    9  A    between atoms: C_17  and  C_21
REMARK   10  A    between atoms: C_17  and  C_22
REMARK                            x       y       z     vdW  Elec       q    Type
REMARK                         _______ _______ _______ _____ _____    ______ ____
ROOT
ATOM      1  O   UNL     1     -12.202  -7.803  14.081  0.00  0.00    -0.371 OA
ATOM      9  C   UNL     1     -10.488  -8.099  15.698  0.00  0.00    +0.111 C 
ATOM     10  C   UNL     1     -10.887  -6.636  15.663  0.00  0.00    +0.164 C 
ATOM     11  C   UNL     1     -12.269  -6.725  15.029  0.00  0.00    +0.165 C 
ATOM     12  C   UNL     1     -11.034  -8.592  14.368  0.00  0.00    +0.181 C 
ENDROOT
BRANCH  10   2
ATOM      2  O   UNL     1     -10.935  -6.053  16.951  0.00  0.00    -0.388 OA
ATOM     24  H   UNL     1     -10.249  -6.469  17.501  0.00  0.00    +0.210 HD
ENDBRANCH  10   2
BRANCH   9   4
ATOM      4  N   UNL     1      -9.055  -8.310  15.833  0.00  0.00    -0.302 NA
ATOM     23  H   UNL     1      -8.569  -7.433  15.642  0.00  0.00    +0.123 HD
BRANCH   4  14
ATOM     14  C   UNL     1      -8.714  -8.757  17.178  0.00  0.00    +0.156 C 
BRANCH  14  15
ATOM      6  N   UNL     1      -7.146 -10.470  18.145  0.00  0.00    -0.336 N 
ATOM      8  N   UNL     1      -6.412  -9.360  16.366  0.00  0.00    -0.239 NA
ATOM     15  C   UNL     1      -7.413  -9.514  17.204  0.00  0.00    +0.123 A 
ATOM     18  C   UNL     1      -5.896 -10.958  17.889  0.00  0.00    +0.106 A 
ATOM     19  C   UNL     1      -8.013 -10.899  19.216  0.00  0.00    +0.150 C 
ATOM     20  C   UNL     1      -5.463 -10.258  16.787  0.00  0.00    +0.130 A 
ENDBRANCH  14  15
ENDBRANCH   4  14
ENDBRANCH   9   4
BRANCH  11  13
ATOM     13  C   UNL     1     -12.689  -5.447  14.325  0.00  0.00    +0.140 C 
BRANCH  13   5
ATOM      3  O   UNL     1     -12.262  -3.193  12.574  0.00  0.00    -0.253 OA
ATOM      5  N   UNL     1     -12.358  -5.487  12.930  0.00  0.00    -0.297 N 
ATOM      7  N   UNL     1     -11.856  -4.668  10.830  0.00  0.00    -0.297 N 
ATOM     16  C   UNL     1     -12.167  -4.343  12.148  0.00  0.00    +0.300 C 
ATOM     25  H   UNL     1     -12.272  -6.395  12.482  0.00  0.00    +0.150 HD
ATOM     26  H   UNL     1     -11.725  -5.648  10.594  0.00  0.00    +0.150 HD
BRANCH   7  17
ATOM     17  C   UNL     1     -11.609  -3.671   9.816  0.00  0.00    +0.068 C 
ATOM     21  C   UNL     1     -12.866  -3.438   8.988  0.00  0.00    +0.027 C 
ATOM     22  C   UNL     1     -10.436  -4.081   8.937  0.00  0.00    +0.027 C 
ENDBRANCH   7  17
ENDBRANCH  13   5
ENDBRANCH  11  13
TORSDOF 7
ENDMDL
