MODEL 1
REMARK VINA RESULT:      -7.5      0.000      0.000
REMARK  Name = 11886654
REMARK  11 active torsions:
REMARK  status: ('A' for Active; 'I' for Inactive)
REMARK    1  A    between atoms: O_3  and  C_13
REMARK    2  A    between atoms: O_3  and  C_18
REMARK    3  A    between atoms: O_5  and  C_19
REMARK    4  A    between atoms: O_5  and  C_30
REMARK    5  A    between atoms: N_6  and  C_12
REMARK    6  A    between atoms: N_9  and  C_21
REMARK    7  A    between atoms: C_17  and  C_19
REMARK    8  A    between atoms: C_20  and  C_22
REMARK    9  A    between atoms: C_20  and  C_23
REMARK   10  A    between atoms: C_20  and  C_24
REMARK   11  A    between atoms: C_20  and  C_25
REMARK                            x       y       z     vdW  Elec       q    Type
REMARK                         _______ _______ _______ _____ _____    ______ ____
ROOT
ATOM      1  O   UNL     1      16.171   8.607  20.339  0.00  0.00    -0.368 OA
ATOM      2  O   UNL     1      15.901   5.875  18.920  0.00  0.00    -0.368 OA
ATOM     10  C   UNL     1      15.118   6.512  19.953  0.00  0.00    +0.177 C 
ATOM     11  C   UNL     1      16.091   7.263  20.840  0.00  0.00    +0.192 C 
ATOM     12  C   UNL     1      14.252   7.594  19.338  0.00  0.00    +0.166 C 
ATOM     13  C   UNL     1      17.385   6.511  20.625  0.00  0.00    +0.235 C 
ATOM     14  C   UNL     1      15.186   8.799  19.314  0.00  0.00    +0.190 C 
ATOM     15  C   UNL     1      17.291   6.129  19.167  0.00  0.00    +0.207 C 
ENDROOT
BRANCH  12   6
ATOM      6  N   UNL     1      12.995   7.788  20.066  0.00  0.00    -0.244 N 
ATOM      7  N   UNL     1      11.999   6.900  19.947  0.00  0.00    -0.065 NA
ATOM      8  N   UNL     1      10.999   7.334  20.707  0.00  0.00    -0.132 NA
ATOM     16  C   UNL     1      12.670   8.811  20.897  0.00  0.00    +0.136 A 
ATOM     17  C   UNL     1      11.394   8.504  21.295  0.00  0.00    +0.108 A 
BRANCH  17  19
ATOM     19  C   UNL     1      10.505   9.240  22.202  0.00  0.00    +0.218 C 
BRANCH  19   5
ATOM      5  O   UNL     1      11.153   9.629  23.419  0.00  0.00    -0.377 OA
ATOM     30  C   UNL     1      10.908  10.992  23.714  0.00  0.00    +0.194 C 
ENDBRANCH  19   5
ENDBRANCH  17  19
ENDBRANCH  12   6
BRANCH  13   3
ATOM      3  O   UNL     1      18.534   7.277  20.902  0.00  0.00    -0.442 OA
BRANCH   3  18
ATOM      4  O   UNL     1      19.795   6.658  22.706  0.00  0.00    -0.226 OA
ATOM      9  N   UNL     1      20.331   5.963  20.536  0.00  0.00    -0.251 N 
ATOM     18  C   UNL     1      19.592   6.623  21.498  0.00  0.00    +0.405 C 
ATOM     31  H   UNL     1      20.001   6.053  19.578  0.00  0.00    +0.158 HD
BRANCH   9  21
ATOM     21  C   UNL     1      21.490   5.176  20.718  0.00  0.00    +0.036 A 
ATOM     22  C   UNL     1      23.763   3.630  21.075  0.00  0.00    -0.042 A 
ATOM     26  C   UNL     1      22.499   3.058  21.225  0.00  0.00    +0.006 A 
ATOM     27  C   UNL     1      23.883   4.980  20.746  0.00  0.00    +0.006 A 
ATOM     28  C   UNL     1      21.356   3.835  21.045  0.00  0.00    +0.024 A 
ATOM     29  C   UNL     1      22.738   5.758  20.566  0.00  0.00    +0.024 A 
BRANCH  22  20
ATOM     20  C   UNL     1      24.986   2.798  21.267  0.00  0.00    -0.013 C 
ATOM     23  C   UNL     1      25.723   3.173  22.590  0.00  0.00    +0.015 C 
ATOM     24  C   UNL     1      24.741   1.255  21.351  0.00  0.00    +0.015 C 
ATOM     25  C   UNL     1      25.994   2.996  20.094  0.00  0.00    +0.015 C 
ENDBRANCH  22  20
ENDBRANCH   9  21
ENDBRANCH   3  18
ENDBRANCH  13   3
TORSDOF 7
ENDMDL
MODEL 2
REMARK VINA RESULT:      -7.1      3.129      5.720
REMARK  Name = 11886654
REMARK  11 active torsions:
REMARK  status: ('A' for Active; 'I' for Inactive)
REMARK    1  A    between atoms: O_3  and  C_13
REMARK    2  A    between atoms: O_3  and  C_18
REMARK    3  A    between atoms: O_5  and  C_19
REMARK    4  A    between atoms: O_5  and  C_30
REMARK    5  A    between atoms: N_6  and  C_12
REMARK    6  A    between atoms: N_9  and  C_21
REMARK    7  A    between atoms: C_17  and  C_19
REMARK    8  A    between atoms: C_20  and  C_22
REMARK    9  A    between atoms: C_20  and  C_23
REMARK   10  A    between atoms: C_20  and  C_24
REMARK   11  A    between atoms: C_20  and  C_25
REMARK                            x       y       z     vdW  Elec       q    Type
REMARK                         _______ _______ _______ _____ _____    ______ ____
ROOT
ATOM      1  O   UNL     1      12.661  10.629  20.652  0.00  0.00    -0.368 OA
ATOM      2  O   UNL     1      10.458   8.634  21.500  0.00  0.00    -0.368 OA
ATOM     10  C   UNL     1      11.484   9.322  22.249  0.00  0.00    +0.177 C 
ATOM     11  C   UNL     1      12.710   9.380  21.361  0.00  0.00    +0.192 C 
ATOM     12  C   UNL     1      11.084  10.772  22.441  0.00  0.00    +0.166 C 
ATOM     13  C   UNL     1      12.506   8.205  20.434  0.00  0.00    +0.235 C 
ATOM     14  C   UNL     1      11.588  11.432  21.162  0.00  0.00    +0.190 C 
ATOM     15  C   UNL     1      11.007   8.206  20.246  0.00  0.00    +0.207 C 
ENDROOT
BRANCH  12   6
ATOM      6  N   UNL     1      11.608  11.338  23.688  0.00  0.00    -0.244 N 
ATOM      7  N   UNL     1      10.791  11.564  24.725  0.00  0.00    -0.065 NA
ATOM      8  N   UNL     1      11.533  12.077  25.700  0.00  0.00    -0.132 NA
ATOM     16  C   UNL     1      12.888  11.697  23.959  0.00  0.00    +0.136 A 
ATOM     17  C   UNL     1      12.820  12.166  25.247  0.00  0.00    +0.108 A 
BRANCH  17  19
ATOM     19  C   UNL     1      13.893  12.698  26.096  0.00  0.00    +0.218 C 
BRANCH  19   5
ATOM      5  O   UNL     1      15.171  12.686  25.448  0.00  0.00    -0.377 OA
ATOM     30  C   UNL     1      16.211  12.437  26.377  0.00  0.00    +0.194 C 
ENDBRANCH  19   5
ENDBRANCH  17  19
ENDBRANCH  12   6
BRANCH  13   3
ATOM      3  O   UNL     1      13.196   8.325  19.211  0.00  0.00    -0.442 OA
BRANCH   3  18
ATOM      4  O   UNL     1      15.194   9.366  18.824  0.00  0.00    -0.226 OA
ATOM      9  N   UNL     1      15.078   7.294  19.908  0.00  0.00    -0.251 N 
ATOM     18  C   UNL     1      14.571   8.413  19.276  0.00  0.00    +0.405 C 
ATOM     31  H   UNL     1      14.396   6.606  20.216  0.00  0.00    +0.158 HD
BRANCH   9  21
ATOM     21  C   UNL     1      16.431   6.987  20.180  0.00  0.00    +0.036 A 
ATOM     22  C   UNL     1      19.083   6.388  20.716  0.00  0.00    -0.042 A 
ATOM     26  C   UNL     1      18.399   7.302  21.518  0.00  0.00    +0.006 A 
ATOM     27  C   UNL     1      18.432   5.776  19.644  0.00  0.00    +0.006 A 
ATOM     28  C   UNL     1      17.064   7.604  21.248  0.00  0.00    +0.024 A 
ATOM     29  C   UNL     1      17.097   6.078  19.375  0.00  0.00    +0.024 A 
BRANCH  22  20
ATOM     20  C   UNL     1      20.511   6.064  21.004  0.00  0.00    -0.013 C 
ATOM     23  C   UNL     1      20.891   4.652  20.462  0.00  0.00    +0.015 C 
ATOM     24  C   UNL     1      21.559   7.045  20.382  0.00  0.00    +0.015 C 
ATOM     25  C   UNL     1      20.793   6.072  22.538  0.00  0.00    +0.015 C 
ENDBRANCH  22  20
ENDBRANCH   9  21
ENDBRANCH   3  18
ENDBRANCH  13   3
TORSDOF 7
ENDMDL
MODEL 3
REMARK VINA RESULT:      -7.0      2.362      3.751
REMARK  Name = 11886654
REMARK  11 active torsions:
REMARK  status: ('A' for Active; 'I' for Inactive)
REMARK    1  A    between atoms: O_3  and  C_13
REMARK    2  A    between atoms: O_3  and  C_18
REMARK    3  A    between atoms: O_5  and  C_19
REMARK    4  A    between atoms: O_5  and  C_30
REMARK    5  A    between atoms: N_6  and  C_12
REMARK    6  A    between atoms: N_9  and  C_21
REMARK    7  A    between atoms: C_17  and  C_19
REMARK    8  A    between atoms: C_20  and  C_22
REMARK    9  A    between atoms: C_20  and  C_23
REMARK   10  A    between atoms: C_20  and  C_24
REMARK   11  A    between atoms: C_20  and  C_25
REMARK                            x       y       z     vdW  Elec       q    Type
REMARK                         _______ _______ _______ _____ _____    ______ ____
ROOT
ATOM      1  O   UNL     1      14.096   9.434  19.843  0.00  0.00    -0.368 OA
ATOM      2  O   UNL     1      11.602   7.630  19.566  0.00  0.00    -0.368 OA
ATOM     10  C   UNL     1      12.058   8.498  20.627  0.00  0.00    +0.177 C 
ATOM     11  C   UNL     1      13.569   8.383  20.668  0.00  0.00    +0.192 C 
ATOM     12  C   UNL     1      11.797   9.942  20.248  0.00  0.00    +0.166 C 
ATOM     13  C   UNL     1      13.816   7.021  20.061  0.00  0.00    +0.235 C 
ATOM     14  C   UNL     1      13.033  10.304  19.431  0.00  0.00    +0.190 C 
ATOM     15  C   UNL     1      12.731   6.940  19.012  0.00  0.00    +0.207 C 
ENDROOT
BRANCH  12   6
ATOM      6  N   UNL     1      11.544  10.792  21.415  0.00  0.00    -0.244 N 
ATOM      7  N   UNL     1      11.512  12.125  21.288  0.00  0.00    -0.065 NA
ATOM      8  N   UNL     1      11.271  12.625  22.496  0.00  0.00    -0.132 NA
ATOM     16  C   UNL     1      11.329  10.396  22.695  0.00  0.00    +0.136 A 
ATOM     17  C   UNL     1      11.157  11.579  23.369  0.00  0.00    +0.108 A 
BRANCH  17  19
ATOM     19  C   UNL     1      10.889  11.801  24.795  0.00  0.00    +0.218 C 
BRANCH  19   5
ATOM      5  O   UNL     1      12.036  11.565  25.619  0.00  0.00    -0.377 OA
ATOM     30  C   UNL     1      12.901  12.687  25.622  0.00  0.00    +0.194 C 
ENDBRANCH  19   5
ENDBRANCH  17  19
ENDBRANCH  12   6
BRANCH  13   3
ATOM      3  O   UNL     1      15.103   6.876  19.507  0.00  0.00    -0.442 OA
BRANCH   3  18
ATOM      4  O   UNL     1      15.918   6.247  21.549  0.00  0.00    -0.226 OA
ATOM      9  N   UNL     1      17.319   6.494  19.690  0.00  0.00    -0.251 N 
ATOM     18  C   UNL     1      16.116   6.509  20.369  0.00  0.00    +0.405 C 
ATOM     31  H   UNL     1      17.280   6.744  18.704  0.00  0.00    +0.158 HD
BRANCH   9  21
ATOM     21  C   UNL     1      18.599   6.175  20.196  0.00  0.00    +0.036 A 
ATOM     22  C   UNL     1      21.110   5.545  21.186  0.00  0.00    -0.042 A 
ATOM     26  C   UNL     1      20.451   4.653  20.340  0.00  0.00    +0.006 A 
ATOM     27  C   UNL     1      20.506   6.753  21.534  0.00  0.00    +0.006 A 
ATOM     28  C   UNL     1      19.187   4.970  19.841  0.00  0.00    +0.024 A 
ATOM     29  C   UNL     1      19.242   7.070  21.036  0.00  0.00    +0.024 A 
BRANCH  22  20
ATOM     20  C   UNL     1      22.462   5.206  21.719  0.00  0.00    -0.013 C 
ATOM     23  C   UNL     1      22.690   3.664  21.743  0.00  0.00    +0.015 C 
ATOM     24  C   UNL     1      23.667   5.793  20.912  0.00  0.00    +0.015 C 
ATOM     25  C   UNL     1      22.643   5.732  23.176  0.00  0.00    +0.015 C 
ENDBRANCH  22  20
ENDBRANCH   9  21
ENDBRANCH   3  18
ENDBRANCH  13   3
TORSDOF 7
ENDMDL
MODEL 4
REMARK VINA RESULT:      -6.8      5.010     10.219
REMARK  Name = 11886654
REMARK  11 active torsions:
REMARK  status: ('A' for Active; 'I' for Inactive)
REMARK    1  A    between atoms: O_3  and  C_13
REMARK    2  A    between atoms: O_3  and  C_18
REMARK    3  A    between atoms: O_5  and  C_19
REMARK    4  A    between atoms: O_5  and  C_30
REMARK    5  A    between atoms: N_6  and  C_12
REMARK    6  A    between atoms: N_9  and  C_21
REMARK    7  A    between atoms: C_17  and  C_19
REMARK    8  A    between atoms: C_20  and  C_22
REMARK    9  A    between atoms: C_20  and  C_23
REMARK   10  A    between atoms: C_20  and  C_24
REMARK   11  A    between atoms: C_20  and  C_25
REMARK                            x       y       z     vdW  Elec       q    Type
REMARK                         _______ _______ _______ _____ _____    ______ ____
ROOT
ATOM      1  O   UNL     1      14.584   9.217  18.766  0.00  0.00    -0.368 OA
ATOM      2  O   UNL     1      12.755   7.081  20.049  0.00  0.00    -0.368 OA
ATOM     10  C   UNL     1      14.043   6.992  19.401  0.00  0.00    +0.177 C 
ATOM     11  C   UNL     1      14.030   7.991  18.261  0.00  0.00    +0.192 C 
ATOM     12  C   UNL     1      15.120   7.500  20.340  0.00  0.00    +0.166 C 
ATOM     13  C   UNL     1      12.556   8.130  17.957  0.00  0.00    +0.235 C 
ATOM     14  C   UNL     1      15.104   9.004  20.085  0.00  0.00    +0.190 C 
ATOM     15  C   UNL     1      11.937   8.015  19.331  0.00  0.00    +0.207 C 
ENDROOT
BRANCH  12   6
ATOM      6  N   UNL     1      16.410   6.840  20.124  0.00  0.00    -0.244 N 
ATOM      7  N   UNL     1      16.559   5.951  19.133  0.00  0.00    -0.065 NA
ATOM      8  N   UNL     1      17.815   5.520  19.183  0.00  0.00    -0.132 NA
ATOM     16  C   UNL     1      17.553   7.006  20.837  0.00  0.00    +0.136 A 
ATOM     17  C   UNL     1      18.437   6.156  20.222  0.00  0.00    +0.108 A 
BRANCH  17  19
ATOM     19  C   UNL     1      19.845   5.894  20.543  0.00  0.00    +0.218 C 
BRANCH  19   5
ATOM      5  O   UNL     1      20.247   4.556  20.227  0.00  0.00    -0.377 OA
ATOM     30  C   UNL     1      21.413   4.191  20.944  0.00  0.00    +0.194 C 
ENDBRANCH  19   5
ENDBRANCH  17  19
ENDBRANCH  12   6
BRANCH  13   3
ATOM      3  O   UNL     1      12.223   9.343  17.323  0.00  0.00    -0.442 OA
BRANCH   3  18
ATOM      4  O   UNL     1      12.623   8.835  15.130  0.00  0.00    -0.226 OA
ATOM      9  N   UNL     1      13.536  10.741  16.136  0.00  0.00    -0.251 N 
ATOM     18  C   UNL     1      12.790   9.579  16.089  0.00  0.00    +0.405 C 
ATOM     31  H   UNL     1      13.554  11.226  17.031  0.00  0.00    +0.158 HD
BRANCH   9  21
ATOM     21  C   UNL     1      14.277  11.342  15.094  0.00  0.00    +0.036 A 
ATOM     22  C   UNL     1      15.728  12.522  13.048  0.00  0.00    -0.042 A 
ATOM     26  C   UNL     1      14.348  12.712  13.124  0.00  0.00    +0.006 A 
ATOM     27  C   UNL     1      16.378  11.738  14.002  0.00  0.00    +0.006 A 
ATOM     28  C   UNL     1      13.618  12.119  14.153  0.00  0.00    +0.024 A 
ATOM     29  C   UNL     1      15.646  11.144  15.031  0.00  0.00    +0.024 A 
BRANCH  22  20
ATOM     20  C   UNL     1      16.509  13.157  11.947  0.00  0.00    -0.013 C 
ATOM     23  C   UNL     1      18.044  13.015  12.188  0.00  0.00    +0.015 C 
ATOM     24  C   UNL     1      16.256  12.570  10.520  0.00  0.00    +0.015 C 
ATOM     25  C   UNL     1      16.190  14.680  11.833  0.00  0.00    +0.015 C 
ENDBRANCH  22  20
ENDBRANCH   9  21
ENDBRANCH   3  18
ENDBRANCH  13   3
TORSDOF 7
ENDMDL
MODEL 5
REMARK VINA RESULT:      -6.6     28.666     31.578
REMARK  Name = 11886654
REMARK  11 active torsions:
REMARK  status: ('A' for Active; 'I' for Inactive)
REMARK    1  A    between atoms: O_3  and  C_13
REMARK    2  A    between atoms: O_3  and  C_18
REMARK    3  A    between atoms: O_5  and  C_19
REMARK    4  A    between atoms: O_5  and  C_30
REMARK    5  A    between atoms: N_6  and  C_12
REMARK    6  A    between atoms: N_9  and  C_21
REMARK    7  A    between atoms: C_17  and  C_19
REMARK    8  A    between atoms: C_20  and  C_22
REMARK    9  A    between atoms: C_20  and  C_23
REMARK   10  A    between atoms: C_20  and  C_24
REMARK   11  A    between atoms: C_20  and  C_25
REMARK                            x       y       z     vdW  Elec       q    Type
REMARK                         _______ _______ _______ _____ _____    ______ ____
ROOT
ATOM      1  O   UNL     1      -9.308  -5.203   8.816  0.00  0.00    -0.368 OA
ATOM      2  O   UNL     1     -11.834  -6.399   7.495  0.00  0.00    -0.368 OA
ATOM     10  C   UNL     1     -11.463  -6.203   8.878  0.00  0.00    +0.177 C 
ATOM     11  C   UNL     1      -9.973  -6.467   8.972  0.00  0.00    +0.192 C 
ATOM     12  C   UNL     1     -11.613  -4.739   9.241  0.00  0.00    +0.166 C 
ATOM     13  C   UNL     1      -9.721  -7.379   7.794  0.00  0.00    +0.235 C 
ATOM     14  C   UNL     1     -10.277  -4.146   8.806  0.00  0.00    +0.190 C 
ATOM     15  C   UNL     1     -10.682  -6.837   6.762  0.00  0.00    +0.207 C 
ENDROOT
BRANCH  12   6
ATOM      6  N   UNL     1     -11.958  -4.543  10.651  0.00  0.00    -0.244 N 
ATOM      7  N   UNL     1     -11.949  -3.314  11.186  0.00  0.00    -0.065 NA
ATOM      8  N   UNL     1     -12.294  -3.444  12.463  0.00  0.00    -0.132 NA
ATOM     16  C   UNL     1     -12.303  -5.491  11.558  0.00  0.00    +0.136 A 
ATOM     17  C   UNL     1     -12.513  -4.772  12.707  0.00  0.00    +0.108 A 
BRANCH  17  19
ATOM     19  C   UNL     1     -12.913  -5.247  14.037  0.00  0.00    +0.218 C 
BRANCH  19   5
ATOM      5  O   UNL     1     -12.107  -6.337  14.501  0.00  0.00    -0.377 OA
ATOM     30  C   UNL     1     -12.914  -7.425  14.919  0.00  0.00    +0.194 C 
ENDBRANCH  19   5
ENDBRANCH  17  19
ENDBRANCH  12   6
BRANCH  13   3
ATOM      3  O   UNL     1      -8.387  -7.360   7.342  0.00  0.00    -0.442 OA
BRANCH   3  18
ATOM      4  O   UNL     1      -7.525  -9.478   7.346  0.00  0.00    -0.226 OA
ATOM      9  N   UNL     1      -6.797  -7.853   8.865  0.00  0.00    -0.251 N 
ATOM     18  C   UNL     1      -7.552  -8.349   7.819  0.00  0.00    +0.405 C 
ATOM     31  H   UNL     1      -6.963  -6.880   9.114  0.00  0.00    +0.158 HD
BRANCH   9  21
ATOM     21  C   UNL     1      -5.822  -8.530   9.631  0.00  0.00    +0.036 A 
ATOM     22  C   UNL     1      -3.907  -9.857  11.133  0.00  0.00    -0.042 A 
ATOM     26  C   UNL     1      -3.629  -9.488   9.816  0.00  0.00    +0.006 A 
ATOM     27  C   UNL     1      -5.149  -9.558  11.693  0.00  0.00    +0.006 A 
ATOM     28  C   UNL     1      -4.592  -8.820   9.061  0.00  0.00    +0.024 A 
ATOM     29  C   UNL     1      -6.113  -8.890  10.937  0.00  0.00    +0.024 A 
BRANCH  22  20
ATOM     20  C   UNL     1      -2.877 -10.572  11.941  0.00  0.00    -0.013 C 
ATOM     23  C   UNL     1      -1.457  -9.971  11.705  0.00  0.00    +0.015 C 
ATOM     24  C   UNL     1      -3.094 -10.532  13.490  0.00  0.00    +0.015 C 
ATOM     25  C   UNL     1      -2.816 -12.085  11.568  0.00  0.00    +0.015 C 
ENDBRANCH  22  20
ENDBRANCH   9  21
ENDBRANCH   3  18
ENDBRANCH  13   3
TORSDOF 7
ENDMDL
MODEL 6
REMARK VINA RESULT:      -6.5      4.753      6.963
REMARK  Name = 11886654
REMARK  11 active torsions:
REMARK  status: ('A' for Active; 'I' for Inactive)
REMARK    1  A    between atoms: O_3  and  C_13
REMARK    2  A    between atoms: O_3  and  C_18
REMARK    3  A    between atoms: O_5  and  C_19
REMARK    4  A    between atoms: O_5  and  C_30
REMARK    5  A    between atoms: N_6  and  C_12
REMARK    6  A    between atoms: N_9  and  C_21
REMARK    7  A    between atoms: C_17  and  C_19
REMARK    8  A    between atoms: C_20  and  C_22
REMARK    9  A    between atoms: C_20  and  C_23
REMARK   10  A    between atoms: C_20  and  C_24
REMARK   11  A    between atoms: C_20  and  C_25
REMARK                            x       y       z     vdW  Elec       q    Type
REMARK                         _______ _______ _______ _____ _____    ______ ____
ROOT
ATOM      1  O   UNL     1      14.053  10.514  17.886  0.00  0.00    -0.368 OA
ATOM      2  O   UNL     1      13.764   8.085  15.996  0.00  0.00    -0.368 OA
ATOM     10  C   UNL     1      13.223   9.423  15.944  0.00  0.00    +0.177 C 
ATOM     11  C   UNL     1      12.903   9.821  17.371  0.00  0.00    +0.192 C 
ATOM     12  C   UNL     1      14.306  10.392  15.512  0.00  0.00    +0.166 C 
ATOM     13  C   UNL     1      12.706   8.487  18.053  0.00  0.00    +0.235 C 
ATOM     14  C   UNL     1      14.998  10.731  16.829  0.00  0.00    +0.190 C 
ATOM     15  C   UNL     1      13.724   7.619  17.351  0.00  0.00    +0.207 C 
ENDROOT
BRANCH  12   6
ATOM      6  N   UNL     1      13.771  11.538  14.771  0.00  0.00    -0.244 N 
ATOM      7  N   UNL     1      12.825  11.360  13.839  0.00  0.00    -0.065 NA
ATOM      8  N   UNL     1      12.543  12.557  13.338  0.00  0.00    -0.132 NA
ATOM     16  C   UNL     1      14.124  12.842  14.897  0.00  0.00    +0.136 A 
ATOM     17  C   UNL     1      13.330  13.476  13.975  0.00  0.00    +0.108 A 
BRANCH  17  19
ATOM     19  C   UNL     1      13.256  14.904  13.644  0.00  0.00    +0.218 C 
BRANCH  19   5
ATOM      5  O   UNL     1      14.304  15.326  12.763  0.00  0.00    -0.377 OA
ATOM     30  C   UNL     1      13.835  15.436  11.430  0.00  0.00    +0.194 C 
ENDBRANCH  19   5
ENDBRANCH  17  19
ENDBRANCH  12   6
BRANCH  13   3
ATOM      3  O   UNL     1      12.912   8.529  19.446  0.00  0.00    -0.442 OA
BRANCH   3  18
ATOM      4  O   UNL     1      13.657   6.677  20.559  0.00  0.00    -0.226 OA
ATOM      9  N   UNL     1      15.139   8.258  19.675  0.00  0.00    -0.251 N 
ATOM     18  C   UNL     1      13.900   7.715  19.956  0.00  0.00    +0.405 C 
ATOM     31  H   UNL     1      15.137   9.135  19.158  0.00  0.00    +0.158 HD
BRANCH   9  21
ATOM     21  C   UNL     1      16.412   7.745  20.015  0.00  0.00    +0.036 A 
ATOM     22  C   UNL     1      18.907   6.743  20.685  0.00  0.00    -0.042 A 
ATOM     26  C   UNL     1      18.469   7.948  21.235  0.00  0.00    +0.006 A 
ATOM     27  C   UNL     1      18.089   6.042  19.799  0.00  0.00    +0.006 A 
ATOM     28  C   UNL     1      17.214   8.453  20.898  0.00  0.00    +0.024 A 
ATOM     29  C   UNL     1      16.833   6.548  19.462  0.00  0.00    +0.024 A 
BRANCH  22  20
ATOM     20  C   UNL     1      20.250   6.203  21.046  0.00  0.00    -0.013 C 
ATOM     23  C   UNL     1      21.392   7.089  20.460  0.00  0.00    +0.015 C 
ATOM     24  C   UNL     1      20.544   6.106  22.580  0.00  0.00    +0.015 C 
ATOM     25  C   UNL     1      20.445   4.758  20.493  0.00  0.00    +0.015 C 
ENDBRANCH  22  20
ENDBRANCH   9  21
ENDBRANCH   3  18
ENDBRANCH  13   3
TORSDOF 7
ENDMDL
MODEL 7
REMARK VINA RESULT:      -6.4     28.000     30.995
REMARK  Name = 11886654
REMARK  11 active torsions:
REMARK  status: ('A' for Active; 'I' for Inactive)
REMARK    1  A    between atoms: O_3  and  C_13
REMARK    2  A    between atoms: O_3  and  C_18
REMARK    3  A    between atoms: O_5  and  C_19
REMARK    4  A    between atoms: O_5  and  C_30
REMARK    5  A    between atoms: N_6  and  C_12
REMARK    6  A    between atoms: N_9  and  C_21
REMARK    7  A    between atoms: C_17  and  C_19
REMARK    8  A    between atoms: C_20  and  C_22
REMARK    9  A    between atoms: C_20  and  C_23
REMARK   10  A    between atoms: C_20  and  C_24
REMARK   11  A    between atoms: C_20  and  C_25
REMARK                            x       y       z     vdW  Elec       q    Type
REMARK                         _______ _______ _______ _____ _____    ______ ____
ROOT
ATOM      1  O   UNL     1     -11.671  -8.042  14.354  0.00  0.00    -0.368 OA
ATOM      2  O   UNL     1     -11.475  -6.011  16.676  0.00  0.00    -0.368 OA
ATOM     10  C   UNL     1     -11.246  -5.884  15.256  0.00  0.00    +0.177 C 
ATOM     11  C   UNL     1     -10.609  -7.182  14.798  0.00  0.00    +0.192 C 
ATOM     12  C   UNL     1     -12.576  -5.837  14.530  0.00  0.00    +0.166 C 
ATOM     13  C   UNL     1      -9.963  -7.700  16.062  0.00  0.00    +0.235 C 
ATOM     14  C   UNL     1     -12.907  -7.314  14.337  0.00  0.00    +0.190 C 
ATOM     15  C   UNL     1     -10.951  -7.269  17.122  0.00  0.00    +0.207 C 
ENDROOT
BRANCH  12   6
ATOM      6  N   UNL     1     -12.517  -5.041  13.301  0.00  0.00    -0.244 N 
ATOM      7  N   UNL     1     -12.695  -3.714  13.343  0.00  0.00    -0.065 NA
ATOM      8  N   UNL     1     -12.593  -3.268  12.096  0.00  0.00    -0.132 NA
ATOM     16  C   UNL     1     -12.297  -5.486  12.037  0.00  0.00    +0.136 A 
ATOM     17  C   UNL     1     -12.350  -4.341  11.284  0.00  0.00    +0.108 A 
BRANCH  17  19
ATOM     19  C   UNL     1     -12.185  -4.178   9.834  0.00  0.00    +0.218 C 
BRANCH  19   5
ATOM      5  O   UNL     1     -10.918  -3.608   9.481  0.00  0.00    -0.377 OA
ATOM     30  C   UNL     1     -10.098  -4.557   8.822  0.00  0.00    +0.194 C 
ENDBRANCH  19   5
ENDBRANCH  17  19
ENDBRANCH  12   6
BRANCH  13   3
ATOM      3  O   UNL     1      -9.759  -9.093  16.060  0.00  0.00    -0.442 OA
BRANCH   3  18
ATOM      4  O   UNL     1      -8.133  -9.876  17.465  0.00  0.00    -0.226 OA
ATOM      9  N   UNL     1      -7.725  -9.530  15.186  0.00  0.00    -0.251 N 
ATOM     18  C   UNL     1      -8.484  -9.538  16.341  0.00  0.00    +0.405 C 
ATOM     31  H   UNL     1      -8.198  -9.213  14.342  0.00  0.00    +0.158 HD
BRANCH   9  21
ATOM     21  C   UNL     1      -6.373  -9.909  15.031  0.00  0.00    +0.036 A 
ATOM     22  C   UNL     1      -3.720 -10.651  14.729  0.00  0.00    -0.042 A 
ATOM     26  C   UNL     1      -4.216 -10.337  15.994  0.00  0.00    +0.006 A 
ATOM     27  C   UNL     1      -4.558 -10.591  13.616  0.00  0.00    +0.006 A 
ATOM     28  C   UNL     1      -5.551  -9.963  16.146  0.00  0.00    +0.024 A 
ATOM     29  C   UNL     1      -5.893 -10.217  13.768  0.00  0.00    +0.024 A 
BRANCH  22  20
ATOM     20  C   UNL     1      -2.292 -11.051  14.567  0.00  0.00    -0.013 C 
ATOM     23  C   UNL     1      -1.638 -10.331  13.347  0.00  0.00    +0.015 C 
ATOM     24  C   UNL     1      -1.363 -10.731  15.785  0.00  0.00    +0.015 C 
ATOM     25  C   UNL     1      -2.158 -12.587  14.334  0.00  0.00    +0.015 C 
ENDBRANCH  22  20
ENDBRANCH   9  21
ENDBRANCH   3  18
ENDBRANCH  13   3
TORSDOF 7
ENDMDL
MODEL 8
REMARK VINA RESULT:      -6.4     28.561     30.518
REMARK  Name = 11886654
REMARK  11 active torsions:
REMARK  status: ('A' for Active; 'I' for Inactive)
REMARK    1  A    between atoms: O_3  and  C_13
REMARK    2  A    between atoms: O_3  and  C_18
REMARK    3  A    between atoms: O_5  and  C_19
REMARK    4  A    between atoms: O_5  and  C_30
REMARK    5  A    between atoms: N_6  and  C_12
REMARK    6  A    between atoms: N_9  and  C_21
REMARK    7  A    between atoms: C_17  and  C_19
REMARK    8  A    between atoms: C_20  and  C_22
REMARK    9  A    between atoms: C_20  and  C_23
REMARK   10  A    between atoms: C_20  and  C_24
REMARK   11  A    between atoms: C_20  and  C_25
REMARK                            x       y       z     vdW  Elec       q    Type
REMARK                         _______ _______ _______ _____ _____    ______ ____
ROOT
ATOM      1  O   UNL     1      -6.777 -12.075  17.547  0.00  0.00    -0.368 OA
ATOM      2  O   UNL     1      -6.051 -11.253  20.437  0.00  0.00    -0.368 OA
ATOM     10  C   UNL     1      -6.905 -10.647  19.442  0.00  0.00    +0.177 C 
ATOM     11  C   UNL     1      -6.236 -10.864  18.100  0.00  0.00    +0.192 C 
ATOM     12  C   UNL     1      -8.205 -11.422  19.349  0.00  0.00    +0.166 C 
ATOM     13  C   UNL     1      -4.781 -11.024  18.475  0.00  0.00    +0.235 C 
ATOM     14  C   UNL     1      -7.862 -12.536  18.364  0.00  0.00    +0.190 C 
ATOM     15  C   UNL     1      -4.872 -11.757  19.793  0.00  0.00    +0.207 C 
ENDROOT
BRANCH  12   6
ATOM      6  N   UNL     1      -9.338 -10.575  18.969  0.00  0.00    -0.244 N 
ATOM      7  N   UNL     1     -10.428 -10.513  19.745  0.00  0.00    -0.065 NA
ATOM      8  N   UNL     1     -11.279  -9.682  19.154  0.00  0.00    -0.132 NA
ATOM     16  C   UNL     1      -9.453  -9.795  17.864  0.00  0.00    +0.136 A 
ATOM     17  C   UNL     1     -10.698  -9.234  18.001  0.00  0.00    +0.108 A 
BRANCH  17  19
ATOM     19  C   UNL     1     -11.391  -8.292  17.113  0.00  0.00    +0.218 C 
BRANCH  19   5
ATOM      5  O   UNL     1     -10.764  -7.004  17.073  0.00  0.00    -0.377 OA
ATOM     30  C   UNL     1     -11.428  -6.141  16.167  0.00  0.00    +0.194 C 
ENDBRANCH  19   5
ENDBRANCH  17  19
ENDBRANCH  12   6
BRANCH  13   3
ATOM      3  O   UNL     1      -4.028 -11.736  17.521  0.00  0.00    -0.442 OA
BRANCH   3  18
ATOM      4  O   UNL     1      -2.725 -10.351  16.252  0.00  0.00    -0.226 OA
ATOM      9  N   UNL     1      -4.651 -11.362  15.385  0.00  0.00    -0.251 N 
ATOM     18  C   UNL     1      -3.709 -11.073  16.354  0.00  0.00    +0.405 C 
ATOM     31  H   UNL     1      -5.402 -11.989  15.663  0.00  0.00    +0.158 HD
BRANCH   9  21
ATOM     21  C   UNL     1      -4.700 -10.892  14.053  0.00  0.00    +0.036 A 
ATOM     22  C   UNL     1      -4.798  -9.971  11.441  0.00  0.00    -0.042 A 
ATOM     26  C   UNL     1      -5.809  -9.629  12.340  0.00  0.00    +0.006 A 
ATOM     27  C   UNL     1      -3.738 -10.776  11.857  0.00  0.00    +0.006 A 
ATOM     28  C   UNL     1      -5.760 -10.093  13.654  0.00  0.00    +0.024 A 
ATOM     29  C   UNL     1      -3.689 -11.240  13.172  0.00  0.00    +0.024 A 
BRANCH  22  20
ATOM     20  C   UNL     1      -4.851  -9.474  10.035  0.00  0.00    -0.013 C 
ATOM     23  C   UNL     1      -3.444  -9.013   9.546  0.00  0.00    +0.015 C 
ATOM     24  C   UNL     1      -5.340 -10.515   8.975  0.00  0.00    +0.015 C 
ATOM     25  C   UNL     1      -5.818  -8.258   9.901  0.00  0.00    +0.015 C 
ENDBRANCH  22  20
ENDBRANCH   9  21
ENDBRANCH   3  18
ENDBRANCH  13   3
TORSDOF 7
ENDMDL
MODEL 9
REMARK VINA RESULT:      -6.4     29.520     33.993
REMARK  Name = 11886654
REMARK  11 active torsions:
REMARK  status: ('A' for Active; 'I' for Inactive)
REMARK    1  A    between atoms: O_3  and  C_13
REMARK    2  A    between atoms: O_3  and  C_18
REMARK    3  A    between atoms: O_5  and  C_19
REMARK    4  A    between atoms: O_5  and  C_30
REMARK    5  A    between atoms: N_6  and  C_12
REMARK    6  A    between atoms: N_9  and  C_21
REMARK    7  A    between atoms: C_17  and  C_19
REMARK    8  A    between atoms: C_20  and  C_22
REMARK    9  A    between atoms: C_20  and  C_23
REMARK   10  A    between atoms: C_20  and  C_24
REMARK   11  A    between atoms: C_20  and  C_25
REMARK                            x       y       z     vdW  Elec       q    Type
REMARK                         _______ _______ _______ _____ _____    ______ ____
ROOT
ATOM      1  O   UNL     1     -11.243  -8.079  17.515  0.00  0.00    -0.368 OA
ATOM      2  O   UNL     1     -10.036  -8.929  14.799  0.00  0.00    -0.368 OA
ATOM     10  C   UNL     1      -9.465  -8.819  16.122  0.00  0.00    +0.177 C 
ATOM     11  C   UNL     1     -10.104  -7.609  16.774  0.00  0.00    +0.192 C 
ATOM     12  C   UNL     1      -9.918  -9.992  16.969  0.00  0.00    +0.166 C 
ATOM     13  C   UNL     1     -10.519  -6.771  15.588  0.00  0.00    +0.235 C 
ATOM     14  C   UNL     1     -11.259  -9.513  17.516  0.00  0.00    +0.190 C 
ATOM     15  C   UNL     1     -10.922  -7.823  14.581  0.00  0.00    +0.207 C 
ENDROOT
BRANCH  12   6
ATOM      6  N   UNL     1      -8.926 -10.370  17.979  0.00  0.00    -0.244 N 
ATOM      7  N   UNL     1      -9.319 -10.822  19.178  0.00  0.00    -0.065 NA
ATOM      8  N   UNL     1      -8.218 -11.078  19.876  0.00  0.00    -0.132 NA
ATOM     16  C   UNL     1      -7.574 -10.321  17.870  0.00  0.00    +0.136 A 
ATOM     17  C   UNL     1      -7.141 -10.776  19.090  0.00  0.00    +0.108 A 
BRANCH  17  19
ATOM     19  C   UNL     1      -5.768 -10.951  19.578  0.00  0.00    +0.218 C 
BRANCH  19   5
ATOM      5  O   UNL     1      -5.097 -12.057  18.961  0.00  0.00    -0.377 OA
ATOM     30  C   UNL     1      -4.123 -11.610  18.035  0.00  0.00    +0.194 C 
ENDBRANCH  19   5
ENDBRANCH  17  19
ENDBRANCH  12   6
BRANCH  13   3
ATOM      3  O   UNL     1     -11.568  -5.874  15.870  0.00  0.00    -0.442 OA
BRANCH   3  18
ATOM      4  O   UNL     1     -13.526  -6.444  14.837  0.00  0.00    -0.226 OA
ATOM      9  N   UNL     1     -12.205  -4.670  14.073  0.00  0.00    -0.251 N 
ATOM     18  C   UNL     1     -12.539  -5.723  14.902  0.00  0.00    +0.405 C 
ATOM     31  H   UNL     1     -11.337  -4.186  14.290  0.00  0.00    +0.158 HD
BRANCH   9  21
ATOM     21  C   UNL     1     -12.923  -4.179  12.959  0.00  0.00    +0.036 A 
ATOM     22  C   UNL     1     -14.329  -3.217  10.772  0.00  0.00    -0.042 A 
ATOM     26  C   UNL     1     -13.013  -3.653  10.618  0.00  0.00    +0.006 A 
ATOM     27  C   UNL     1     -14.937  -3.265  12.026  0.00  0.00    +0.006 A 
ATOM     28  C   UNL     1     -12.305  -4.137  11.718  0.00  0.00    +0.024 A 
ATOM     29  C   UNL     1     -14.229  -3.749  13.127  0.00  0.00    +0.024 A 
BRANCH  22  20
ATOM     20  C   UNL     1     -15.086  -2.699   9.595  0.00  0.00    -0.013 C 
ATOM     23  C   UNL     1     -16.275  -3.640   9.230  0.00  0.00    +0.015 C 
ATOM     24  C   UNL     1     -15.718  -1.280   9.776  0.00  0.00    +0.015 C 
ATOM     25  C   UNL     1     -14.169  -2.589   8.338  0.00  0.00    +0.015 C 
ENDBRANCH  22  20
ENDBRANCH   9  21
ENDBRANCH   3  18
ENDBRANCH  13   3
TORSDOF 7
ENDMDL
MODEL 10
REMARK VINA RESULT:      -6.3     29.027     31.432
REMARK  Name = 11886654
REMARK  11 active torsions:
REMARK  status: ('A' for Active; 'I' for Inactive)
REMARK    1  A    between atoms: O_3  and  C_13
REMARK    2  A    between atoms: O_3  and  C_18
REMARK    3  A    between atoms: O_5  and  C_19
REMARK    4  A    between atoms: O_5  and  C_30
REMARK    5  A    between atoms: N_6  and  C_12
REMARK    6  A    between atoms: N_9  and  C_21
REMARK    7  A    between atoms: C_17  and  C_19
REMARK    8  A    between atoms: C_20  and  C_22
REMARK    9  A    between atoms: C_20  and  C_23
REMARK   10  A    between atoms: C_20  and  C_24
REMARK   11  A    between atoms: C_20  and  C_25
REMARK                            x       y       z     vdW  Elec       q    Type
REMARK                         _______ _______ _______ _____ _____    ______ ____
ROOT
ATOM      1  O   UNL     1     -11.466  -8.080  14.194  0.00  0.00    -0.368 OA
ATOM      2  O   UNL     1     -11.623  -6.246  16.677  0.00  0.00    -0.368 OA
ATOM     10  C   UNL     1     -11.344  -5.972  15.286  0.00  0.00    +0.177 C 
ATOM     11  C   UNL     1     -10.536  -7.143  14.763  0.00  0.00    +0.192 C 
ATOM     12  C   UNL     1     -12.635  -6.017  14.492  0.00  0.00    +0.166 C 
ATOM     13  C   UNL     1      -9.893  -7.690  16.016  0.00  0.00    +0.235 C 
ATOM     14  C   UNL     1     -12.777  -7.500  14.164  0.00  0.00    +0.190 C 
ATOM     15  C   UNL     1     -10.972  -7.469  17.050  0.00  0.00    +0.207 C 
ENDROOT
BRANCH  12   6
ATOM      6  N   UNL     1     -12.614  -5.118  13.336  0.00  0.00    -0.244 N 
ATOM      7  N   UNL     1     -12.890  -3.815  13.485  0.00  0.00    -0.065 NA
ATOM      8  N   UNL     1     -12.800  -3.258  12.283  0.00  0.00    -0.132 NA
ATOM     16  C   UNL     1     -12.343  -5.436  12.045  0.00  0.00    +0.136 A 
ATOM     17  C   UNL     1     -12.467  -4.238  11.389  0.00  0.00    +0.108 A 
BRANCH  17  19
ATOM     19  C   UNL     1     -12.291  -3.941   9.962  0.00  0.00    +0.218 C 
BRANCH  19   5
ATOM      5  O   UNL     1     -10.956  -3.529   9.642  0.00  0.00    -0.377 OA
ATOM     30  C   UNL     1     -10.280  -4.526   8.896  0.00  0.00    +0.194 C 
ENDBRANCH  19   5
ENDBRANCH  17  19
ENDBRANCH  12   6
BRANCH  13   3
ATOM      3  O   UNL     1      -9.522  -9.045  15.915  0.00  0.00    -0.442 OA
BRANCH   3  18
ATOM      4  O   UNL     1      -7.324  -9.366  16.456  0.00  0.00    -0.226 OA
ATOM      9  N   UNL     1      -8.077  -9.496  14.243  0.00  0.00    -0.251 N 
ATOM     18  C   UNL     1      -8.205  -9.312  15.606  0.00  0.00    +0.405 C 
ATOM     31  H   UNL     1      -8.932  -9.411  13.697  0.00  0.00    +0.158 HD
BRANCH   9  21
ATOM     21  C   UNL     1      -6.904  -9.788  13.511  0.00  0.00    +0.036 A 
ATOM     22  C   UNL     1      -4.604 -10.358  12.074  0.00  0.00    -0.042 A 
ATOM     26  C   UNL     1      -5.433  -9.310  11.675  0.00  0.00    +0.006 A 
ATOM     27  C   UNL     1      -4.931 -11.119  13.197  0.00  0.00    +0.006 A 
ATOM     28  C   UNL     1      -6.591  -9.023  12.398  0.00  0.00    +0.024 A 
ATOM     29  C   UNL     1      -6.090 -10.832  13.919  0.00  0.00    +0.024 A 
BRANCH  22  20
ATOM     20  C   UNL     1      -3.365 -10.666  11.301  0.00  0.00    -0.013 C 
ATOM     23  C   UNL     1      -2.942  -9.458  10.408  0.00  0.00    +0.015 C 
ATOM     24  C   UNL     1      -2.105 -11.008  12.162  0.00  0.00    +0.015 C 
ATOM     25  C   UNL     1      -3.575 -11.894  10.363  0.00  0.00    +0.015 C 
ENDBRANCH  22  20
ENDBRANCH   9  21
ENDBRANCH   3  18
ENDBRANCH  13   3
TORSDOF 7
ENDMDL
