MODEL 1
REMARK VINA RESULT:      -6.4      0.000      0.000
REMARK  Name = 7662948
REMARK  7 active torsions:
REMARK  status: ('A' for Active; 'I' for Inactive)
REMARK    1  A    between atoms: S_1  and  C_22
REMARK    2  A    between atoms: S_1  and  C_28
REMARK    3  A    between atoms: O_4  and  C_30
REMARK    4  A    between atoms: C_16  and  C_21
REMARK    5  A    between atoms: C_18  and  C_22
REMARK    6  A    between atoms: C_25  and  C_29
REMARK    7  A    between atoms: C_28  and  C_30
REMARK                            x       y       z     vdW  Elec       q    Type
REMARK                         _______ _______ _______ _____ _____    ______ ____
ROOT
ATOM      2  O   UNL     1       7.229   9.089   4.247  0.00  0.00    -0.268 OA
ATOM      3  O   UNL     1      11.533  10.004   7.143  0.00  0.00    -0.275 OA
ATOM      6  N   UNL     1      11.340   7.727   6.725  0.00  0.00    -0.300 N 
ATOM      7  N   UNL     1       8.800   7.451   4.827  0.00  0.00    -0.311 N 
ATOM      9  C   UNL     1       9.131   6.710   7.259  0.00  0.00    +0.027 C 
ATOM     10  C   UNL     1      10.517   5.735   5.480  0.00  0.00    +0.054 C 
ATOM     11  C   UNL     1       9.588   5.397   6.645  0.00  0.00    +0.018 C 
ATOM     12  C   UNL     1      10.332   7.526   7.765  0.00  0.00    +0.113 C 
ATOM     13  C   UNL     1       8.318   7.478   6.214  0.00  0.00    +0.130 C 
ATOM     14  C   UNL     1      11.742   6.510   6.009  0.00  0.00    +0.117 C 
ATOM     15  C   UNL     1       9.798   6.551   4.403  0.00  0.00    +0.034 A 
ATOM     16  C   UNL     1      10.106   6.456   3.083  0.00  0.00    +0.002 A 
ATOM     17  C   UNL     1       8.117   8.296   3.934  0.00  0.00    +0.252 A 
ATOM     18  C   UNL     1      11.888   8.995   6.529  0.00  0.00    +0.225 C 
ATOM     19  C   UNL     1       9.425   7.314   2.132  0.00  0.00    +0.015 A 
ATOM     20  C   UNL     1       8.498   8.195   2.506  0.00  0.00    +0.071 A 
ENDROOT
BRANCH  16  21
ATOM     21  C   UNL     1      11.133   5.512   2.588  0.00  0.00    -0.015 A 
ATOM     23  C   UNL     1      12.368   5.994   2.166  0.00  0.00    +0.027 A 
ATOM     24  C   UNL     1      10.856   4.149   2.549  0.00  0.00    +0.008 A 
ATOM     25  C   UNL     1      13.336   5.103   1.700  0.00  0.00    +0.052 A 
ATOM     26  C   UNL     1      11.823   3.259   2.082  0.00  0.00    +0.002 A 
ATOM     27  C   UNL     1      13.063   3.736   1.658  0.00  0.00    +0.019 A 
BRANCH  25  29
ATOM      8  N   UNL     1      15.640   5.986   0.910  0.00  0.00    -0.191 NA
ATOM     29  C   UNL     1      14.607   5.591   1.264  0.00  0.00    +0.099 C 
ENDBRANCH  25  29
ENDBRANCH  16  21
BRANCH  18  22
ATOM     22  C   UNL     1      12.973   9.109   5.489  0.00  0.00    +0.165 C 
BRANCH  22   1
ATOM      1  S   UNL     1      14.519   9.442   6.346  0.00  0.00    -0.140 S 
BRANCH   1  28
ATOM     28  C   UNL     1      15.320   7.836   6.109  0.00  0.00    +0.189 C 
BRANCH  28  30
ATOM      5  O   UNL     1      16.144   8.597   3.977  0.00  0.00    -0.250 OA
ATOM     30  C   UNL     1      15.716   7.683   4.669  0.00  0.00    +0.315 C 
BRANCH  30   4
ATOM      4  O   UNL     1      15.563   6.412   4.216  0.00  0.00    -0.480 OA
ATOM     31  H   UNL     1      15.677   5.753   4.933  0.00  0.00    +0.295 HD
ENDBRANCH  30   4
ENDBRANCH  28  30
ENDBRANCH   1  28
ENDBRANCH  22   1
ENDBRANCH  18  22
TORSDOF 7
ENDMDL
MODEL 2
REMARK VINA RESULT:      -6.1     24.820     27.711
REMARK  Name = 7662948
REMARK  7 active torsions:
REMARK  status: ('A' for Active; 'I' for Inactive)
REMARK    1  A    between atoms: S_1  and  C_22
REMARK    2  A    between atoms: S_1  and  C_28
REMARK    3  A    between atoms: O_4  and  C_30
REMARK    4  A    between atoms: C_16  and  C_21
REMARK    5  A    between atoms: C_18  and  C_22
REMARK    6  A    between atoms: C_25  and  C_29
REMARK    7  A    between atoms: C_28  and  C_30
REMARK                            x       y       z     vdW  Elec       q    Type
REMARK                         _______ _______ _______ _____ _____    ______ ____
ROOT
ATOM      2  O   UNL     1      -1.024 -12.572  13.524  0.00  0.00    -0.268 OA
ATOM      3  O   UNL     1      -5.720 -12.949  11.168  0.00  0.00    -0.275 OA
ATOM      6  N   UNL     1      -5.907 -13.584  13.395  0.00  0.00    -0.300 N 
ATOM      7  N   UNL     1      -3.017 -13.099  14.635  0.00  0.00    -0.311 N 
ATOM      9  C   UNL     1      -4.269 -15.289  14.177  0.00  0.00    +0.027 C 
ATOM     10  C   UNL     1      -5.185 -13.662  15.776  0.00  0.00    +0.054 C 
ATOM     11  C   UNL     1      -4.780 -15.125  15.600  0.00  0.00    +0.018 C 
ATOM     12  C   UNL     1      -5.359 -14.920  13.158  0.00  0.00    +0.113 C 
ATOM     13  C   UNL     1      -3.015 -14.428  14.010  0.00  0.00    +0.130 C 
ATOM     14  C   UNL     1      -6.313 -13.318  14.780  0.00  0.00    +0.117 C 
ATOM     15  C   UNL     1      -3.996 -12.719  15.575  0.00  0.00    +0.034 A 
ATOM     16  C   UNL     1      -3.874 -11.541  16.240  0.00  0.00    +0.002 A 
ATOM     17  C   UNL     1      -1.914 -12.284  14.324  0.00  0.00    +0.252 A 
ATOM     18  C   UNL     1      -6.070 -12.704  12.325  0.00  0.00    +0.225 C 
ATOM     19  C   UNL     1      -2.751 -10.672  15.942  0.00  0.00    +0.015 A 
ATOM     20  C   UNL     1      -1.826 -10.990  15.038  0.00  0.00    +0.071 A 
ENDROOT
BRANCH  16  21
ATOM     21  C   UNL     1      -4.867 -11.109  17.249  0.00  0.00    -0.015 A 
ATOM     23  C   UNL     1      -5.968 -10.354  16.856  0.00  0.00    +0.027 A 
ATOM     24  C   UNL     1      -4.692 -11.460  18.584  0.00  0.00    +0.008 A 
ATOM     25  C   UNL     1      -6.903  -9.947  17.807  0.00  0.00    +0.052 A 
ATOM     26  C   UNL     1      -5.627 -11.053  19.535  0.00  0.00    +0.002 A 
ATOM     27  C   UNL     1      -6.733 -10.297  19.147  0.00  0.00    +0.019 A 
BRANCH  25  29
ATOM      8  N   UNL     1      -8.956  -8.540  17.088  0.00  0.00    -0.191 NA
ATOM     29  C   UNL     1      -8.036  -9.172  17.411  0.00  0.00    +0.099 C 
ENDBRANCH  25  29
ENDBRANCH  16  21
BRANCH  18  22
ATOM     22  C   UNL     1      -6.707 -11.373  12.636  0.00  0.00    +0.165 C 
BRANCH  22   1
ATOM      1  S   UNL     1      -5.880 -10.125  11.639  0.00  0.00    -0.140 S 
BRANCH   1  28
ATOM     28  C   UNL     1      -4.237 -10.208  12.395  0.00  0.00    +0.189 C 
BRANCH  28  30
ATOM      5  O   UNL     1      -2.643  -9.547  10.714  0.00  0.00    -0.250 OA
ATOM     30  C   UNL     1      -3.208 -10.443  11.327  0.00  0.00    +0.315 C 
BRANCH  30   4
ATOM      4  O   UNL     1      -2.958 -11.761  11.123  0.00  0.00    -0.480 OA
ATOM     31  H   UNL     1      -2.773 -12.232  11.963  0.00  0.00    +0.295 HD
ENDBRANCH  30   4
ENDBRANCH  28  30
ENDBRANCH   1  28
ENDBRANCH  22   1
ENDBRANCH  18  22
TORSDOF 7
ENDMDL
MODEL 3
REMARK VINA RESULT:      -5.9     25.011     27.723
REMARK  Name = 7662948
REMARK  7 active torsions:
REMARK  status: ('A' for Active; 'I' for Inactive)
REMARK    1  A    between atoms: S_1  and  C_22
REMARK    2  A    between atoms: S_1  and  C_28
REMARK    3  A    between atoms: O_4  and  C_30
REMARK    4  A    between atoms: C_16  and  C_21
REMARK    5  A    between atoms: C_18  and  C_22
REMARK    6  A    between atoms: C_25  and  C_29
REMARK    7  A    between atoms: C_28  and  C_30
REMARK                            x       y       z     vdW  Elec       q    Type
REMARK                         _______ _______ _______ _____ _____    ______ ____
ROOT
ATOM      2  O   UNL     1      -5.942 -15.300  16.702  0.00  0.00    -0.268 OA
ATOM      3  O   UNL     1      -8.392 -10.697  17.444  0.00  0.00    -0.275 OA
ATOM      6  N   UNL     1      -6.156 -10.321  16.938  0.00  0.00    -0.300 N 
ATOM      7  N   UNL     1      -4.948 -13.208  16.358  0.00  0.00    -0.311 N 
ATOM      9  C   UNL     1      -4.507 -11.596  18.302  0.00  0.00    +0.027 C 
ATOM     10  C   UNL     1      -3.931 -10.935  16.006  0.00  0.00    +0.054 C 
ATOM     11  C   UNL     1      -3.380 -11.074  17.424  0.00  0.00    +0.018 C 
ATOM     12  C   UNL     1      -5.701 -10.626  18.294  0.00  0.00    +0.113 C 
ATOM     13  C   UNL     1      -4.901 -12.990  17.810  0.00  0.00    +0.130 C 
ATOM     14  C   UNL     1      -5.096  -9.923  16.004  0.00  0.00    +0.117 C 
ATOM     15  C   UNL     1      -4.399 -12.282  15.448  0.00  0.00    +0.034 A 
ATOM     16  C   UNL     1      -4.327 -12.593  14.127  0.00  0.00    +0.002 A 
ATOM     17  C   UNL     1      -5.465 -14.450  15.950  0.00  0.00    +0.252 A 
ATOM     18  C   UNL     1      -7.518 -10.358  16.642  0.00  0.00    +0.225 C 
ATOM     19  C   UNL     1      -4.855 -13.864  13.669  0.00  0.00    +0.015 A 
ATOM     20  C   UNL     1      -5.407 -14.747  14.500  0.00  0.00    +0.071 A 
ENDROOT
BRANCH  16  21
ATOM     21  C   UNL     1      -3.743 -11.661  13.137  0.00  0.00    -0.015 A 
ATOM     23  C   UNL     1      -4.573 -10.806  12.419  0.00  0.00    +0.027 A 
ATOM     24  C   UNL     1      -2.367 -11.646  12.932  0.00  0.00    +0.008 A 
ATOM     25  C   UNL     1      -4.021  -9.928  11.486  0.00  0.00    +0.052 A 
ATOM     26  C   UNL     1      -1.815 -10.768  11.999  0.00  0.00    +0.002 A 
ATOM     27  C   UNL     1      -2.642  -9.909  11.276  0.00  0.00    +0.019 A 
BRANCH  25  29
ATOM      8  N   UNL     1      -5.554  -8.332  10.139  0.00  0.00    -0.191 NA
ATOM     29  C   UNL     1      -4.867  -9.048  10.743  0.00  0.00    +0.099 C 
ENDBRANCH  25  29
ENDBRANCH  16  21
BRANCH  18  22
ATOM     22  C   UNL     1      -7.916  -9.962  15.243  0.00  0.00    +0.165 C 
BRANCH  22   1
ATOM      1  S   UNL     1      -9.714  -9.939  15.171  0.00  0.00    -0.140 S 
BRANCH   1  28
ATOM     28  C   UNL     1      -9.983  -8.176  15.478  0.00  0.00    +0.189 C 
BRANCH  28  30
ATOM      5  O   UNL     1     -11.652  -8.072  17.213  0.00  0.00    -0.250 OA
ATOM     30  C   UNL     1     -10.477  -7.983  16.883  0.00  0.00    +0.315 C 
BRANCH  30   4
ATOM      4  O   UNL     1      -9.474  -7.713  17.757  0.00  0.00    -0.480 OA
ATOM     31  H   UNL     1      -9.429  -8.377  18.477  0.00  0.00    +0.295 HD
ENDBRANCH  30   4
ENDBRANCH  28  30
ENDBRANCH   1  28
ENDBRANCH  22   1
ENDBRANCH  18  22
TORSDOF 7
ENDMDL
MODEL 4
REMARK VINA RESULT:      -5.8     24.882     27.502
REMARK  Name = 7662948
REMARK  7 active torsions:
REMARK  status: ('A' for Active; 'I' for Inactive)
REMARK    1  A    between atoms: S_1  and  C_22
REMARK    2  A    between atoms: S_1  and  C_28
REMARK    3  A    between atoms: O_4  and  C_30
REMARK    4  A    between atoms: C_16  and  C_21
REMARK    5  A    between atoms: C_18  and  C_22
REMARK    6  A    between atoms: C_25  and  C_29
REMARK    7  A    between atoms: C_28  and  C_30
REMARK                            x       y       z     vdW  Elec       q    Type
REMARK                         _______ _______ _______ _____ _____    ______ ____
ROOT
ATOM      2  O   UNL     1      -7.287 -14.887  17.115  0.00  0.00    -0.268 OA
ATOM      3  O   UNL     1      -9.572 -10.439  15.461  0.00  0.00    -0.275 OA
ATOM      6  N   UNL     1      -7.541  -9.945  16.477  0.00  0.00    -0.300 N 
ATOM      7  N   UNL     1      -6.283 -12.773  17.216  0.00  0.00    -0.311 N 
ATOM      9  C   UNL     1      -7.196 -10.926  18.740  0.00  0.00    +0.027 C 
ATOM     10  C   UNL     1      -5.255 -10.481  17.301  0.00  0.00    +0.054 C 
ATOM     11  C   UNL     1      -5.763 -10.417  18.740  0.00  0.00    +0.018 C 
ATOM     12  C   UNL     1      -8.084 -10.061  17.831  0.00  0.00    +0.113 C 
ATOM     13  C   UNL     1      -7.191 -12.393  18.306  0.00  0.00    +0.130 C 
ATOM     14  C   UNL     1      -6.124  -9.571  16.408  0.00  0.00    +0.117 C 
ATOM     15  C   UNL     1      -5.262 -11.914  16.762  0.00  0.00    +0.034 A 
ATOM     16  C   UNL     1      -4.351 -12.363  15.859  0.00  0.00    +0.002 A 
ATOM     17  C   UNL     1      -6.424 -14.091  16.743  0.00  0.00    +0.252 A 
ATOM     18  C   UNL     1      -8.382 -10.123  15.378  0.00  0.00    +0.225 C 
ATOM     19  C   UNL     1      -4.468 -13.715  15.347  0.00  0.00    +0.015 A 
ATOM     20  C   UNL     1      -5.439 -14.541  15.734  0.00  0.00    +0.071 A 
ENDROOT
BRANCH  16  21
ATOM     21  C   UNL     1      -3.252 -11.503  15.369  0.00  0.00    -0.015 A 
ATOM     23  C   UNL     1      -3.186 -11.168  14.020  0.00  0.00    +0.027 A 
ATOM     24  C   UNL     1      -2.290 -11.036  16.260  0.00  0.00    +0.008 A 
ATOM     25  C   UNL     1      -2.148 -10.357  13.558  0.00  0.00    +0.052 A 
ATOM     26  C   UNL     1      -1.253 -10.226  15.798  0.00  0.00    +0.002 A 
ATOM     27  C   UNL     1      -1.182  -9.886  14.447  0.00  0.00    +0.019 A 
BRANCH  25  29
ATOM      8  N   UNL     1      -2.014  -9.728  11.048  0.00  0.00    -0.191 NA
ATOM     29  C   UNL     1      -2.074 -10.009  12.174  0.00  0.00    +0.099 C 
ENDBRANCH  25  29
ENDBRANCH  16  21
BRANCH  18  22
ATOM     22  C   UNL     1      -7.768  -9.917  14.017  0.00  0.00    +0.165 C 
BRANCH  22   1
ATOM      1  S   UNL     1      -7.247 -11.526  13.403  0.00  0.00    -0.140 S 
BRANCH   1  28
ATOM     28  C   UNL     1      -7.124 -11.126  11.642  0.00  0.00    +0.189 C 
BRANCH  28  30
ATOM      5  O   UNL     1      -4.923 -11.884  11.019  0.00  0.00    -0.250 OA
ATOM     30  C   UNL     1      -5.679 -10.955  11.269  0.00  0.00    +0.315 C 
BRANCH  30   4
ATOM      4  O   UNL     1      -5.302  -9.652  11.223  0.00  0.00    -0.480 OA
ATOM     31  H   UNL     1      -5.473  -9.192  12.073  0.00  0.00    +0.295 HD
ENDBRANCH  30   4
ENDBRANCH  28  30
ENDBRANCH   1  28
ENDBRANCH  22   1
ENDBRANCH  18  22
TORSDOF 7
ENDMDL
MODEL 5
REMARK VINA RESULT:      -5.8     24.244     26.436
REMARK  Name = 7662948
REMARK  7 active torsions:
REMARK  status: ('A' for Active; 'I' for Inactive)
REMARK    1  A    between atoms: S_1  and  C_22
REMARK    2  A    between atoms: S_1  and  C_28
REMARK    3  A    between atoms: O_4  and  C_30
REMARK    4  A    between atoms: C_16  and  C_21
REMARK    5  A    between atoms: C_18  and  C_22
REMARK    6  A    between atoms: C_25  and  C_29
REMARK    7  A    between atoms: C_28  and  C_30
REMARK                            x       y       z     vdW  Elec       q    Type
REMARK                         _______ _______ _______ _____ _____    ______ ____
ROOT
ATOM      2  O   UNL     1      -1.928 -10.664  16.604  0.00  0.00    -0.268 OA
ATOM      3  O   UNL     1      -4.712 -15.045  15.713  0.00  0.00    -0.275 OA
ATOM      6  N   UNL     1      -5.676 -13.261  14.580  0.00  0.00    -0.300 N 
ATOM      7  N   UNL     1      -3.733 -10.799  15.118  0.00  0.00    -0.311 N 
ATOM      9  C   UNL     1      -6.122 -11.226  15.944  0.00  0.00    +0.027 C 
ATOM     10  C   UNL     1      -5.678 -11.001  13.537  0.00  0.00    +0.054 C 
ATOM     11  C   UNL     1      -6.536 -10.476  14.687  0.00  0.00    +0.018 C 
ATOM     12  C   UNL     1      -6.338 -12.738  15.775  0.00  0.00    +0.113 C 
ATOM     13  C   UNL     1      -4.662 -10.888  16.252  0.00  0.00    +0.130 C 
ATOM     14  C   UNL     1      -5.940 -12.509  13.347  0.00  0.00    +0.117 C 
ATOM     15  C   UNL     1      -4.188 -10.750  13.785  0.00  0.00    +0.034 A 
ATOM     16  C   UNL     1      -3.306 -10.515  12.778  0.00  0.00    +0.002 A 
ATOM     17  C   UNL     1      -2.377 -10.644  15.458  0.00  0.00    +0.252 A 
ATOM     18  C   UNL     1      -4.921 -14.431  14.664  0.00  0.00    +0.225 C 
ATOM     19  C   UNL     1      -1.899 -10.355  13.091  0.00  0.00    +0.015 A 
ATOM     20  C   UNL     1      -1.434 -10.425  14.338  0.00  0.00    +0.071 A 
ENDROOT
BRANCH  16  21
ATOM     21  C   UNL     1      -3.740 -10.436  11.365  0.00  0.00    -0.015 A 
ATOM     23  C   UNL     1      -3.761 -11.588  10.584  0.00  0.00    +0.027 A 
ATOM     24  C   UNL     1      -4.122  -9.211  10.828  0.00  0.00    +0.008 A 
ATOM     25  C   UNL     1      -4.170 -11.513   9.252  0.00  0.00    +0.052 A 
ATOM     26  C   UNL     1      -4.531  -9.136   9.496  0.00  0.00    +0.002 A 
ATOM     27  C   UNL     1      -4.555 -10.287   8.708  0.00  0.00    +0.019 A 
BRANCH  25  29
ATOM      8  N   UNL     1      -4.216 -13.649   7.787  0.00  0.00    -0.191 NA
ATOM     29  C   UNL     1      -4.194 -12.691   8.444  0.00  0.00    +0.099 C 
ENDBRANCH  25  29
ENDBRANCH  16  21
BRANCH  18  22
ATOM     22  C   UNL     1      -4.329 -14.947  13.377  0.00  0.00    +0.165 C 
BRANCH  22   1
ATOM      1  S   UNL     1      -2.676 -14.256  13.220  0.00  0.00    -0.140 S 
BRANCH   1  28
ATOM     28  C   UNL     1      -1.721 -15.687  13.784  0.00  0.00    +0.189 C 
BRANCH  28  30
ATOM      5  O   UNL     1      -0.558 -16.822  12.005  0.00  0.00    -0.250 OA
ATOM     30  C   UNL     1      -0.578 -15.928  12.841  0.00  0.00    +0.315 C 
BRANCH  30   4
ATOM      4  O   UNL     1       0.432 -15.036  13.003  0.00  0.00    -0.480 OA
ATOM     31  H   UNL     1       0.095 -14.135  13.198  0.00  0.00    +0.295 HD
ENDBRANCH  30   4
ENDBRANCH  28  30
ENDBRANCH   1  28
ENDBRANCH  22   1
ENDBRANCH  18  22
TORSDOF 7
ENDMDL
MODEL 6
REMARK VINA RESULT:      -5.7     24.375     26.683
REMARK  Name = 7662948
REMARK  7 active torsions:
REMARK  status: ('A' for Active; 'I' for Inactive)
REMARK    1  A    between atoms: S_1  and  C_22
REMARK    2  A    between atoms: S_1  and  C_28
REMARK    3  A    between atoms: O_4  and  C_30
REMARK    4  A    between atoms: C_16  and  C_21
REMARK    5  A    between atoms: C_18  and  C_22
REMARK    6  A    between atoms: C_25  and  C_29
REMARK    7  A    between atoms: C_28  and  C_30
REMARK                            x       y       z     vdW  Elec       q    Type
REMARK                         _______ _______ _______ _____ _____    ______ ____
ROOT
ATOM      2  O   UNL     1      -2.048 -15.181  12.884  0.00  0.00    -0.268 OA
ATOM      3  O   UNL     1      -5.267 -13.055  16.471  0.00  0.00    -0.275 OA
ATOM      6  N   UNL     1      -4.288 -11.373  15.202  0.00  0.00    -0.300 N 
ATOM      7  N   UNL     1      -2.553 -12.898  13.013  0.00  0.00    -0.311 N 
ATOM      9  C   UNL     1      -1.807 -11.468  15.006  0.00  0.00    +0.027 C 
ATOM     10  C   UNL     1      -3.130 -10.457  13.198  0.00  0.00    +0.054 C 
ATOM     11  C   UNL     1      -1.843 -10.319  14.011  0.00  0.00    +0.018 C 
ATOM     12  C   UNL     1      -3.026 -11.421  15.941  0.00  0.00    +0.113 C 
ATOM     13  C   UNL     1      -1.735 -12.784  14.228  0.00  0.00    +0.130 C 
ATOM     14  C   UNL     1      -4.347 -10.359  14.143  0.00  0.00    +0.117 C 
ATOM     15  C   UNL     1      -3.168 -11.776  12.421  0.00  0.00    +0.034 A 
ATOM     16  C   UNL     1      -3.787 -11.901  11.218  0.00  0.00    +0.002 A 
ATOM     17  C   UNL     1      -2.579 -14.172  12.419  0.00  0.00    +0.252 A 
ATOM     18  C   UNL     1      -5.340 -12.209  15.576  0.00  0.00    +0.225 C 
ATOM     19  C   UNL     1      -3.837 -13.201  10.578  0.00  0.00    +0.015 A 
ATOM     20  C   UNL     1      -3.291 -14.286  11.126  0.00  0.00    +0.071 A 
ENDROOT
BRANCH  16  21
ATOM     21  C   UNL     1      -4.430 -10.748  10.550  0.00  0.00    -0.015 A 
ATOM     23  C   UNL     1      -5.802 -10.551  10.678  0.00  0.00    +0.027 A 
ATOM     24  C   UNL     1      -3.658  -9.868   9.797  0.00  0.00    +0.008 A 
ATOM     25  C   UNL     1      -6.407  -9.464  10.047  0.00  0.00    +0.052 A 
ATOM     26  C   UNL     1      -4.264  -8.781   9.166  0.00  0.00    +0.002 A 
ATOM     27  C   UNL     1      -5.638  -8.578   9.291  0.00  0.00    +0.019 A 
BRANCH  25  29
ATOM      8  N   UNL     1      -8.960  -9.086  10.276  0.00  0.00    -0.191 NA
ATOM     29  C   UNL     1      -7.815  -9.255  10.175  0.00  0.00    +0.099 C 
ENDBRANCH  25  29
ENDBRANCH  16  21
BRANCH  18  22
ATOM     22  C   UNL     1      -6.631 -12.052  14.815  0.00  0.00    +0.165 C 
BRANCH  22   1
ATOM      1  S   UNL     1      -7.897 -11.539  15.985  0.00  0.00    -0.140 S 
BRANCH   1  28
ATOM     28  C   UNL     1      -7.493  -9.777  16.078  0.00  0.00    +0.189 C 
BRANCH  28  30
ATOM      5  O   UNL     1      -9.110  -8.440  17.263  0.00  0.00    -0.250 OA
ATOM     30  C   UNL     1      -8.136  -9.181  17.296  0.00  0.00    +0.315 C 
BRANCH  30   4
ATOM      4  O   UNL     1      -7.531  -9.564  18.449  0.00  0.00    -0.480 OA
ATOM     31  H   UNL     1      -8.157 -10.005  19.062  0.00  0.00    +0.295 HD
ENDBRANCH  30   4
ENDBRANCH  28  30
ENDBRANCH   1  28
ENDBRANCH  22   1
ENDBRANCH  18  22
TORSDOF 7
ENDMDL
MODEL 7
REMARK VINA RESULT:      -5.4     27.155     29.933
REMARK  Name = 7662948
REMARK  7 active torsions:
REMARK  status: ('A' for Active; 'I' for Inactive)
REMARK    1  A    between atoms: S_1  and  C_22
REMARK    2  A    between atoms: S_1  and  C_28
REMARK    3  A    between atoms: O_4  and  C_30
REMARK    4  A    between atoms: C_16  and  C_21
REMARK    5  A    between atoms: C_18  and  C_22
REMARK    6  A    between atoms: C_25  and  C_29
REMARK    7  A    between atoms: C_28  and  C_30
REMARK                            x       y       z     vdW  Elec       q    Type
REMARK                         _______ _______ _______ _____ _____    ______ ____
ROOT
ATOM      2  O   UNL     1     -10.902  -8.480  15.461  0.00  0.00    -0.268 OA
ATOM      3  O   UNL     1     -11.708 -13.618  16.300  0.00  0.00    -0.275 OA
ATOM      6  N   UNL     1      -9.575 -13.290  15.440  0.00  0.00    -0.300 N 
ATOM      7  N   UNL     1      -9.263 -10.132  15.196  0.00  0.00    -0.311 N 
ATOM      9  C   UNL     1      -9.442 -11.918  13.366  0.00  0.00    +0.027 C 
ATOM     10  C   UNL     1      -7.543 -11.947  14.926  0.00  0.00    +0.054 C 
ATOM     11  C   UNL     1      -7.924 -11.946  13.446  0.00  0.00    +0.018 C 
ATOM     12  C   UNL     1     -10.050 -13.145  14.064  0.00  0.00    +0.113 C 
ATOM     13  C   UNL     1      -9.937 -10.607  13.980  0.00  0.00    +0.130 C 
ATOM     14  C   UNL     1      -8.119 -13.208  15.604  0.00  0.00    +0.117 C 
ATOM     15  C   UNL     1      -8.045 -10.687  15.638  0.00  0.00    +0.034 A 
ATOM     16  C   UNL     1      -7.380 -10.118  16.678  0.00  0.00    +0.002 A 
ATOM     17  C   UNL     1      -9.850  -9.014  15.814  0.00  0.00    +0.252 A 
ATOM     18  C   UNL     1     -10.487 -13.554  16.462  0.00  0.00    +0.225 C 
ATOM     19  C   UNL     1      -7.958  -8.966  17.343  0.00  0.00    +0.015 A 
ATOM     20  C   UNL     1      -9.122  -8.436  16.967  0.00  0.00    +0.071 A 
ENDROOT
BRANCH  16  21
ATOM     21  C   UNL     1      -6.090 -10.655  17.164  0.00  0.00    -0.015 A 
ATOM     23  C   UNL     1      -4.921 -10.391  16.458  0.00  0.00    +0.027 A 
ATOM     24  C   UNL     1      -6.056 -11.420  18.326  0.00  0.00    +0.008 A 
ATOM     25  C   UNL     1      -3.705 -10.898  16.917  0.00  0.00    +0.052 A 
ATOM     26  C   UNL     1      -4.840 -11.927  18.785  0.00  0.00    +0.002 A 
ATOM     27  C   UNL     1      -3.664 -11.665  18.081  0.00  0.00    +0.019 A 
BRANCH  25  29
ATOM      8  N   UNL     1      -1.520 -10.414  15.612  0.00  0.00    -0.191 NA
ATOM     29  C   UNL     1      -2.500 -10.631  16.196  0.00  0.00    +0.099 C 
ENDBRANCH  25  29
ENDBRANCH  16  21
BRANCH  18  22
ATOM     22  C   UNL     1      -9.915 -13.762  17.841  0.00  0.00    +0.165 C 
BRANCH  22   1
ATOM      1  S   UNL     1     -11.092 -13.097  19.027  0.00  0.00    -0.140 S 
BRANCH   1  28
ATOM     28  C   UNL     1     -10.718 -11.336  18.835  0.00  0.00    +0.189 C 
BRANCH  28  30
ATOM      5  O   UNL     1      -8.634 -11.287  20.045  0.00  0.00    -0.250 OA
ATOM     30  C   UNL     1      -9.790 -10.901  19.933  0.00  0.00    +0.315 C 
BRANCH  30   4
ATOM      4  O   UNL     1     -10.367 -10.016  20.785  0.00  0.00    -0.480 OA
ATOM     31  H   UNL     1     -10.585  -9.169  20.341  0.00  0.00    +0.295 HD
ENDBRANCH  30   4
ENDBRANCH  28  30
ENDBRANCH   1  28
ENDBRANCH  22   1
ENDBRANCH  18  22
TORSDOF 7
ENDMDL
MODEL 8
REMARK VINA RESULT:      -5.4     23.385     25.610
REMARK  Name = 7662948
REMARK  7 active torsions:
REMARK  status: ('A' for Active; 'I' for Inactive)
REMARK    1  A    between atoms: S_1  and  C_22
REMARK    2  A    between atoms: S_1  and  C_28
REMARK    3  A    between atoms: O_4  and  C_30
REMARK    4  A    between atoms: C_16  and  C_21
REMARK    5  A    between atoms: C_18  and  C_22
REMARK    6  A    between atoms: C_25  and  C_29
REMARK    7  A    between atoms: C_28  and  C_30
REMARK                            x       y       z     vdW  Elec       q    Type
REMARK                         _______ _______ _______ _____ _____    ______ ____
ROOT
ATOM      2  O   UNL     1      19.747  -5.053  21.412  0.00  0.00    -0.268 OA
ATOM      3  O   UNL     1      20.786  -1.304  24.963  0.00  0.00    -0.275 OA
ATOM      6  N   UNL     1      18.570  -1.975  25.158  0.00  0.00    -0.300 N 
ATOM      7  N   UNL     1      18.241  -4.345  23.060  0.00  0.00    -0.311 N 
ATOM      9  C   UNL     1      17.251  -1.980  23.046  0.00  0.00    +0.027 C 
ATOM     10  C   UNL     1      16.664  -3.545  24.848  0.00  0.00    +0.054 C 
ATOM     11  C   UNL     1      16.083  -2.621  23.779  0.00  0.00    +0.018 C 
ATOM     12  C   UNL     1      18.130  -1.174  24.016  0.00  0.00    +0.113 C 
ATOM     13  C   UNL     1      18.043  -3.081  22.338  0.00  0.00    +0.130 C 
ATOM     14  C   UNL     1      17.504  -2.716  25.842  0.00  0.00    +0.117 C 
ATOM     15  C   UNL     1      17.519  -4.655  24.230  0.00  0.00    +0.034 A 
ATOM     16  C   UNL     1      17.621  -5.894  24.779  0.00  0.00    +0.002 A 
ATOM     17  C   UNL     1      19.105  -5.266  22.440  0.00  0.00    +0.252 A 
ATOM     18  C   UNL     1      19.907  -1.935  25.555  0.00  0.00    +0.225 C 
ATOM     19  C   UNL     1      18.506  -6.869  24.170  0.00  0.00    +0.015 A 
ATOM     20  C   UNL     1      19.224  -6.595  23.081  0.00  0.00    +0.071 A 
ENDROOT
BRANCH  16  21
ATOM     21  C   UNL     1      16.868  -6.271  25.996  0.00  0.00    -0.015 A 
ATOM     23  C   UNL     1      17.281  -5.800  27.238  0.00  0.00    +0.027 A 
ATOM     24  C   UNL     1      15.752  -7.095  25.889  0.00  0.00    +0.008 A 
ATOM     25  C   UNL     1      16.571  -6.157  28.385  0.00  0.00    +0.052 A 
ATOM     26  C   UNL     1      15.042  -7.452  27.035  0.00  0.00    +0.002 A 
ATOM     27  C   UNL     1      15.451  -6.982  28.283  0.00  0.00    +0.019 A 
BRANCH  25  29
ATOM      8  N   UNL     1      17.329  -5.287  30.705  0.00  0.00    -0.191 NA
ATOM     29  C   UNL     1      16.990  -5.677  29.664  0.00  0.00    +0.099 C 
ENDBRANCH  25  29
ENDBRANCH  16  21
BRANCH  18  22
ATOM     22  C   UNL     1      20.270  -2.730  26.784  0.00  0.00    +0.165 C 
BRANCH  22   1
ATOM      1  S   UNL     1      20.341  -1.589  28.172  0.00  0.00    -0.140 S 
BRANCH   1  28
ATOM     28  C   UNL     1      19.498  -2.604  29.411  0.00  0.00    +0.189 C 
BRANCH  28  30
ATOM      5  O   UNL     1      18.392  -0.951  30.772  0.00  0.00    -0.250 OA
ATOM     30  C   UNL     1      18.314  -1.854  29.949  0.00  0.00    +0.315 C 
BRANCH  30   4
ATOM      4  O   UNL     1      17.141  -2.275  29.413  0.00  0.00    -0.480 OA
ATOM     31  H   UNL     1      16.883  -3.161  29.747  0.00  0.00    +0.295 HD
ENDBRANCH  30   4
ENDBRANCH  28  30
ENDBRANCH   1  28
ENDBRANCH  22   1
ENDBRANCH  18  22
TORSDOF 7
ENDMDL
MODEL 9
REMARK VINA RESULT:      -5.3      2.717      5.984
REMARK  Name = 7662948
REMARK  7 active torsions:
REMARK  status: ('A' for Active; 'I' for Inactive)
REMARK    1  A    between atoms: S_1  and  C_22
REMARK    2  A    between atoms: S_1  and  C_28
REMARK    3  A    between atoms: O_4  and  C_30
REMARK    4  A    between atoms: C_16  and  C_21
REMARK    5  A    between atoms: C_18  and  C_22
REMARK    6  A    between atoms: C_25  and  C_29
REMARK    7  A    between atoms: C_28  and  C_30
REMARK                            x       y       z     vdW  Elec       q    Type
REMARK                         _______ _______ _______ _____ _____    ______ ____
ROOT
ATOM      2  O   UNL     1      13.965   6.604   7.232  0.00  0.00    -0.268 OA
ATOM      3  O   UNL     1      10.547   4.438   3.860  0.00  0.00    -0.275 OA
ATOM      6  N   UNL     1       9.420   5.855   5.316  0.00  0.00    -0.300 N 
ATOM      7  N   UNL     1      11.695   7.168   7.112  0.00  0.00    -0.311 N 
ATOM      9  C   UNL     1       9.861   5.491   7.740  0.00  0.00    +0.027 C 
ATOM     10  C   UNL     1       9.251   7.733   6.940  0.00  0.00    +0.054 C 
ATOM     11  C   UNL     1       9.044   6.729   8.073  0.00  0.00    +0.018 C 
ATOM     12  C   UNL     1       9.407   4.878   6.405  0.00  0.00    +0.113 C 
ATOM     13  C   UNL     1      11.341   5.877   7.717  0.00  0.00    +0.130 C 
ATOM     14  C   UNL     1       8.747   7.124   5.615  0.00  0.00    +0.117 C 
ATOM     15  C   UNL     1      10.721   8.141   6.810  0.00  0.00    +0.034 A 
ATOM     16  C   UNL     1      11.106   9.376   6.394  0.00  0.00    +0.002 A 
ATOM     17  C   UNL     1      13.073   7.411   6.969  0.00  0.00    +0.252 A 
ATOM     18  C   UNL     1       9.986   5.512   4.088  0.00  0.00    +0.225 C 
ATOM     19  C   UNL     1      12.518   9.661   6.231  0.00  0.00    +0.015 A 
ATOM     20  C   UNL     1      13.461   8.753   6.481  0.00  0.00    +0.071 A 
ENDROOT
BRANCH  16  21
ATOM     21  C   UNL     1      10.120  10.435   6.083  0.00  0.00    -0.015 A 
ATOM     23  C   UNL     1       9.622  10.558   4.789  0.00  0.00    +0.027 A 
ATOM     24  C   UNL     1       9.698  11.301   7.087  0.00  0.00    +0.008 A 
ATOM     25  C   UNL     1       8.694  11.557   4.496  0.00  0.00    +0.052 A 
ATOM     26  C   UNL     1       8.769  12.300   6.794  0.00  0.00    +0.002 A 
ATOM     27  C   UNL     1       8.266  12.428   5.499  0.00  0.00    +0.019 A 
BRANCH  25  29
ATOM      8  N   UNL     1       7.761  11.796   2.091  0.00  0.00    -0.191 NA
ATOM     29  C   UNL     1       8.179  11.689   3.170  0.00  0.00    +0.099 C 
ENDBRANCH  25  29
ENDBRANCH  16  21
BRANCH  18  22
ATOM     22  C   UNL     1       9.897   6.544   2.992  0.00  0.00    +0.165 C 
BRANCH  22   1
ATOM      1  S   UNL     1      11.445   7.460   2.977  0.00  0.00    -0.140 S 
BRANCH   1  28
ATOM     28  C   UNL     1      12.240   6.640   1.572  0.00  0.00    +0.189 C 
BRANCH  28  30
ATOM      5  O   UNL     1      14.521   6.194   2.209  0.00  0.00    -0.250 OA
ATOM     30  C   UNL     1      13.374   5.790   2.067  0.00  0.00    +0.315 C 
BRANCH  30   4
ATOM      4  O   UNL     1      12.990   4.521   2.355  0.00  0.00    -0.480 OA
ATOM     31  H   UNL     1      13.531   3.857   1.877  0.00  0.00    +0.295 HD
ENDBRANCH  30   4
ENDBRANCH  28  30
ENDBRANCH   1  28
ENDBRANCH  22   1
ENDBRANCH  18  22
TORSDOF 7
ENDMDL
MODEL 10
REMARK VINA RESULT:      -5.2     23.198     25.381
REMARK  Name = 7662948
REMARK  7 active torsions:
REMARK  status: ('A' for Active; 'I' for Inactive)
REMARK    1  A    between atoms: S_1  and  C_22
REMARK    2  A    between atoms: S_1  and  C_28
REMARK    3  A    between atoms: O_4  and  C_30
REMARK    4  A    between atoms: C_16  and  C_21
REMARK    5  A    between atoms: C_18  and  C_22
REMARK    6  A    between atoms: C_25  and  C_29
REMARK    7  A    between atoms: C_28  and  C_30
REMARK                            x       y       z     vdW  Elec       q    Type
REMARK                         _______ _______ _______ _____ _____    ______ ____
ROOT
ATOM      2  O   UNL     1      19.801  -5.077  21.707  0.00  0.00    -0.268 OA
ATOM      3  O   UNL     1      20.481  -0.884  24.822  0.00  0.00    -0.275 OA
ATOM      6  N   UNL     1      18.318  -1.697  25.064  0.00  0.00    -0.300 N 
ATOM      7  N   UNL     1      18.211  -4.306  23.245  0.00  0.00    -0.311 N 
ATOM      9  C   UNL     1      17.047  -2.041  22.950  0.00  0.00    +0.027 C 
ATOM     10  C   UNL     1      16.542  -3.434  24.910  0.00  0.00    +0.054 C 
ATOM     11  C   UNL     1      15.915  -2.683  23.737  0.00  0.00    +0.018 C 
ATOM     12  C   UNL     1      17.842  -1.065  23.833  0.00  0.00    +0.113 C 
ATOM     13  C   UNL     1      17.934  -3.150  22.381  0.00  0.00    +0.130 C 
ATOM     14  C   UNL     1      17.296  -2.436  25.814  0.00  0.00    +0.117 C 
ATOM     15  C   UNL     1      17.490  -4.537  24.434  0.00  0.00    +0.034 A 
ATOM     16  C   UNL     1      17.674  -5.695  25.121  0.00  0.00    +0.002 A 
ATOM     17  C   UNL     1      19.155  -5.221  22.745  0.00  0.00    +0.252 A 
ATOM     18  C   UNL     1      19.639  -1.510  25.470  0.00  0.00    +0.225 C 
ATOM     19  C   UNL     1      18.641  -6.661  24.637  0.00  0.00    +0.015 A 
ATOM     20  C   UNL     1      19.360  -6.457  23.534  0.00  0.00    +0.071 A 
ENDROOT
BRANCH  16  21
ATOM     21  C   UNL     1      16.926  -5.990  26.363  0.00  0.00    -0.015 A 
ATOM     23  C   UNL     1      17.405  -5.527  27.585  0.00  0.00    +0.027 A 
ATOM     24  C   UNL     1      15.748  -6.729  26.301  0.00  0.00    +0.008 A 
ATOM     25  C   UNL     1      16.700  -5.806  28.756  0.00  0.00    +0.052 A 
ATOM     26  C   UNL     1      15.043  -7.008  27.472  0.00  0.00    +0.002 A 
ATOM     27  C   UNL     1      15.518  -6.546  28.699  0.00  0.00    +0.019 A 
BRANCH  25  29
ATOM      8  N   UNL     1      17.581  -4.950  31.037  0.00  0.00    -0.191 NA
ATOM     29  C   UNL     1      17.186  -5.335  30.014  0.00  0.00    +0.099 C 
ENDBRANCH  25  29
ENDBRANCH  16  21
BRANCH  18  22
ATOM     22  C   UNL     1      20.035  -2.131  26.786  0.00  0.00    +0.165 C 
BRANCH  22   1
ATOM      1  S   UNL     1      21.095  -0.960  27.646  0.00  0.00    -0.140 S 
BRANCH   1  28
ATOM     28  C   UNL     1      22.560  -2.005  27.846  0.00  0.00    +0.189 C 
BRANCH  28  30
ATOM      5  O   UNL     1      23.344  -3.499  26.126  0.00  0.00    -0.250 OA
ATOM     30  C   UNL     1      23.112  -2.355  26.495  0.00  0.00    +0.315 C 
BRANCH  30   4
ATOM      4  O   UNL     1      23.314  -1.264  25.713  0.00  0.00    -0.480 OA
ATOM     31  H   UNL     1      23.822  -1.484  24.903  0.00  0.00    +0.295 HD
ENDBRANCH  30   4
ENDBRANCH  28  30
ENDBRANCH   1  28
ENDBRANCH  22   1
ENDBRANCH  18  22
TORSDOF 7
ENDMDL
