MODEL 1
REMARK VINA RESULT:      -8.0      0.000      0.000
REMARK  Name = 7156241
REMARK  4 active torsions:
REMARK  status: ('A' for Active; 'I' for Inactive)
REMARK    1  A    between atoms: N_6  and  C_19
REMARK    2  A    between atoms: N_7  and  C_28
REMARK    3  A    between atoms: C_18  and  C_21
REMARK    4  A    between atoms: C_31  and  C_34
REMARK                            x       y       z     vdW  Elec       q    Type
REMARK                         _______ _______ _______ _____ _____    ______ ____
ROOT
ATOM      1  O   UNL     1      15.428   5.941  20.872  0.00  0.00    -0.266 OA
ATOM      2  O   UNL     1      11.613   7.335  17.668  0.00  0.00    -0.270 OA
ATOM      4  N   UNL     1      11.724   8.931  19.376  0.00  0.00    -0.297 N 
ATOM      5  N   UNL     1      14.221   7.934  21.058  0.00  0.00    -0.310 N 
ATOM      9  C   UNL     1      11.738   7.996  21.682  0.00  0.00    +0.027 C 
ATOM     10  C   UNL     1      12.934  10.095  21.207  0.00  0.00    +0.054 C 
ATOM     11  C   UNL     1      12.057   9.382  22.234  0.00  0.00    +0.018 C 
ATOM     12  C   UNL     1      10.992   8.112  20.341  0.00  0.00    +0.113 C 
ATOM     13  C   UNL     1      13.045   7.204  21.550  0.00  0.00    +0.130 C 
ATOM     14  C   UNL     1      12.161  10.244  19.881  0.00  0.00    +0.117 C 
ATOM     15  C   UNL     1      14.222   9.329  20.964  0.00  0.00    +0.027 A 
ATOM     16  C   UNL     1      15.344   9.985  20.623  0.00  0.00    +0.024 A 
ATOM     17  C   UNL     1      15.374   7.169  20.787  0.00  0.00    +0.273 A 
ATOM     18  C   UNL     1      11.974   8.431  18.096  0.00  0.00    +0.247 C 
ATOM     19  C   UNL     1      16.596   7.935  20.384  0.00  0.00    +0.100 A 
ATOM     20  C   UNL     1      16.554   9.271  20.326  0.00  0.00    +0.030 A 
ENDROOT
BRANCH  19   6
ATOM      3  O   UNL     1      18.870   7.648  22.068  0.00  0.00    -0.252 OA
ATOM      6  N   UNL     1      17.727   7.229  20.094  0.00  0.00    -0.265 N 
ATOM      7  N   UNL     1      19.819   6.330  20.373  0.00  0.00    -0.269 N 
ATOM     24  C   UNL     1      18.823   7.117  20.959  0.00  0.00    +0.308 C 
ATOM     35  H   UNL     1      17.878   6.982  19.120  0.00  0.00    +0.157 HD
ATOM     36  H   UNL     1      19.621   5.960  19.447  0.00  0.00    +0.156 HD
BRANCH   7  28
ATOM     28  C   UNL     1      21.077   5.975  20.915  0.00  0.00    +0.036 A 
ATOM     29  C   UNL     1      21.149   4.965  21.859  0.00  0.00    +0.042 A 
ATOM     30  C   UNL     1      22.212   6.645  20.488  0.00  0.00    +0.023 A 
ATOM     31  C   UNL     1      22.390   4.616  22.394  0.00  0.00    +0.054 A 
ATOM     32  C   UNL     1      23.452   6.297  21.022  0.00  0.00    +0.003 A 
ATOM     33  C   UNL     1      23.541   5.282  21.974  0.00  0.00    +0.019 A 
BRANCH  31  34
ATOM      8  N   UNL     1      22.555   2.731  24.163  0.00  0.00    -0.191 NA
ATOM     34  C   UNL     1      22.481   3.576  23.370  0.00  0.00    +0.099 C 
ENDBRANCH  31  34
ENDBRANCH   7  28
ENDBRANCH  19   6
BRANCH  18  21
ATOM     21  C   UNL     1      12.752   9.263  17.172  0.00  0.00    +0.037 A 
ATOM     22  C   UNL     1      14.027   9.691  17.530  0.00  0.00    +0.013 A 
ATOM     23  C   UNL     1      12.209   9.621  15.941  0.00  0.00    +0.013 A 
ATOM     25  C   UNL     1      14.766  10.482  16.651  0.00  0.00    +0.001 A 
ATOM     26  C   UNL     1      12.948  10.413  15.061  0.00  0.00    +0.001 A 
ATOM     27  C   UNL     1      14.226  10.844  15.416  0.00  0.00    +0.000 A 
ENDBRANCH  18  21
TORSDOF 4
ENDMDL
MODEL 2
REMARK VINA RESULT:      -8.0      1.959      2.470
REMARK  Name = 7156241
REMARK  4 active torsions:
REMARK  status: ('A' for Active; 'I' for Inactive)
REMARK    1  A    between atoms: N_6  and  C_19
REMARK    2  A    between atoms: N_7  and  C_28
REMARK    3  A    between atoms: C_18  and  C_21
REMARK    4  A    between atoms: C_31  and  C_34
REMARK                            x       y       z     vdW  Elec       q    Type
REMARK                         _______ _______ _______ _____ _____    ______ ____
ROOT
ATOM      1  O   UNL     1      15.619   5.929  19.229  0.00  0.00    -0.266 OA
ATOM      2  O   UNL     1      12.760   9.815  17.364  0.00  0.00    -0.270 OA
ATOM      4  N   UNL     1      12.394   9.709  19.672  0.00  0.00    -0.297 N 
ATOM      5  N   UNL     1      14.375   7.396  20.556  0.00  0.00    -0.310 N 
ATOM      9  C   UNL     1      11.814   7.448  20.536  0.00  0.00    +0.027 C 
ATOM     10  C   UNL     1      13.060   9.020  21.964  0.00  0.00    +0.054 C 
ATOM     11  C   UNL     1      11.955   7.966  21.964  0.00  0.00    +0.018 C 
ATOM     12  C   UNL     1      11.446   8.599  19.582  0.00  0.00    +0.113 C 
ATOM     13  C   UNL     1      13.122   6.757  20.130  0.00  0.00    +0.130 C 
ATOM     14  C   UNL     1      12.661  10.188  21.039  0.00  0.00    +0.117 C 
ATOM     15  C   UNL     1      14.378   8.428  21.499  0.00  0.00    +0.027 A 
ATOM     16  C   UNL     1      15.541   8.920  21.962  0.00  0.00    +0.024 A 
ATOM     17  C   UNL     1      15.570   6.848  20.047  0.00  0.00    +0.273 A 
ATOM     18  C   UNL     1      12.979  10.211  18.508  0.00  0.00    +0.247 C 
ATOM     19  C   UNL     1      16.843   7.442  20.567  0.00  0.00    +0.100 A 
ATOM     20  C   UNL     1      16.797   8.415  21.484  0.00  0.00    +0.030 A 
ENDROOT
BRANCH  19   6
ATOM      3  O   UNL     1      18.886   6.181  22.094  0.00  0.00    -0.252 OA
ATOM      6  N   UNL     1      18.021   6.952  20.084  0.00  0.00    -0.265 N 
ATOM      7  N   UNL     1      20.083   5.946  20.089  0.00  0.00    -0.269 N 
ATOM     24  C   UNL     1      18.998   6.338  20.879  0.00  0.00    +0.308 C 
ATOM     35  H   UNL     1      18.305   7.265  19.160  0.00  0.00    +0.157 HD
ATOM     36  H   UNL     1      20.018   6.147  19.094  0.00  0.00    +0.156 HD
BRANCH   7  28
ATOM     28  C   UNL     1      21.270   5.296  20.503  0.00  0.00    +0.036 A 
ATOM     29  C   UNL     1      22.452   6.015  20.564  0.00  0.00    +0.042 A 
ATOM     30  C   UNL     1      21.224   3.953  20.839  0.00  0.00    +0.023 A 
ATOM     31  C   UNL     1      23.622   5.372  20.972  0.00  0.00    +0.054 A 
ATOM     32  C   UNL     1      22.393   3.311  21.246  0.00  0.00    +0.003 A 
ATOM     33  C   UNL     1      23.591   4.020  21.313  0.00  0.00    +0.019 A 
BRANCH  31  34
ATOM      8  N   UNL     1      25.848   6.692  21.095  0.00  0.00    -0.191 NA
ATOM     34  C   UNL     1      24.850   6.100  21.040  0.00  0.00    +0.099 C 
ENDBRANCH  31  34
ENDBRANCH   7  28
ENDBRANCH  19   6
BRANCH  18  21
ATOM     21  C   UNL     1      13.959  11.294  18.643  0.00  0.00    +0.037 A 
ATOM     22  C   UNL     1      15.300  10.992  18.864  0.00  0.00    +0.013 A 
ATOM     23  C   UNL     1      13.543  12.619  18.550  0.00  0.00    +0.013 A 
ATOM     25  C   UNL     1      16.232  12.021  18.992  0.00  0.00    +0.001 A 
ATOM     26  C   UNL     1      14.475  13.650  18.679  0.00  0.00    +0.001 A 
ATOM     27  C   UNL     1      15.819  13.351  18.900  0.00  0.00    +0.000 A 
ENDBRANCH  18  21
TORSDOF 4
ENDMDL
MODEL 3
REMARK VINA RESULT:      -7.8      3.910      9.134
REMARK  Name = 7156241
REMARK  4 active torsions:
REMARK  status: ('A' for Active; 'I' for Inactive)
REMARK    1  A    between atoms: N_6  and  C_19
REMARK    2  A    between atoms: N_7  and  C_28
REMARK    3  A    between atoms: C_18  and  C_21
REMARK    4  A    between atoms: C_31  and  C_34
REMARK                            x       y       z     vdW  Elec       q    Type
REMARK                         _______ _______ _______ _____ _____    ______ ____
ROOT
ATOM      1  O   UNL     1      13.738  11.837  18.220  0.00  0.00    -0.266 OA
ATOM      2  O   UNL     1      15.663   9.156  22.203  0.00  0.00    -0.270 OA
ATOM      4  N   UNL     1      13.799   7.993  21.399  0.00  0.00    -0.297 N 
ATOM      5  N   UNL     1      12.949   9.744  18.895  0.00  0.00    -0.310 N 
ATOM      9  C   UNL     1      11.745   9.371  21.125  0.00  0.00    +0.027 C 
ATOM     10  C   UNL     1      12.150   7.466  19.618  0.00  0.00    +0.054 C 
ATOM     11  C   UNL     1      11.071   8.209  20.404  0.00  0.00    +0.018 C 
ATOM     12  C   UNL     1      12.831   8.850  22.083  0.00  0.00    +0.113 C 
ATOM     13  C   UNL     1      12.313  10.338  20.079  0.00  0.00    +0.130 C 
ATOM     14  C   UNL     1      13.209   6.912  20.592  0.00  0.00    +0.117 C 
ATOM     15  C   UNL     1      12.815   8.382  18.607  0.00  0.00    +0.027 A 
ATOM     16  C   UNL     1      13.305   7.880  17.461  0.00  0.00    +0.024 A 
ATOM     17  C   UNL     1      13.609  10.629  18.018  0.00  0.00    +0.273 A 
ATOM     18  C   UNL     1      15.164   8.254  21.530  0.00  0.00    +0.247 C 
ATOM     19  C   UNL     1      14.165  10.026  16.765  0.00  0.00    +0.100 A 
ATOM     20  C   UNL     1      13.995   8.722  16.524  0.00  0.00    +0.030 A 
ENDROOT
BRANCH  19   6
ATOM      3  O   UNL     1      13.115  11.126  14.362  0.00  0.00    -0.252 OA
ATOM      6  N   UNL     1      14.828  10.846  15.900  0.00  0.00    -0.265 N 
ATOM      7  N   UNL     1      15.197  12.167  14.061  0.00  0.00    -0.269 N 
ATOM     24  C   UNL     1      14.265  11.363  14.726  0.00  0.00    +0.308 C 
ATOM     35  H   UNL     1      15.840  10.883  15.984  0.00  0.00    +0.157 HD
ATOM     36  H   UNL     1      16.109  12.265  14.500  0.00  0.00    +0.156 HD
BRANCH   7  28
ATOM     28  C   UNL     1      15.026  12.872  12.845  0.00  0.00    +0.036 A 
ATOM     29  C   UNL     1      15.667  12.420  11.704  0.00  0.00    +0.042 A 
ATOM     30  C   UNL     1      14.221  13.998  12.823  0.00  0.00    +0.023 A 
ATOM     31  C   UNL     1      15.499  13.115  10.506  0.00  0.00    +0.054 A 
ATOM     32  C   UNL     1      14.052  14.693  11.625  0.00  0.00    +0.003 A 
ATOM     33  C   UNL     1      14.691  14.251  10.467  0.00  0.00    +0.019 A 
BRANCH  31  34
ATOM      8  N   UNL     1      16.684  12.294   8.353  0.00  0.00    -0.191 NA
ATOM     34  C   UNL     1      16.153  12.662   9.319  0.00  0.00    +0.099 C 
ENDBRANCH  31  34
ENDBRANCH   7  28
ENDBRANCH  19   6
BRANCH  18  21
ATOM     21  C   UNL     1      16.102   7.402  20.793  0.00  0.00    +0.037 A 
ATOM     22  C   UNL     1      17.350   7.110  21.337  0.00  0.00    +0.013 A 
ATOM     23  C   UNL     1      15.739   6.888  19.550  0.00  0.00    +0.013 A 
ATOM     25  C   UNL     1      18.241   6.299  20.635  0.00  0.00    +0.001 A 
ATOM     26  C   UNL     1      16.631   6.076  18.848  0.00  0.00    +0.001 A 
ATOM     27  C   UNL     1      17.882   5.783  19.390  0.00  0.00    +0.000 A 
ENDBRANCH  18  21
TORSDOF 4
ENDMDL
MODEL 4
REMARK VINA RESULT:      -7.8      4.904      9.389
REMARK  Name = 7156241
REMARK  4 active torsions:
REMARK  status: ('A' for Active; 'I' for Inactive)
REMARK    1  A    between atoms: N_6  and  C_19
REMARK    2  A    between atoms: N_7  and  C_28
REMARK    3  A    between atoms: C_18  and  C_21
REMARK    4  A    between atoms: C_31  and  C_34
REMARK                            x       y       z     vdW  Elec       q    Type
REMARK                         _______ _______ _______ _____ _____    ______ ____
ROOT
ATOM      1  O   UNL     1      12.239   9.220  16.865  0.00  0.00    -0.266 OA
ATOM      2  O   UNL     1      10.543   9.182  21.752  0.00  0.00    -0.270 OA
ATOM      4  N   UNL     1      12.745   8.390  21.758  0.00  0.00    -0.297 N 
ATOM      5  N   UNL     1      13.570   8.689  18.711  0.00  0.00    -0.310 N 
ATOM      9  C   UNL     1      13.209   6.578  20.117  0.00  0.00    +0.027 C 
ATOM     10  C   UNL     1      14.991   8.165  20.724  0.00  0.00    +0.054 C 
ATOM     11  C   UNL     1      14.699   6.697  20.419  0.00  0.00    +0.018 C 
ATOM     12  C   UNL     1      12.378   7.042  21.326  0.00  0.00    +0.113 C 
ATOM     13  C   UNL     1      12.896   7.392  18.854  0.00  0.00    +0.130 C 
ATOM     14  C   UNL     1      14.186   8.606  21.964  0.00  0.00    +0.117 C 
ATOM     15  C   UNL     1      14.635   9.049  19.543  0.00  0.00    +0.027 A 
ATOM     16  C   UNL     1      15.313  10.188  19.321  0.00  0.00    +0.024 A 
ATOM     17  C   UNL     1      13.159   9.501  17.634  0.00  0.00    +0.273 A 
ATOM     18  C   UNL     1      11.749   9.356  21.922  0.00  0.00    +0.247 C 
ATOM     19  C   UNL     1      13.923  10.775  17.438  0.00  0.00    +0.100 A 
ATOM     20  C   UNL     1      14.946  11.067  18.247  0.00  0.00    +0.030 A 
ENDROOT
BRANCH  19   6
ATOM      3  O   UNL     1      14.620  10.478  14.697  0.00  0.00    -0.252 OA
ATOM      6  N   UNL     1      13.543  11.597  16.418  0.00  0.00    -0.265 N 
ATOM      7  N   UNL     1      13.365  12.418  14.283  0.00  0.00    -0.269 N 
ATOM     24  C   UNL     1      13.913  11.408  15.081  0.00  0.00    +0.308 C 
ATOM     35  H   UNL     1      13.184  12.513  16.675  0.00  0.00    +0.157 HD
ATOM     36  H   UNL     1      12.797  13.115  14.758  0.00  0.00    +0.156 HD
BRANCH   7  28
ATOM     28  C   UNL     1      13.499  12.590  12.885  0.00  0.00    +0.036 A 
ATOM     29  C   UNL     1      12.462  12.203  12.052  0.00  0.00    +0.042 A 
ATOM     30  C   UNL     1      14.664  13.142  12.379  0.00  0.00    +0.023 A 
ATOM     31  C   UNL     1      12.595  12.373  10.673  0.00  0.00    +0.054 A 
ATOM     32  C   UNL     1      14.796  13.311  11.001  0.00  0.00    +0.003 A 
ATOM     33  C   UNL     1      13.762  12.927  10.148  0.00  0.00    +0.019 A 
BRANCH  31  34
ATOM      8  N   UNL     1      10.673  11.658   9.089  0.00  0.00    -0.191 NA
ATOM     34  C   UNL     1      11.534  11.979   9.800  0.00  0.00    +0.099 C 
ENDBRANCH  31  34
ENDBRANCH   7  28
ENDBRANCH  19   6
BRANCH  18  21
ATOM     21  C   UNL     1      12.160  10.708  22.311  0.00  0.00    +0.037 A 
ATOM     22  C   UNL     1      12.143  11.079  23.653  0.00  0.00    +0.013 A 
ATOM     23  C   UNL     1      12.566  11.615  21.336  0.00  0.00    +0.013 A 
ATOM     25  C   UNL     1      12.533  12.365  24.023  0.00  0.00    +0.001 A 
ATOM     26  C   UNL     1      12.957  12.903  21.706  0.00  0.00    +0.001 A 
ATOM     27  C   UNL     1      12.940  13.278  23.049  0.00  0.00    +0.000 A 
ENDBRANCH  18  21
TORSDOF 4
ENDMDL
MODEL 5
REMARK VINA RESULT:      -7.5     28.392     31.974
REMARK  Name = 7156241
REMARK  4 active torsions:
REMARK  status: ('A' for Active; 'I' for Inactive)
REMARK    1  A    between atoms: N_6  and  C_19
REMARK    2  A    between atoms: N_7  and  C_28
REMARK    3  A    between atoms: C_18  and  C_21
REMARK    4  A    between atoms: C_31  and  C_34
REMARK                            x       y       z     vdW  Elec       q    Type
REMARK                         _______ _______ _______ _____ _____    ______ ____
ROOT
ATOM      1  O   UNL     1     -11.545  -9.982  14.782  0.00  0.00    -0.266 OA
ATOM      2  O   UNL     1     -14.547  -7.777  11.193  0.00  0.00    -0.270 OA
ATOM      4  N   UNL     1     -15.393  -7.180  13.292  0.00  0.00    -0.297 N 
ATOM      5  N   UNL     1     -13.287  -8.501  15.261  0.00  0.00    -0.310 N 
ATOM      9  C   UNL     1     -15.749  -9.082  14.856  0.00  0.00    +0.027 C 
ATOM     10  C   UNL     1     -15.143  -6.866  15.743  0.00  0.00    +0.054 C 
ATOM     11  C   UNL     1     -16.021  -8.093  15.985  0.00  0.00    +0.018 C 
ATOM     12  C   UNL     1     -16.090  -8.449  13.495  0.00  0.00    +0.113 C 
ATOM     13  C   UNL     1     -14.284  -9.530  14.934  0.00  0.00    +0.130 C 
ATOM     14  C   UNL     1     -15.523  -6.216  14.397  0.00  0.00    +0.117 C 
ATOM     15  C   UNL     1     -13.673  -7.241  15.731  0.00  0.00    +0.027 A 
ATOM     16  C   UNL     1     -12.745  -6.356  16.134  0.00  0.00    +0.024 A 
ATOM     17  C   UNL     1     -11.932  -8.881  15.174  0.00  0.00    +0.273 A 
ATOM     18  C   UNL     1     -14.660  -6.976  12.121  0.00  0.00    +0.247 C 
ATOM     19  C   UNL     1     -10.930  -7.856  15.606  0.00  0.00    +0.100 A 
ATOM     20  C   UNL     1     -11.347  -6.672  16.068  0.00  0.00    +0.030 A 
ENDROOT
BRANCH  19   6
ATOM      3  O   UNL     1      -9.428  -9.309  17.536  0.00  0.00    -0.252 OA
ATOM      6  N   UNL     1      -9.607  -8.179  15.519  0.00  0.00    -0.265 N 
ATOM      7  N   UNL     1      -7.577  -9.066  16.114  0.00  0.00    -0.269 N 
ATOM     24  C   UNL     1      -8.911  -8.898  16.499  0.00  0.00    +0.308 C 
ATOM     35  H   UNL     1      -9.052  -7.668  14.838  0.00  0.00    +0.157 HD
ATOM     36  H   UNL     1      -7.307  -8.666  15.219  0.00  0.00    +0.156 HD
BRANCH   7  28
ATOM     28  C   UNL     1      -6.546  -9.732  16.819  0.00  0.00    +0.036 A 
ATOM     29  C   UNL     1      -5.308  -9.892  16.220  0.00  0.00    +0.042 A 
ATOM     30  C   UNL     1      -6.797 -10.210  18.094  0.00  0.00    +0.023 A 
ATOM     31  C   UNL     1      -4.292 -10.549  16.915  0.00  0.00    +0.054 A 
ATOM     32  C   UNL     1      -5.783 -10.867  18.790  0.00  0.00    +0.003 A 
ATOM     33  C   UNL     1      -4.530 -11.037  18.200  0.00  0.00    +0.019 A 
BRANCH  31  34
ATOM      8  N   UNL     1      -1.965 -10.863  15.820  0.00  0.00    -0.191 NA
ATOM     34  C   UNL     1      -3.009 -10.723  16.311  0.00  0.00    +0.099 C 
ENDBRANCH  31  34
ENDBRANCH   7  28
ENDBRANCH  19   6
BRANCH  18  21
ATOM     21  C   UNL     1     -13.937  -5.708  11.973  0.00  0.00    +0.037 A 
ATOM     22  C   UNL     1     -12.688  -5.550  12.566  0.00  0.00    +0.013 A 
ATOM     23  C   UNL     1     -14.506  -4.670  11.240  0.00  0.00    +0.013 A 
ATOM     25  C   UNL     1     -12.001  -4.344  12.426  0.00  0.00    +0.001 A 
ATOM     26  C   UNL     1     -13.818  -3.463  11.100  0.00  0.00    +0.001 A 
ATOM     27  C   UNL     1     -12.567  -3.301  11.693  0.00  0.00    +0.000 A 
ENDBRANCH  18  21
TORSDOF 4
ENDMDL
MODEL 6
REMARK VINA RESULT:      -7.5      2.143      3.147
REMARK  Name = 7156241
REMARK  4 active torsions:
REMARK  status: ('A' for Active; 'I' for Inactive)
REMARK    1  A    between atoms: N_6  and  C_19
REMARK    2  A    between atoms: N_7  and  C_28
REMARK    3  A    between atoms: C_18  and  C_21
REMARK    4  A    between atoms: C_31  and  C_34
REMARK                            x       y       z     vdW  Elec       q    Type
REMARK                         _______ _______ _______ _____ _____    ______ ____
ROOT
ATOM      1  O   UNL     1      15.731   6.184  19.166  0.00  0.00    -0.266 OA
ATOM      2  O   UNL     1      15.139  10.716  16.743  0.00  0.00    -0.270 OA
ATOM      4  N   UNL     1      13.298  10.421  18.157  0.00  0.00    -0.297 N 
ATOM      5  N   UNL     1      14.009   7.698  19.618  0.00  0.00    -0.310 N 
ATOM      9  C   UNL     1      12.151   8.224  17.935  0.00  0.00    +0.027 C 
ATOM     10  C   UNL     1      12.190   9.369  20.114  0.00  0.00    +0.054 C 
ATOM     11  C   UNL     1      11.317   8.543  19.171  0.00  0.00    +0.018 C 
ATOM     12  C   UNL     1      12.598   9.522  17.240  0.00  0.00    +0.113 C 
ATOM     13  C   UNL     1      13.342   7.353  18.355  0.00  0.00    +0.130 C 
ATOM     14  C   UNL     1      12.596  10.686  19.423  0.00  0.00    +0.117 C 
ATOM     15  C   UNL     1      13.434   8.600  20.519  0.00  0.00    +0.027 A 
ATOM     16  C   UNL     1      14.001   8.813  21.719  0.00  0.00    +0.024 A 
ATOM     17  C   UNL     1      15.196   6.999  19.919  0.00  0.00    +0.273 A 
ATOM     18  C   UNL     1      14.547  10.934  17.800  0.00  0.00    +0.247 C 
ATOM     19  C   UNL     1      15.811   7.286  21.254  0.00  0.00    +0.100 A 
ATOM     20  C   UNL     1      15.214   8.142  22.090  0.00  0.00    +0.030 A 
ENDROOT
BRANCH  19   6
ATOM      3  O   UNL     1      18.438   8.348  21.002  0.00  0.00    -0.252 OA
ATOM      6  N   UNL     1      16.972   6.644  21.574  0.00  0.00    -0.265 N 
ATOM      7  N   UNL     1      19.224   6.303  21.846  0.00  0.00    -0.269 N 
ATOM     24  C   UNL     1      18.244   7.212  21.432  0.00  0.00    +0.308 C 
ATOM     35  H   UNL     1      16.924   5.636  21.687  0.00  0.00    +0.157 HD
ATOM     36  H   UNL     1      18.896   5.401  22.181  0.00  0.00    +0.156 HD
BRANCH   7  28
ATOM     28  C   UNL     1      20.628   6.486  21.862  0.00  0.00    +0.036 A 
ATOM     29  C   UNL     1      21.433   5.615  21.148  0.00  0.00    +0.042 A 
ATOM     30  C   UNL     1      21.166   7.533  22.591  0.00  0.00    +0.023 A 
ATOM     31  C   UNL     1      22.817   5.795  21.164  0.00  0.00    +0.054 A 
ATOM     32  C   UNL     1      22.549   7.714  22.607  0.00  0.00    +0.003 A 
ATOM     33  C   UNL     1      23.374   6.845  21.894  0.00  0.00    +0.019 A 
BRANCH  31  34
ATOM      8  N   UNL     1      24.349   4.181  19.838  0.00  0.00    -0.191 NA
ATOM     34  C   UNL     1      23.662   4.904  20.433  0.00  0.00    +0.099 C 
ENDBRANCH  31  34
ENDBRANCH   7  28
ENDBRANCH  19   6
BRANCH  18  21
ATOM     21  C   UNL     1      15.239  11.795  18.765  0.00  0.00    +0.037 A 
ATOM     22  C   UNL     1      16.065  11.229  19.732  0.00  0.00    +0.013 A 
ATOM     23  C   UNL     1      15.065  13.175  18.708  0.00  0.00    +0.013 A 
ATOM     25  C   UNL     1      16.722  12.048  20.649  0.00  0.00    +0.001 A 
ATOM     26  C   UNL     1      15.723  13.995  19.627  0.00  0.00    +0.001 A 
ATOM     27  C   UNL     1      16.551  13.431  20.597  0.00  0.00    +0.000 A 
ENDBRANCH  18  21
TORSDOF 4
ENDMDL
MODEL 7
REMARK VINA RESULT:      -7.4     27.858     31.145
REMARK  Name = 7156241
REMARK  4 active torsions:
REMARK  status: ('A' for Active; 'I' for Inactive)
REMARK    1  A    between atoms: N_6  and  C_19
REMARK    2  A    between atoms: N_7  and  C_28
REMARK    3  A    between atoms: C_18  and  C_21
REMARK    4  A    between atoms: C_31  and  C_34
REMARK                            x       y       z     vdW  Elec       q    Type
REMARK                         _______ _______ _______ _____ _____    ______ ____
ROOT
ATOM      1  O   UNL     1      -6.403  -9.586  13.876  0.00  0.00    -0.266 OA
ATOM      2  O   UNL     1      -5.408 -14.485  12.545  0.00  0.00    -0.270 OA
ATOM      4  N   UNL     1      -3.357 -13.397  12.833  0.00  0.00    -0.297 N 
ATOM      5  N   UNL     1      -4.260 -10.516  13.803  0.00  0.00    -0.310 N 
ATOM      9  C   UNL     1      -3.138 -11.238  11.616  0.00  0.00    +0.027 C 
ATOM     10  C   UNL     1      -1.967 -11.558  13.758  0.00  0.00    +0.054 C 
ATOM     11  C   UNL     1      -1.835 -10.960  12.359  0.00  0.00    +0.018 C 
ATOM     12  C   UNL     1      -3.388 -12.754  11.521  0.00  0.00    +0.113 C 
ATOM     13  C   UNL     1      -4.281 -10.508  12.334  0.00  0.00    +0.130 C 
ATOM     14  C   UNL     1      -2.174 -13.083  13.651  0.00  0.00    +0.117 C 
ATOM     15  C   UNL     1      -3.130 -10.937  14.510  0.00  0.00    +0.027 A 
ATOM     16  C   UNL     1      -3.088 -10.827  15.849  0.00  0.00    +0.024 A 
ATOM     17  C   UNL     1      -5.392  -9.985  14.455  0.00  0.00    +0.273 A 
ATOM     18  C   UNL     1      -4.417 -14.219  13.224  0.00  0.00    +0.247 C 
ATOM     19  C   UNL     1      -5.317  -9.905  15.949  0.00  0.00    +0.100 A 
ATOM     20  C   UNL     1      -4.206 -10.302  16.580  0.00  0.00    +0.030 A 
ENDROOT
BRANCH  19   6
ATOM      3  O   UNL     1      -7.598 -11.395  16.766  0.00  0.00    -0.252 OA
ATOM      6  N   UNL     1      -6.399  -9.415  16.618  0.00  0.00    -0.265 N 
ATOM      7  N   UNL     1      -8.440  -9.398  17.667  0.00  0.00    -0.269 N 
ATOM     24  C   UNL     1      -7.501 -10.192  17.000  0.00  0.00    +0.308 C 
ATOM     35  H   UNL     1      -6.520  -8.406  16.622  0.00  0.00    +0.157 HD
ATOM     36  H   UNL     1      -8.205  -8.415  17.783  0.00  0.00    +0.156 HD
BRANCH   7  28
ATOM     28  C   UNL     1      -9.684  -9.796  18.212  0.00  0.00    +0.036 A 
ATOM     29  C   UNL     1      -9.731 -10.874  19.079  0.00  0.00    +0.042 A 
ATOM     30  C   UNL     1     -10.829  -9.098  17.865  0.00  0.00    +0.023 A 
ATOM     31  C   UNL     1     -10.959 -11.266  19.615  0.00  0.00    +0.054 A 
ATOM     32  C   UNL     1     -12.056  -9.490  18.400  0.00  0.00    +0.003 A 
ATOM     33  C   UNL     1     -12.120 -10.573  19.275  0.00  0.00    +0.019 A 
BRANCH  31  34
ATOM      8  N   UNL     1     -11.078 -13.279  21.243  0.00  0.00    -0.191 NA
ATOM     34  C   UNL     1     -11.025 -12.376  20.513  0.00  0.00    +0.099 C 
ENDBRANCH  31  34
ENDBRANCH   7  28
ENDBRANCH  19   6
BRANCH  18  21
ATOM     21  C   UNL     1      -4.372 -14.809  14.565  0.00  0.00    +0.037 A 
ATOM     22  C   UNL     1      -3.781 -16.056  14.754  0.00  0.00    +0.013 A 
ATOM     23  C   UNL     1      -4.921 -14.120  15.643  0.00  0.00    +0.013 A 
ATOM     25  C   UNL     1      -3.739 -16.617  16.030  0.00  0.00    +0.001 A 
ATOM     26  C   UNL     1      -4.878 -14.682  16.920  0.00  0.00    +0.001 A 
ATOM     27  C   UNL     1      -4.288 -15.931  17.113  0.00  0.00    +0.000 A 
ENDBRANCH  18  21
TORSDOF 4
ENDMDL
MODEL 8
REMARK VINA RESULT:      -7.4     25.176     29.555
REMARK  Name = 7156241
REMARK  4 active torsions:
REMARK  status: ('A' for Active; 'I' for Inactive)
REMARK    1  A    between atoms: N_6  and  C_19
REMARK    2  A    between atoms: N_7  and  C_28
REMARK    3  A    between atoms: C_18  and  C_21
REMARK    4  A    between atoms: C_31  and  C_34
REMARK                            x       y       z     vdW  Elec       q    Type
REMARK                         _______ _______ _______ _____ _____    ______ ____
ROOT
ATOM      1  O   UNL     1     -14.219   8.402  17.652  0.00  0.00    -0.266 OA
ATOM      2  O   UNL     1     -16.291  10.446  21.929  0.00  0.00    -0.270 OA
ATOM      4  N   UNL     1     -15.643   8.255  22.431  0.00  0.00    -0.297 N 
ATOM      5  N   UNL     1     -14.269   7.329  19.728  0.00  0.00    -0.310 N 
ATOM      9  C   UNL     1     -16.443   6.533  20.823  0.00  0.00    +0.027 C 
ATOM     10  C   UNL     1     -14.297   6.215  21.988  0.00  0.00    +0.054 C 
ATOM     11  C   UNL     1     -15.555   5.496  21.503  0.00  0.00    +0.018 C 
ATOM     12  C   UNL     1     -16.822   7.647  21.815  0.00  0.00    +0.113 C 
ATOM     13  C   UNL     1     -15.710   7.080  19.591  0.00  0.00    +0.130 C 
ATOM     14  C   UNL     1     -14.685   7.300  23.013  0.00  0.00    +0.117 C 
ATOM     15  C   UNL     1     -13.551   6.851  20.829  0.00  0.00    +0.027 A 
ATOM     16  C   UNL     1     -12.215   6.988  20.878  0.00  0.00    +0.024 A 
ATOM     17  C   UNL     1     -13.633   7.979  18.650  0.00  0.00    +0.273 A 
ATOM     18  C   UNL     1     -15.494   9.643  22.413  0.00  0.00    +0.247 C 
ATOM     19  C   UNL     1     -12.148   8.136  18.756  0.00  0.00    +0.100 A 
ATOM     20  C   UNL     1     -11.502   7.645  19.819  0.00  0.00    +0.030 A 
ENDROOT
BRANCH  19   6
ATOM      3  O   UNL     1     -11.484  10.901  18.675  0.00  0.00    -0.252 OA
ATOM      6  N   UNL     1     -11.499   8.777  17.742  0.00  0.00    -0.265 N 
ATOM      7  N   UNL     1     -10.527  10.494  16.571  0.00  0.00    -0.269 N 
ATOM     24  C   UNL     1     -11.194  10.144  17.750  0.00  0.00    +0.308 C 
ATOM     35  H   UNL     1     -11.455   8.298  16.848  0.00  0.00    +0.157 HD
ATOM     36  H   UNL     1     -10.359   9.745  15.903  0.00  0.00    +0.156 HD
BRANCH   7  28
ATOM     28  C   UNL     1     -10.048  11.770  16.189  0.00  0.00    +0.036 A 
ATOM     29  C   UNL     1      -8.910  12.276  16.793  0.00  0.00    +0.042 A 
ATOM     30  C   UNL     1     -10.729  12.486  15.218  0.00  0.00    +0.023 A 
ATOM     31  C   UNL     1      -8.438  13.534  16.416  0.00  0.00    +0.054 A 
ATOM     32  C   UNL     1     -10.258  13.743  14.841  0.00  0.00    +0.003 A 
ATOM     33  C   UNL     1      -9.113  14.267  15.440  0.00  0.00    +0.019 A 
BRANCH  31  34
ATOM      8  N   UNL     1      -6.310  14.508  17.528  0.00  0.00    -0.191 NA
ATOM     34  C   UNL     1      -7.265  14.071  17.030  0.00  0.00    +0.099 C 
ENDBRANCH  31  34
ENDBRANCH   7  28
ENDBRANCH  19   6
BRANCH  18  21
ATOM     21  C   UNL     1     -14.277  10.212  23.001  0.00  0.00    +0.037 A 
ATOM     22  C   UNL     1     -13.199  10.537  22.182  0.00  0.00    +0.013 A 
ATOM     23  C   UNL     1     -14.207  10.424  24.375  0.00  0.00    +0.013 A 
ATOM     25  C   UNL     1     -12.042  11.078  22.742  0.00  0.00    +0.001 A 
ATOM     26  C   UNL     1     -13.048  10.965  24.935  0.00  0.00    +0.001 A 
ATOM     27  C   UNL     1     -11.966  11.292  24.118  0.00  0.00    +0.000 A 
ENDBRANCH  18  21
TORSDOF 4
ENDMDL
MODEL 9
REMARK VINA RESULT:      -7.3      2.175      3.082
REMARK  Name = 7156241
REMARK  4 active torsions:
REMARK  status: ('A' for Active; 'I' for Inactive)
REMARK    1  A    between atoms: N_6  and  C_19
REMARK    2  A    between atoms: N_7  and  C_28
REMARK    3  A    between atoms: C_18  and  C_21
REMARK    4  A    between atoms: C_31  and  C_34
REMARK                            x       y       z     vdW  Elec       q    Type
REMARK                         _______ _______ _______ _____ _____    ______ ____
ROOT
ATOM      1  O   UNL     1      15.406   6.159  19.580  0.00  0.00    -0.266 OA
ATOM      2  O   UNL     1      14.874  10.330  16.567  0.00  0.00    -0.270 OA
ATOM      4  N   UNL     1      13.108  10.334  18.103  0.00  0.00    -0.297 N 
ATOM      5  N   UNL     1      13.783   7.810  19.901  0.00  0.00    -0.310 N 
ATOM      9  C   UNL     1      11.853   8.192  18.259  0.00  0.00    +0.027 C 
ATOM     10  C   UNL     1      12.073   9.628  20.247  0.00  0.00    +0.054 C 
ATOM     11  C   UNL     1      11.109   8.725  19.479  0.00  0.00    +0.018 C 
ATOM     12  C   UNL     1      12.316   9.354  17.362  0.00  0.00    +0.113 C 
ATOM     13  C   UNL     1      13.028   7.327  18.736  0.00  0.00    +0.130 C 
ATOM     14  C   UNL     1      12.495  10.812  19.354  0.00  0.00    +0.117 C 
ATOM     15  C   UNL     1      13.303   8.859  20.692  0.00  0.00    +0.027 A 
ATOM     16  C   UNL     1      13.949   9.208  21.817  0.00  0.00    +0.024 A 
ATOM     17  C   UNL     1      14.954   7.099  20.235  0.00  0.00    +0.273 A 
ATOM     18  C   UNL     1      14.356  10.726  17.611  0.00  0.00    +0.247 C 
ATOM     19  C   UNL     1      15.659   7.538  21.482  0.00  0.00    +0.100 A 
ATOM     20  C   UNL     1      15.151   8.533  22.217  0.00  0.00    +0.030 A 
ENDROOT
BRANCH  19   6
ATOM      3  O   UNL     1      18.309   8.385  20.893  0.00  0.00    -0.252 OA
ATOM      6  N   UNL     1      16.806   6.888  21.830  0.00  0.00    -0.265 N 
ATOM      7  N   UNL     1      19.053   6.460  22.010  0.00  0.00    -0.269 N 
ATOM     24  C   UNL     1      18.092   7.347  21.515  0.00  0.00    +0.308 C 
ATOM     35  H   UNL     1      16.718   5.915  22.110  0.00  0.00    +0.157 HD
ATOM     36  H   UNL     1      18.706   5.645  22.510  0.00  0.00    +0.156 HD
BRANCH   7  28
ATOM     28  C   UNL     1      20.461   6.558  21.907  0.00  0.00    +0.036 A 
ATOM     29  C   UNL     1      21.191   7.014  22.992  0.00  0.00    +0.042 A 
ATOM     30  C   UNL     1      21.080   6.194  20.723  0.00  0.00    +0.023 A 
ATOM     31  C   UNL     1      22.579   7.111  22.889  0.00  0.00    +0.054 A 
ATOM     32  C   UNL     1      22.468   6.291  20.620  0.00  0.00    +0.003 A 
ATOM     33  C   UNL     1      23.217   6.749  21.703  0.00  0.00    +0.019 A 
BRANCH  31  34
ATOM      8  N   UNL     1      23.971   7.961  24.902  0.00  0.00    -0.191 NA
ATOM     34  C   UNL     1      23.347   7.580  24.000  0.00  0.00    +0.099 C 
ENDBRANCH  31  34
ENDBRANCH   7  28
ENDBRANCH  19   6
BRANCH  18  21
ATOM     21  C   UNL     1      15.141  11.676  18.405  0.00  0.00    +0.037 A 
ATOM     22  C   UNL     1      15.076  13.037  18.121  0.00  0.00    +0.013 A 
ATOM     23  C   UNL     1      15.949  11.211  19.440  0.00  0.00    +0.013 A 
ATOM     25  C   UNL     1      15.823  13.940  18.876  0.00  0.00    +0.001 A 
ATOM     26  C   UNL     1      16.697  12.115  20.195  0.00  0.00    +0.001 A 
ATOM     27  C   UNL     1      16.634  13.479  19.913  0.00  0.00    +0.000 A 
ENDBRANCH  18  21
TORSDOF 4
ENDMDL
MODEL 10
REMARK VINA RESULT:      -7.3     14.355     19.102
REMARK  Name = 7156241
REMARK  4 active torsions:
REMARK  status: ('A' for Active; 'I' for Inactive)
REMARK    1  A    between atoms: N_6  and  C_19
REMARK    2  A    between atoms: N_7  and  C_28
REMARK    3  A    between atoms: C_18  and  C_21
REMARK    4  A    between atoms: C_31  and  C_34
REMARK                            x       y       z     vdW  Elec       q    Type
REMARK                         _______ _______ _______ _____ _____    ______ ____
ROOT
ATOM      1  O   UNL     1      11.863   9.437   2.493  0.00  0.00    -0.266 OA
ATOM      2  O   UNL     1      12.844   7.435   7.161  0.00  0.00    -0.270 OA
ATOM      4  N   UNL     1      10.862   8.668   7.320  0.00  0.00    -0.297 N 
ATOM      5  N   UNL     1      10.421   9.611   4.324  0.00  0.00    -0.310 N 
ATOM      9  C   UNL     1      10.994  10.981   6.412  0.00  0.00    +0.027 C 
ATOM     10  C   UNL     1       8.868   9.744   6.303  0.00  0.00    +0.054 C 
ATOM     11  C   UNL     1       9.482  11.118   6.562  0.00  0.00    +0.018 C 
ATOM     12  C   UNL     1      11.543   9.958   7.422  0.00  0.00    +0.113 C 
ATOM     13  C   UNL     1      11.312  10.590   4.962  0.00  0.00    +0.130 C 
ATOM     14  C   UNL     1       9.392   8.738   7.348  0.00  0.00    +0.117 C 
ATOM     15  C   UNL     1       9.202   9.251   4.907  0.00  0.00    +0.027 A 
ATOM     16  C   UNL     1       8.350   8.444   4.252  0.00  0.00    +0.024 A 
ATOM     17  C   UNL     1      10.809   9.136   3.054  0.00  0.00    +0.273 A 
ATOM     18  C   UNL     1      11.615   7.500   7.185  0.00  0.00    +0.247 C 
ATOM     19  C   UNL     1       9.844   8.217   2.370  0.00  0.00    +0.100 A 
ATOM     20  C   UNL     1       8.681   7.918   2.959  0.00  0.00    +0.030 A 
ENDROOT
BRANCH  19   6
ATOM      3  O   UNL     1      10.808   5.595   1.839  0.00  0.00    -0.252 OA
ATOM      6  N   UNL     1      10.191   7.721   1.148  0.00  0.00    -0.265 N 
ATOM      7  N   UNL     1      10.928   6.217  -0.421  0.00  0.00    -0.269 N 
ATOM     24  C   UNL     1      10.662   6.418   0.938  0.00  0.00    +0.308 C 
ATOM     35  H   UNL     1      10.345   8.395   0.404  0.00  0.00    +0.157 HD
ATOM     36  H   UNL     1      10.749   7.003  -1.041  0.00  0.00    +0.156 HD
BRANCH   7  28
ATOM     28  C   UNL     1      11.415   5.045  -1.047  0.00  0.00    +0.036 A 
ATOM     29  C   UNL     1      10.523   4.185  -1.664  0.00  0.00    +0.042 A 
ATOM     30  C   UNL     1      12.775   4.784  -1.029  0.00  0.00    +0.023 A 
ATOM     31  C   UNL     1      11.004   3.029  -2.281  0.00  0.00    +0.054 A 
ATOM     32  C   UNL     1      13.257   3.629  -1.646  0.00  0.00    +0.003 A 
ATOM     33  C   UNL     1      12.371   2.752  -2.271  0.00  0.00    +0.019 A 
BRANCH  31  34
ATOM      8  N   UNL     1       9.359   1.400  -3.443  0.00  0.00    -0.191 NA
ATOM     34  C   UNL     1      10.097   2.131  -2.922  0.00  0.00    +0.099 C 
ENDBRANCH  31  34
ENDBRANCH   7  28
ENDBRANCH  19   6
BRANCH  18  21
ATOM     21  C   UNL     1      10.896   6.230   7.039  0.00  0.00    +0.037 A 
ATOM     22  C   UNL     1      10.553   5.770   5.771  0.00  0.00    +0.013 A 
ATOM     23  C   UNL     1      10.560   5.492   8.171  0.00  0.00    +0.013 A 
ATOM     25  C   UNL     1       9.869   4.563   5.633  0.00  0.00    +0.001 A 
ATOM     26  C   UNL     1       9.875   4.284   8.033  0.00  0.00    +0.001 A 
ATOM     27  C   UNL     1       9.529   3.820   6.764  0.00  0.00    +0.000 A 
ENDBRANCH  18  21
TORSDOF 4
ENDMDL
