MODEL 1
REMARK VINA RESULT:      -7.8      0.000      0.000
REMARK  Name = 26743608
REMARK  6 active torsions:
REMARK  status: ('A' for Active; 'I' for Inactive)
REMARK    1  A    between atoms: O_4  and  C_11
REMARK    2  A    between atoms: N_6  and  C_13
REMARK    3  A    between atoms: C_9  and  C_14
REMARK    4  A    between atoms: C_13  and  C_15
REMARK    5  A    between atoms: C_16  and  C_19
REMARK    6  A    between atoms: C_27  and  C_28
REMARK                            x       y       z     vdW  Elec       q    Type
REMARK                         _______ _______ _______ _____ _____    ______ ____
ROOT
ATOM      5  O   UNL     1      15.180   8.793  19.821  0.00  0.00    -0.336 OA
ATOM      7  N   UNL     1      15.963   6.786  19.209  0.00  0.00    -0.190 NA
ATOM      8  N   UNL     1      16.380   8.614  20.520  0.00  0.00    -0.056 NA
ATOM     14  C   UNL     1      15.009   7.671  19.073  0.00  0.00    +0.245 A 
ATOM     16  C   UNL     1      16.781   7.408  20.106  0.00  0.00    +0.202 A 
ENDROOT
BRANCH  16  19
ATOM     19  C   UNL     1      17.992   6.796  20.571  0.00  0.00    +0.022 A 
ATOM     23  C   UNL     1      18.551   5.728  19.866  0.00  0.00    +0.012 A 
ATOM     24  C   UNL     1      18.614   7.268  21.727  0.00  0.00    +0.012 A 
ATOM     25  C   UNL     1      19.728   5.134  20.318  0.00  0.00    +0.013 A 
ATOM     26  C   UNL     1      19.792   6.675  22.179  0.00  0.00    +0.013 A 
ATOM     27  C   UNL     1      20.349   5.607  21.474  0.00  0.00    +0.055 A 
BRANCH  27  28
ATOM      1  F   UNL     1      21.589   3.607  21.906  0.00  0.00    -0.166 F 
ATOM      2  F   UNL     1      21.890   5.285  23.256  0.00  0.00    -0.166 F 
ATOM      3  F   UNL     1      22.715   5.339  21.245  0.00  0.00    -0.166 F 
ATOM     28  C   UNL     1      21.609   4.972  21.957  0.00  0.00    +0.417 C 
ENDBRANCH  27  28
ENDBRANCH  16  19
BRANCH  14   9
ATOM      6  N   UNL     1      12.747   8.608  18.621  0.00  0.00    -0.285 NA
ATOM      9  C   UNL     1      13.765   7.619  18.210  0.00  0.00    +0.149 C 
ATOM     10  C   UNL     1      14.051   7.939  16.732  0.00  0.00    +0.061 C 
ATOM     11  C   UNL     1      13.115   9.091  16.389  0.00  0.00    +0.130 C 
ATOM     12  C   UNL     1      12.004   8.962  17.413  0.00  0.00    +0.116 C 
BRANCH  11   4
ATOM      4  O   UNL     1      12.628   8.966  15.067  0.00  0.00    -0.390 OA
ATOM     29  H   UNL     1      13.330   8.553  14.535  0.00  0.00    +0.210 HD
ENDBRANCH  11   4
BRANCH   6  13
ATOM     13  C   UNL     1      11.872   8.127  19.682  0.00  0.00    +0.120 C 
BRANCH  13  15
ATOM     15  C   UNL     1      11.639   9.176  20.735  0.00  0.00    -0.033 A 
ATOM     17  C   UNL     1      10.874   8.876  21.862  0.00  0.00    +0.005 A 
ATOM     18  C   UNL     1      12.187  10.450  20.584  0.00  0.00    +0.005 A 
ATOM     20  C   UNL     1      10.657   9.849  22.838  0.00  0.00    +0.000 A 
ATOM     21  C   UNL     1      11.971  11.423  21.560  0.00  0.00    +0.000 A 
ATOM     22  C   UNL     1      11.205  11.122  22.687  0.00  0.00    +0.000 A 
ENDBRANCH  13  15
ENDBRANCH   6  13
ENDBRANCH  14   9
TORSDOF 6
ENDMDL
MODEL 2
REMARK VINA RESULT:      -7.4      2.025      3.836
REMARK  Name = 26743608
REMARK  6 active torsions:
REMARK  status: ('A' for Active; 'I' for Inactive)
REMARK    1  A    between atoms: O_4  and  C_11
REMARK    2  A    between atoms: N_6  and  C_13
REMARK    3  A    between atoms: C_9  and  C_14
REMARK    4  A    between atoms: C_13  and  C_15
REMARK    5  A    between atoms: C_16  and  C_19
REMARK    6  A    between atoms: C_27  and  C_28
REMARK                            x       y       z     vdW  Elec       q    Type
REMARK                         _______ _______ _______ _____ _____    ______ ____
ROOT
ATOM      5  O   UNL     1      15.421  10.000  21.231  0.00  0.00    -0.336 OA
ATOM      7  N   UNL     1      15.343   7.767  21.073  0.00  0.00    -0.190 NA
ATOM      8  N   UNL     1      16.752   9.566  21.188  0.00  0.00    -0.056 NA
ATOM     14  C   UNL     1      14.657   8.878  21.158  0.00  0.00    +0.245 A 
ATOM     16  C   UNL     1      16.623   8.239  21.095  0.00  0.00    +0.202 A 
ENDROOT
BRANCH  16  19
ATOM     19  C   UNL     1      17.752   7.357  21.024  0.00  0.00    +0.022 A 
ATOM     23  C   UNL     1      17.775   6.326  20.083  0.00  0.00    +0.012 A 
ATOM     24  C   UNL     1      18.828   7.528  21.895  0.00  0.00    +0.012 A 
ATOM     25  C   UNL     1      18.873   5.469  20.014  0.00  0.00    +0.013 A 
ATOM     26  C   UNL     1      19.926   6.672  21.826  0.00  0.00    +0.013 A 
ATOM     27  C   UNL     1      19.948   5.642  20.886  0.00  0.00    +0.055 A 
BRANCH  27  28
ATOM      1  F   UNL     1      21.853   4.677  21.965  0.00  0.00    -0.166 F 
ATOM      2  F   UNL     1      22.006   5.083  19.834  0.00  0.00    -0.166 F 
ATOM      3  F   UNL     1      20.789   3.429  20.546  0.00  0.00    -0.166 F 
ATOM     28  C   UNL     1      21.123   4.726  20.812  0.00  0.00    +0.417 C 
ENDBRANCH  27  28
ENDBRANCH  16  19
BRANCH  14   9
ATOM      6  N   UNL     1      12.558   9.071  19.834  0.00  0.00    -0.285 NA
ATOM      9  C   UNL     1      13.157   9.082  21.185  0.00  0.00    +0.149 C 
ATOM     10  C   UNL     1      12.418   7.970  21.952  0.00  0.00    +0.061 C 
ATOM     11  C   UNL     1      11.394   7.423  20.965  0.00  0.00    +0.130 C 
ATOM     12  C   UNL     1      11.195   8.567  19.991  0.00  0.00    +0.116 C 
BRANCH  11   4
ATOM      4  O   UNL     1      10.191   7.081  21.628  0.00  0.00    -0.390 OA
ATOM     29  H   UNL     1      10.351   7.164  22.584  0.00  0.00    +0.210 HD
ENDBRANCH  11   4
BRANCH   6  13
ATOM     13  C   UNL     1      12.590  10.372  19.180  0.00  0.00    +0.120 C 
BRANCH  13  15
ATOM     15  C   UNL     1      13.350  10.328  17.882  0.00  0.00    -0.033 A 
ATOM     17  C   UNL     1      13.979  11.477  17.402  0.00  0.00    +0.005 A 
ATOM     18  C   UNL     1      13.425   9.139  17.158  0.00  0.00    +0.005 A 
ATOM     20  C   UNL     1      14.682  11.437  16.198  0.00  0.00    +0.000 A 
ATOM     21  C   UNL     1      14.128   9.097  15.954  0.00  0.00    +0.000 A 
ATOM     22  C   UNL     1      14.757  10.247  15.474  0.00  0.00    +0.000 A 
ENDBRANCH  13  15
ENDBRANCH   6  13
ENDBRANCH  14   9
TORSDOF 6
ENDMDL
MODEL 3
REMARK VINA RESULT:      -7.3     27.217     29.710
REMARK  Name = 26743608
REMARK  6 active torsions:
REMARK  status: ('A' for Active; 'I' for Inactive)
REMARK    1  A    between atoms: O_4  and  C_11
REMARK    2  A    between atoms: N_6  and  C_13
REMARK    3  A    between atoms: C_9  and  C_14
REMARK    4  A    between atoms: C_13  and  C_15
REMARK    5  A    between atoms: C_16  and  C_19
REMARK    6  A    between atoms: C_27  and  C_28
REMARK                            x       y       z     vdW  Elec       q    Type
REMARK                         _______ _______ _______ _____ _____    ______ ____
ROOT
ATOM      5  O   UNL     1      -5.537 -11.937  16.693  0.00  0.00    -0.336 OA
ATOM      7  N   UNL     1      -5.792 -10.090  15.452  0.00  0.00    -0.190 NA
ATOM      8  N   UNL     1      -6.823 -11.457  16.969  0.00  0.00    -0.056 NA
ATOM     14  C   UNL     1      -4.999 -11.074  15.791  0.00  0.00    +0.245 A 
ATOM     16  C   UNL     1      -6.899 -10.367  16.200  0.00  0.00    +0.202 A 
ENDROOT
BRANCH  16  19
ATOM     19  C   UNL     1      -8.064  -9.532  16.157  0.00  0.00    +0.022 A 
ATOM     23  C   UNL     1      -8.494  -8.873  17.310  0.00  0.00    +0.012 A 
ATOM     24  C   UNL     1      -8.769  -9.376  14.964  0.00  0.00    +0.012 A 
ATOM     25  C   UNL     1      -9.627  -8.061  17.269  0.00  0.00    +0.013 A 
ATOM     26  C   UNL     1      -9.901  -8.564  14.921  0.00  0.00    +0.013 A 
ATOM     27  C   UNL     1     -10.330  -7.907  16.074  0.00  0.00    +0.055 A 
BRANCH  27  28
ATOM      1  F   UNL     1     -11.376  -5.834  16.654  0.00  0.00    -0.166 F 
ATOM      2  F   UNL     1     -12.624  -7.615  16.628  0.00  0.00    -0.166 F 
ATOM      3  F   UNL     1     -11.946  -6.728  14.762  0.00  0.00    -0.166 F 
ATOM     28  C   UNL     1     -11.541  -7.038  16.030  0.00  0.00    +0.417 C 
ENDBRANCH  27  28
ENDBRANCH  16  19
BRANCH  14   9
ATOM      6  N   UNL     1      -3.221 -10.625  14.107  0.00  0.00    -0.285 NA
ATOM      9  C   UNL     1      -3.591 -11.379  15.323  0.00  0.00    +0.149 C 
ATOM     10  C   UNL     1      -2.522 -10.999  16.363  0.00  0.00    +0.061 C 
ATOM     11  C   UNL     1      -1.570 -10.064  15.627  0.00  0.00    +0.130 C 
ATOM     12  C   UNL     1      -1.774 -10.427  14.169  0.00  0.00    +0.116 C 
BRANCH  11   4
ATOM      4  O   UNL     1      -0.235 -10.280  16.041  0.00  0.00    -0.390 OA
ATOM     29  H   UNL     1       0.212  -9.417  16.050  0.00  0.00    +0.210 HD
ENDBRANCH  11   4
BRANCH   6  13
ATOM     13  C   UNL     1      -3.632 -11.284  12.874  0.00  0.00    +0.120 C 
BRANCH  13  15
ATOM     15  C   UNL     1      -4.039 -10.292  11.818  0.00  0.00    -0.033 A 
ATOM     17  C   UNL     1      -3.203 -10.050  10.729  0.00  0.00    +0.005 A 
ATOM     18  C   UNL     1      -5.253  -9.614  11.929  0.00  0.00    +0.005 A 
ATOM     20  C   UNL     1      -3.580  -9.130   9.750  0.00  0.00    +0.000 A 
ATOM     21  C   UNL     1      -5.631  -8.694  10.951  0.00  0.00    +0.000 A 
ATOM     22  C   UNL     1      -4.794  -8.452   9.861  0.00  0.00    +0.000 A 
ENDBRANCH  13  15
ENDBRANCH   6  13
ENDBRANCH  14   9
TORSDOF 6
ENDMDL
MODEL 4
REMARK VINA RESULT:      -6.9     27.547     29.099
REMARK  Name = 26743608
REMARK  6 active torsions:
REMARK  status: ('A' for Active; 'I' for Inactive)
REMARK    1  A    between atoms: O_4  and  C_11
REMARK    2  A    between atoms: N_6  and  C_13
REMARK    3  A    between atoms: C_9  and  C_14
REMARK    4  A    between atoms: C_13  and  C_15
REMARK    5  A    between atoms: C_16  and  C_19
REMARK    6  A    between atoms: C_27  and  C_28
REMARK                            x       y       z     vdW  Elec       q    Type
REMARK                         _______ _______ _______ _____ _____    ______ ____
ROOT
ATOM      5  O   UNL     1      -7.507  -9.328  11.845  0.00  0.00    -0.336 OA
ATOM      7  N   UNL     1      -5.527  -9.355  12.890  0.00  0.00    -0.190 NA
ATOM      8  N   UNL     1      -7.769  -9.721  13.163  0.00  0.00    -0.056 NA
ATOM     14  C   UNL     1      -6.164  -9.133  11.769  0.00  0.00    +0.245 A 
ATOM     16  C   UNL     1      -6.552  -9.713  13.716  0.00  0.00    +0.202 A 
ENDROOT
BRANCH  16  19
ATOM     19  C   UNL     1      -6.327 -10.059  15.090  0.00  0.00    +0.022 A 
ATOM     23  C   UNL     1      -7.394 -10.078  15.990  0.00  0.00    +0.012 A 
ATOM     24  C   UNL     1      -5.041 -10.378  15.528  0.00  0.00    +0.012 A 
ATOM     25  C   UNL     1      -7.174 -10.415  17.325  0.00  0.00    +0.013 A 
ATOM     26  C   UNL     1      -4.822 -10.716  16.862  0.00  0.00    +0.013 A 
ATOM     27  C   UNL     1      -5.889 -10.734  17.761  0.00  0.00    +0.055 A 
BRANCH  27  28
ATOM      1  F   UNL     1      -5.957 -10.092  20.065  0.00  0.00    -0.166 F 
ATOM      2  F   UNL     1      -4.352 -11.420  19.441  0.00  0.00    -0.166 F 
ATOM      3  F   UNL     1      -6.387 -12.169  19.609  0.00  0.00    -0.166 F 
ATOM     28  C   UNL     1      -5.654 -11.095  19.189  0.00  0.00    +0.417 C 
ENDBRANCH  27  28
ENDBRANCH  16  19
BRANCH  14   9
ATOM      6  N   UNL     1      -4.711  -9.694   9.828  0.00  0.00    -0.285 NA
ATOM      9  C   UNL     1      -5.621  -8.695  10.425  0.00  0.00    +0.149 C 
ATOM     10  C   UNL     1      -6.727  -8.492   9.373  0.00  0.00    +0.061 C 
ATOM     11  C   UNL     1      -6.328  -9.383   8.203  0.00  0.00    +0.130 C 
ATOM     12  C   UNL     1      -4.831  -9.547   8.378  0.00  0.00    +0.116 C 
BRANCH  11   4
ATOM      4  O   UNL     1      -6.649  -8.766   6.971  0.00  0.00    -0.390 OA
ATOM     29  H   UNL     1      -5.962  -9.019   6.330  0.00  0.00    +0.210 HD
ENDBRANCH  11   4
BRANCH   6  13
ATOM     13  C   UNL     1      -3.333  -9.559  10.280  0.00  0.00    +0.120 C 
BRANCH  13  15
ATOM     15  C   UNL     1      -2.942 -10.664  11.225  0.00  0.00    -0.033 A 
ATOM     17  C   UNL     1      -2.190 -10.375  12.363  0.00  0.00    +0.005 A 
ATOM     18  C   UNL     1      -3.332 -11.977  10.962  0.00  0.00    +0.005 A 
ATOM     20  C   UNL     1      -1.828 -11.399  13.239  0.00  0.00    +0.000 A 
ATOM     21  C   UNL     1      -2.970 -13.001  11.836  0.00  0.00    +0.000 A 
ATOM     22  C   UNL     1      -2.218 -12.712  12.976  0.00  0.00    +0.000 A 
ENDBRANCH  13  15
ENDBRANCH   6  13
ENDBRANCH  14   9
TORSDOF 6
ENDMDL
MODEL 5
REMARK VINA RESULT:      -6.8     17.587     21.039
REMARK  Name = 26743608
REMARK  6 active torsions:
REMARK  status: ('A' for Active; 'I' for Inactive)
REMARK    1  A    between atoms: O_4  and  C_11
REMARK    2  A    between atoms: N_6  and  C_13
REMARK    3  A    between atoms: C_9  and  C_14
REMARK    4  A    between atoms: C_13  and  C_15
REMARK    5  A    between atoms: C_16  and  C_19
REMARK    6  A    between atoms: C_27  and  C_28
REMARK                            x       y       z     vdW  Elec       q    Type
REMARK                         _______ _______ _______ _____ _____    ______ ____
ROOT
ATOM      5  O   UNL     1       9.988   6.784  -1.216  0.00  0.00    -0.336 OA
ATOM      7  N   UNL     1      10.475   4.985   0.026  0.00  0.00    -0.190 NA
ATOM      8  N   UNL     1       9.776   7.161   0.116  0.00  0.00    -0.056 NA
ATOM     14  C   UNL     1      10.398   5.488  -1.179  0.00  0.00    +0.245 A 
ATOM     16  C   UNL     1      10.084   6.047   0.787  0.00  0.00    +0.202 A 
ENDROOT
BRANCH  16  19
ATOM     19  C   UNL     1      10.011   5.963   2.217  0.00  0.00    +0.022 A 
ATOM     23  C   UNL     1       9.418   6.994   2.948  0.00  0.00    +0.012 A 
ATOM     24  C   UNL     1      10.530   4.850   2.878  0.00  0.00    +0.012 A 
ATOM     25  C   UNL     1       9.346   6.911   4.338  0.00  0.00    +0.013 A 
ATOM     26  C   UNL     1      10.458   4.767   4.268  0.00  0.00    +0.013 A 
ATOM     27  C   UNL     1       9.866   5.798   4.998  0.00  0.00    +0.055 A 
BRANCH  27  28
ATOM      1  F   UNL     1      10.879   6.229   7.123  0.00  0.00    -0.166 F 
ATOM      2  F   UNL     1       9.682   4.423   6.929  0.00  0.00    -0.166 F 
ATOM      3  F   UNL     1       8.717   6.369   7.017  0.00  0.00    -0.166 F 
ATOM     28  C   UNL     1       9.788   5.709   6.485  0.00  0.00    +0.417 C 
ENDBRANCH  27  28
ENDBRANCH  16  19
BRANCH  14   9
ATOM      6  N   UNL     1      11.630   3.698  -2.393  0.00  0.00    -0.285 NA
ATOM      9  C   UNL     1      10.699   4.838  -2.514  0.00  0.00    +0.149 C 
ATOM     10  C   UNL     1       9.444   4.252  -3.187  0.00  0.00    +0.061 C 
ATOM     11  C   UNL     1       9.782   2.790  -3.447  0.00  0.00    +0.130 C 
ATOM     12  C   UNL     1      11.298   2.777  -3.478  0.00  0.00    +0.116 C 
BRANCH  11   4
ATOM      4  O   UNL     1       9.227   2.357  -4.674  0.00  0.00    -0.390 OA
ATOM     29  H   UNL     1       9.907   1.836  -5.134  0.00  0.00    +0.210 HD
ENDBRANCH  11   4
BRANCH   6  13
ATOM     13  C   UNL     1      13.031   4.095  -2.420  0.00  0.00    +0.120 C 
BRANCH  13  15
ATOM     15  C   UNL     1      13.693   3.906  -1.081  0.00  0.00    -0.033 A 
ATOM     17  C   UNL     1      12.977   3.352  -0.020  0.00  0.00    +0.005 A 
ATOM     18  C   UNL     1      15.023   4.286  -0.901  0.00  0.00    +0.005 A 
ATOM     20  C   UNL     1      13.590   3.178   1.220  0.00  0.00    +0.000 A 
ATOM     21  C   UNL     1      15.637   4.113   0.339  0.00  0.00    +0.000 A 
ATOM     22  C   UNL     1      14.920   3.558   1.400  0.00  0.00    +0.000 A 
ENDBRANCH  13  15
ENDBRANCH   6  13
ENDBRANCH  14   9
TORSDOF 6
ENDMDL
MODEL 6
REMARK VINA RESULT:      -6.8     30.478     32.554
REMARK  Name = 26743608
REMARK  6 active torsions:
REMARK  status: ('A' for Active; 'I' for Inactive)
REMARK    1  A    between atoms: O_4  and  C_11
REMARK    2  A    between atoms: N_6  and  C_13
REMARK    3  A    between atoms: C_9  and  C_14
REMARK    4  A    between atoms: C_13  and  C_15
REMARK    5  A    between atoms: C_16  and  C_19
REMARK    6  A    between atoms: C_27  and  C_28
REMARK                            x       y       z     vdW  Elec       q    Type
REMARK                         _______ _______ _______ _____ _____    ______ ____
ROOT
ATOM      5  O   UNL     1     -13.866   6.491  34.884  0.00  0.00    -0.336 OA
ATOM      7  N   UNL     1     -13.608   6.065  32.700  0.00  0.00    -0.190 NA
ATOM      8  N   UNL     1     -14.150   5.130  34.717  0.00  0.00    -0.056 NA
ATOM     14  C   UNL     1     -13.557   6.966  33.648  0.00  0.00    +0.245 A 
ATOM     16  C   UNL     1     -13.975   4.955  33.404  0.00  0.00    +0.202 A 
ENDROOT
BRANCH  16  19
ATOM     19  C   UNL     1     -14.162   3.685  32.763  0.00  0.00    +0.022 A 
ATOM     23  C   UNL     1     -13.797   3.517  31.426  0.00  0.00    +0.012 A 
ATOM     24  C   UNL     1     -14.707   2.617  33.476  0.00  0.00    +0.012 A 
ATOM     25  C   UNL     1     -13.978   2.282  30.804  0.00  0.00    +0.013 A 
ATOM     26  C   UNL     1     -14.888   1.382  32.854  0.00  0.00    +0.013 A 
ATOM     27  C   UNL     1     -14.523   1.215  31.518  0.00  0.00    +0.055 A 
BRANCH  27  28
ATOM      1  F   UNL     1     -15.541  -0.056  29.765  0.00  0.00    -0.166 F 
ATOM      2  F   UNL     1     -15.265  -1.038  31.685  0.00  0.00    -0.166 F 
ATOM      3  F   UNL     1     -13.556  -0.663  30.395  0.00  0.00    -0.166 F 
ATOM     28  C   UNL     1     -14.717  -0.105  30.853  0.00  0.00    +0.417 C 
ENDBRANCH  27  28
ENDBRANCH  16  19
BRANCH  14   9
ATOM      6  N   UNL     1     -12.214   8.846  34.574  0.00  0.00    -0.285 NA
ATOM      9  C   UNL     1     -13.206   8.436  33.559  0.00  0.00    +0.149 C 
ATOM     10  C   UNL     1     -12.568   8.815  32.209  0.00  0.00    +0.061 C 
ATOM     11  C   UNL     1     -11.242   9.472  32.570  0.00  0.00    +0.130 C 
ATOM     12  C   UNL     1     -11.461   9.955  33.991  0.00  0.00    +0.116 C 
BRANCH  11   4
ATOM      4  O   UNL     1     -10.955  10.542  31.690  0.00  0.00    -0.390 OA
ATOM     29  H   UNL     1     -10.012  10.486  31.460  0.00  0.00    +0.210 HD
ENDBRANCH  11   4
BRANCH   6  13
ATOM     13  C   UNL     1     -12.814   9.203  35.853  0.00  0.00    +0.120 C 
BRANCH  13  15
ATOM     15  C   UNL     1     -11.900   8.889  37.007  0.00  0.00    -0.033 A 
ATOM     17  C   UNL     1     -11.081   7.761  36.963  0.00  0.00    +0.005 A 
ATOM     18  C   UNL     1     -11.872   9.727  38.121  0.00  0.00    +0.005 A 
ATOM     20  C   UNL     1     -10.235   7.470  38.033  0.00  0.00    +0.000 A 
ATOM     21  C   UNL     1     -11.027   9.437  39.192  0.00  0.00    +0.000 A 
ATOM     22  C   UNL     1     -10.208   8.308  39.148  0.00  0.00    +0.000 A 
ENDBRANCH  13  15
ENDBRANCH   6  13
ENDBRANCH  14   9
TORSDOF 6
ENDMDL
MODEL 7
REMARK VINA RESULT:      -6.8      4.775      9.735
REMARK  Name = 26743608
REMARK  6 active torsions:
REMARK  status: ('A' for Active; 'I' for Inactive)
REMARK    1  A    between atoms: O_4  and  C_11
REMARK    2  A    between atoms: N_6  and  C_13
REMARK    3  A    between atoms: C_9  and  C_14
REMARK    4  A    between atoms: C_13  and  C_15
REMARK    5  A    between atoms: C_16  and  C_19
REMARK    6  A    between atoms: C_27  and  C_28
REMARK                            x       y       z     vdW  Elec       q    Type
REMARK                         _______ _______ _______ _____ _____    ______ ____
ROOT
ATOM      5  O   UNL     1      18.387   5.644  19.376  0.00  0.00    -0.336 OA
ATOM      7  N   UNL     1      17.521   6.805  21.084  0.00  0.00    -0.190 NA
ATOM      8  N   UNL     1      17.040   5.856  19.058  0.00  0.00    -0.056 NA
ATOM     14  C   UNL     1      18.587   6.234  20.584  0.00  0.00    +0.245 A 
ATOM     16  C   UNL     1      16.598   6.547  20.113  0.00  0.00    +0.202 A 
ENDROOT
BRANCH  16  19
ATOM     19  C   UNL     1      15.239   6.993  20.229  0.00  0.00    +0.022 A 
ATOM     23  C   UNL     1      14.430   7.070  19.094  0.00  0.00    +0.012 A 
ATOM     24  C   UNL     1      14.725   7.348  21.476  0.00  0.00    +0.012 A 
ATOM     25  C   UNL     1      13.109   7.503  19.207  0.00  0.00    +0.013 A 
ATOM     26  C   UNL     1      13.404   7.780  21.589  0.00  0.00    +0.013 A 
ATOM     27  C   UNL     1      12.597   7.857  20.454  0.00  0.00    +0.055 A 
BRANCH  27  28
ATOM      1  F   UNL     1      10.377   7.446  21.248  0.00  0.00    -0.166 F 
ATOM      2  F   UNL     1      10.587   8.508  19.362  0.00  0.00    -0.166 F 
ATOM      3  F   UNL     1      11.051   9.508  21.236  0.00  0.00    -0.166 F 
ATOM     28  C   UNL     1      11.184   8.319  20.575  0.00  0.00    +0.417 C 
ENDBRANCH  27  28
ENDBRANCH  16  19
BRANCH  14   9
ATOM      6  N   UNL     1      20.854   5.223  20.392  0.00  0.00    -0.285 NA
ATOM      9  C   UNL     1      19.987   6.145  21.155  0.00  0.00    +0.149 C 
ATOM     10  C   UNL     1      20.728   7.494  21.130  0.00  0.00    +0.061 C 
ATOM     11  C   UNL     1      22.020   7.221  20.370  0.00  0.00    +0.130 C 
ATOM     12  C   UNL     1      22.219   5.727  20.535  0.00  0.00    +0.116 C 
BRANCH  11   4
ATOM      4  O   UNL     1      23.093   7.958  20.924  0.00  0.00    -0.390 OA
ATOM     29  H   UNL     1      23.918   7.578  20.577  0.00  0.00    +0.210 HD
ENDBRANCH  11   4
BRANCH   6  13
ATOM     13  C   UNL     1      20.734   3.835  20.818  0.00  0.00    +0.120 C 
BRANCH  13  15
ATOM     15  C   UNL     1      21.984   3.348  21.498  0.00  0.00    -0.033 A 
ATOM     17  C   UNL     1      22.889   2.545  20.804  0.00  0.00    +0.005 A 
ATOM     18  C   UNL     1      22.238   3.698  22.824  0.00  0.00    +0.005 A 
ATOM     20  C   UNL     1      24.048   2.092  21.435  0.00  0.00    +0.000 A 
ATOM     21  C   UNL     1      23.397   3.246  23.456  0.00  0.00    +0.000 A 
ATOM     22  C   UNL     1      24.302   2.443  22.761  0.00  0.00    +0.000 A 
ENDBRANCH  13  15
ENDBRANCH   6  13
ENDBRANCH  14   9
TORSDOF 6
ENDMDL
MODEL 8
REMARK VINA RESULT:      -6.8     27.207     28.715
REMARK  Name = 26743608
REMARK  6 active torsions:
REMARK  status: ('A' for Active; 'I' for Inactive)
REMARK    1  A    between atoms: O_4  and  C_11
REMARK    2  A    between atoms: N_6  and  C_13
REMARK    3  A    between atoms: C_9  and  C_14
REMARK    4  A    between atoms: C_13  and  C_15
REMARK    5  A    between atoms: C_16  and  C_19
REMARK    6  A    between atoms: C_27  and  C_28
REMARK                            x       y       z     vdW  Elec       q    Type
REMARK                         _______ _______ _______ _____ _____    ______ ____
ROOT
ATOM      5  O   UNL     1     -12.443  11.708  19.370  0.00  0.00    -0.336 OA
ATOM      7  N   UNL     1     -11.254  10.449  20.791  0.00  0.00    -0.190 NA
ATOM      8  N   UNL     1     -13.040  11.869  20.627  0.00  0.00    -0.056 NA
ATOM     14  C   UNL     1     -11.400  10.856  19.556  0.00  0.00    +0.245 A 
ATOM     16  C   UNL     1     -12.283  11.096  21.411  0.00  0.00    +0.202 A 
ENDROOT
BRANCH  16  19
ATOM     19  C   UNL     1     -12.529  10.947  22.816  0.00  0.00    +0.022 A 
ATOM     23  C   UNL     1     -11.702  11.586  23.741  0.00  0.00    +0.012 A 
ATOM     24  C   UNL     1     -13.595  10.164  23.259  0.00  0.00    +0.012 A 
ATOM     25  C   UNL     1     -11.941  11.441  25.108  0.00  0.00    +0.013 A 
ATOM     26  C   UNL     1     -13.835  10.019  24.625  0.00  0.00    +0.013 A 
ATOM     27  C   UNL     1     -13.008  10.658  25.549  0.00  0.00    +0.055 A 
BRANCH  27  28
ATOM      1  F   UNL     1     -12.360   9.700  27.644  0.00  0.00    -0.166 F 
ATOM      2  F   UNL     1     -14.487   9.958  27.274  0.00  0.00    -0.166 F 
ATOM      3  F   UNL     1     -13.235  11.684  27.699  0.00  0.00    -0.166 F 
ATOM     28  C   UNL     1     -13.264  10.504  27.010  0.00  0.00    +0.417 C 
ENDBRANCH  27  28
ENDBRANCH  16  19
BRANCH  14   9
ATOM      6  N   UNL     1     -11.259   9.555  17.439  0.00  0.00    -0.285 NA
ATOM      9  C   UNL     1     -10.579  10.518  18.329  0.00  0.00    +0.149 C 
ATOM     10  C   UNL     1     -10.300  11.745  17.442  0.00  0.00    +0.061 C 
ATOM     11  C   UNL     1     -10.817  11.360  16.062  0.00  0.00    +0.130 C 
ATOM     12  C   UNL     1     -10.792   9.844  16.084  0.00  0.00    +0.116 C 
BRANCH  11   4
ATOM      4  O   UNL     1      -9.981  11.885  15.048  0.00  0.00    -0.390 OA
ATOM     29  H   UNL     1      -9.726  12.784  15.316  0.00  0.00    +0.210 HD
ENDBRANCH  11   4
BRANCH   6  13
ATOM     13  C   UNL     1     -11.031   8.166  17.812  0.00  0.00    +0.120 C 
BRANCH  13  15
ATOM     15  C   UNL     1     -11.960   7.720  18.910  0.00  0.00    -0.033 A 
ATOM     17  C   UNL     1     -13.328   7.973  18.811  0.00  0.00    +0.005 A 
ATOM     18  C   UNL     1     -11.453   7.055  20.025  0.00  0.00    +0.005 A 
ATOM     20  C   UNL     1     -14.189   7.561  19.829  0.00  0.00    +0.000 A 
ATOM     21  C   UNL     1     -12.313   6.642  21.043  0.00  0.00    +0.000 A 
ATOM     22  C   UNL     1     -13.682   6.896  20.944  0.00  0.00    +0.000 A 
ENDBRANCH  13  15
ENDBRANCH   6  13
ENDBRANCH  14   9
TORSDOF 6
ENDMDL
MODEL 9
REMARK VINA RESULT:      -6.7     28.024     29.990
REMARK  Name = 26743608
REMARK  6 active torsions:
REMARK  status: ('A' for Active; 'I' for Inactive)
REMARK    1  A    between atoms: O_4  and  C_11
REMARK    2  A    between atoms: N_6  and  C_13
REMARK    3  A    between atoms: C_9  and  C_14
REMARK    4  A    between atoms: C_13  and  C_15
REMARK    5  A    between atoms: C_16  and  C_19
REMARK    6  A    between atoms: C_27  and  C_28
REMARK                            x       y       z     vdW  Elec       q    Type
REMARK                         _______ _______ _______ _____ _____    ______ ____
ROOT
ATOM      5  O   UNL     1      -6.764 -11.014  20.092  0.00  0.00    -0.336 OA
ATOM      7  N   UNL     1      -7.128 -11.697  17.991  0.00  0.00    -0.190 NA
ATOM      8  N   UNL     1      -5.620 -10.663  19.365  0.00  0.00    -0.056 NA
ATOM     14  C   UNL     1      -7.601 -11.618  19.208  0.00  0.00    +0.245 A 
ATOM     16  C   UNL     1      -5.911 -11.098  18.135  0.00  0.00    +0.202 A 
ENDROOT
BRANCH  16  19
ATOM     19  C   UNL     1      -5.007 -10.953  17.031  0.00  0.00    +0.022 A 
ATOM     23  C   UNL     1      -5.502 -10.676  15.756  0.00  0.00    +0.012 A 
ATOM     24  C   UNL     1      -3.634 -11.087  17.231  0.00  0.00    +0.012 A 
ATOM     25  C   UNL     1      -4.623 -10.534  14.682  0.00  0.00    +0.013 A 
ATOM     26  C   UNL     1      -2.754 -10.945  16.158  0.00  0.00    +0.013 A 
ATOM     27  C   UNL     1      -3.250 -10.668  14.884  0.00  0.00    +0.055 A 
BRANCH  27  28
ATOM      1  F   UNL     1      -2.913 -10.097  12.585  0.00  0.00    -0.166 F 
ATOM      2  F   UNL     1      -1.679 -11.684  13.415  0.00  0.00    -0.166 F 
ATOM      3  F   UNL     1      -1.310  -9.613  13.963  0.00  0.00    -0.166 F 
ATOM     28  C   UNL     1      -2.310 -10.516  13.736  0.00  0.00    +0.417 C 
ENDBRANCH  27  28
ENDBRANCH  16  19
BRANCH  14   9
ATOM      6  N   UNL     1     -10.079 -11.608  18.966  0.00  0.00    -0.285 NA
ATOM      9  C   UNL     1      -8.930 -12.096  19.756  0.00  0.00    +0.149 C 
ATOM     10  C   UNL     1      -9.063 -13.630  19.740  0.00  0.00    +0.061 C 
ATOM     11  C   UNL     1     -10.340 -13.906  18.956  0.00  0.00    +0.130 C 
ATOM     12  C   UNL     1     -11.128 -12.618  19.096  0.00  0.00    +0.116 C 
BRANCH  11   4
ATOM      4  O   UNL     1     -11.036 -15.010  19.504  0.00  0.00    -0.390 OA
ATOM     29  H   UNL     1     -11.817 -15.169  18.947  0.00  0.00    +0.210 HD
ENDBRANCH  11   4
BRANCH   6  13
ATOM     13  C   UNL     1     -10.537 -10.287  19.374  0.00  0.00    +0.120 C 
BRANCH  13  15
ATOM     15  C   UNL     1     -10.671  -9.354  18.200  0.00  0.00    -0.033 A 
ATOM     17  C   UNL     1     -11.935  -9.031  17.706  0.00  0.00    +0.005 A 
ATOM     18  C   UNL     1      -9.532  -8.812  17.606  0.00  0.00    +0.005 A 
ATOM     20  C   UNL     1     -12.060  -8.167  16.618  0.00  0.00    +0.000 A 
ATOM     21  C   UNL     1      -9.655  -7.948  16.517  0.00  0.00    +0.000 A 
ATOM     22  C   UNL     1     -10.920  -7.626  16.024  0.00  0.00    +0.000 A 
ENDBRANCH  13  15
ENDBRANCH   6  13
ENDBRANCH  14   9
TORSDOF 6
ENDMDL
MODEL 10
REMARK VINA RESULT:      -6.6     17.011     20.359
REMARK  Name = 26743608
REMARK  6 active torsions:
REMARK  status: ('A' for Active; 'I' for Inactive)
REMARK    1  A    between atoms: O_4  and  C_11
REMARK    2  A    between atoms: N_6  and  C_13
REMARK    3  A    between atoms: C_9  and  C_14
REMARK    4  A    between atoms: C_13  and  C_15
REMARK    5  A    between atoms: C_16  and  C_19
REMARK    6  A    between atoms: C_27  and  C_28
REMARK                            x       y       z     vdW  Elec       q    Type
REMARK                         _______ _______ _______ _____ _____    ______ ____
ROOT
ATOM      5  O   UNL     1      12.233   6.027   0.825  0.00  0.00    -0.336 OA
ATOM      7  N   UNL     1      12.211   4.329   2.285  0.00  0.00    -0.190 NA
ATOM      8  N   UNL     1      11.659   6.530   1.999  0.00  0.00    -0.056 NA
ATOM     14  C   UNL     1      12.528   4.724   1.079  0.00  0.00    +0.245 A 
ATOM     16  C   UNL     1      11.682   5.470   2.813  0.00  0.00    +0.202 A 
ENDROOT
BRANCH  16  19
ATOM     19  C   UNL     1      11.182   5.517   4.156  0.00  0.00    +0.022 A 
ATOM     23  C   UNL     1      11.668   6.473   5.049  0.00  0.00    +0.012 A 
ATOM     24  C   UNL     1      10.208   4.609   4.571  0.00  0.00    +0.012 A 
ATOM     25  C   UNL     1      11.182   6.519   6.355  0.00  0.00    +0.013 A 
ATOM     26  C   UNL     1       9.720   4.655   5.876  0.00  0.00    +0.013 A 
ATOM     27  C   UNL     1      10.208   5.610   6.768  0.00  0.00    +0.055 A 
BRANCH  27  28
ATOM      1  F   UNL     1       8.721   6.607   8.356  0.00  0.00    -0.166 F 
ATOM      2  F   UNL     1      10.661   5.940   9.079  0.00  0.00    -0.166 F 
ATOM      3  F   UNL     1       9.122   4.487   8.580  0.00  0.00    -0.166 F 
ATOM     28  C   UNL     1       9.686   5.660   8.165  0.00  0.00    +0.417 C 
ENDBRANCH  27  28
ENDBRANCH  16  19
BRANCH  14   9
ATOM      6  N   UNL     1      12.513   4.191  -1.353  0.00  0.00    -0.285 NA
ATOM      9  C   UNL     1      13.169   3.946  -0.051  0.00  0.00    +0.149 C 
ATOM     10  C   UNL     1      14.644   4.326  -0.276  0.00  0.00    +0.061 C 
ATOM     11  C   UNL     1      14.729   4.729  -1.743  0.00  0.00    +0.130 C 
ATOM     12  C   UNL     1      13.546   4.020  -2.373  0.00  0.00    +0.116 C 
BRANCH  11   4
ATOM      4  O   UNL     1      15.956   4.308  -2.308  0.00  0.00    -0.390 OA
ATOM     29  H   UNL     1      15.759   3.925  -3.180  0.00  0.00    +0.210 HD
ENDBRANCH  11   4
BRANCH   6  13
ATOM     13  C   UNL     1      11.362   3.329  -1.588  0.00  0.00    +0.120 C 
BRANCH  13  15
ATOM     15  C   UNL     1      10.314   4.010  -2.427  0.00  0.00    -0.033 A 
ATOM     17  C   UNL     1       9.721   5.190  -1.979  0.00  0.00    +0.005 A 
ATOM     18  C   UNL     1       9.936   3.460  -3.651  0.00  0.00    +0.005 A 
ATOM     20  C   UNL     1       8.749   5.821  -2.756  0.00  0.00    +0.000 A 
ATOM     21  C   UNL     1       8.964   4.090  -4.429  0.00  0.00    +0.000 A 
ATOM     22  C   UNL     1       8.371   5.271  -3.981  0.00  0.00    +0.000 A 
ENDBRANCH  13  15
ENDBRANCH   6  13
ENDBRANCH  14   9
TORSDOF 6
ENDMDL
