MODEL 1
REMARK VINA RESULT:      -7.5      0.000      0.000
REMARK  Name = 11882498
REMARK  10 active torsions:
REMARK  status: ('A' for Active; 'I' for Inactive)
REMARK    1  A    between atoms: S_1  and  N_10
REMARK    2  A    between atoms: S_1  and  C_23
REMARK    3  A    between atoms: N_10  and  C_14
REMARK    4  A    between atoms: N_11  and  C_21
REMARK    5  A    between atoms: C_16  and  C_19
REMARK    6  A    between atoms: C_20  and  C_22
REMARK    7  A    between atoms: C_21  and  C_24
REMARK    8  A    between atoms: C_21  and  C_25
REMARK    9  A    between atoms: C_24  and  C_27
REMARK   10  A    between atoms: C_29  and  C_34
REMARK                            x       y       z     vdW  Elec       q    Type
REMARK                         _______ _______ _______ _____ _____    ______ ____
ROOT
ATOM      5  O   UNL     1      17.474   5.646  19.679  0.00  0.00    -0.268 OA
ATOM      9  N   UNL     1      16.533   7.548  20.634  0.00  0.00    -0.285 N 
ATOM     14  C   UNL     1      14.346   9.141  21.748  0.00  0.00    +0.080 C 
ATOM     15  C   UNL     1      14.195   7.631  21.544  0.00  0.00    +0.052 C 
ATOM     16  C   UNL     1      15.153   7.067  20.496  0.00  0.00    +0.164 C 
ATOM     17  C   UNL     1      15.808   9.486  22.018  0.00  0.00    +0.039 C 
ATOM     18  C   UNL     1      16.712   8.987  20.896  0.00  0.00    +0.110 C 
ATOM     20  C   UNL     1      17.589   6.647  20.385  0.00  0.00    +0.266 C 
ENDROOT
BRANCH  20  22
ATOM      3  S   UNL     1      20.748   7.248  22.682  0.00  0.00    -0.080 S 
ATOM     12  N   UNL     1      19.944   7.338  20.226  0.00  0.00    -0.240 NA
ATOM     22  C   UNL     1      18.879   6.934  21.004  0.00  0.00    +0.133 A 
ATOM     26  C   UNL     1      19.118   6.826  22.354  0.00  0.00    +0.080 A 
ATOM     29  C   UNL     1      20.984   7.534  21.006  0.00  0.00    +0.076 A 
ATOM     34  C   UNL     1      22.314   7.974  20.531  0.00  0.00    +0.073 C 
ENDBRANCH  20  22
BRANCH  16  19
ATOM      4  O   UNL     1      15.303   6.939  18.116  0.00  0.00    -0.274 OA
ATOM     11  N   UNL     1      13.648   8.270  19.071  0.00  0.00    -0.302 N 
ATOM     19  C   UNL     1      14.723   7.398  19.097  0.00  0.00    +0.234 C 
ATOM     39  H   UNL     1      13.215   8.544  19.948  0.00  0.00    +0.150 HD
BRANCH  11  21
ATOM     21  C   UNL     1      13.059   8.761  17.847  0.00  0.00    +0.163 C 
BRANCH  21  25
ATOM      8  O   UNL     1      11.000   7.930  16.857  0.00  0.00    -0.274 OA
ATOM     13  N   UNL     1      11.022   8.412  19.103  0.00  0.00    -0.328 N 
ATOM     25  C   UNL     1      11.597   8.338  17.852  0.00  0.00    +0.231 C 
ATOM     40  H   UNL     1      11.535   8.729  19.920  0.00  0.00    +0.145 HD
ATOM     41  H   UNL     1      10.054   8.147  19.248  0.00  0.00    +0.145 HD
ENDBRANCH  21  25
BRANCH  21  24
ATOM     24  C   UNL     1      13.175  10.285  17.717  0.00  0.00    +0.067 C 
BRANCH  24  27
ATOM     27  C   UNL     1      14.249  10.714  16.758  0.00  0.00    -0.045 A 
ATOM     32  C   UNL     1      14.443   9.999  15.582  0.00  0.00    +0.004 A 
ATOM     33  C   UNL     1      15.036  11.819  17.057  0.00  0.00    +0.004 A 
ATOM     35  C   UNL     1      15.441  10.397  14.691  0.00  0.00    +0.000 A 
ATOM     36  C   UNL     1      16.032  12.217  16.166  0.00  0.00    +0.000 A 
ATOM     37  C   UNL     1      16.235  11.506  14.983  0.00  0.00    +0.000 A 
ENDBRANCH  24  27
ENDBRANCH  21  24
ENDBRANCH  11  21
ENDBRANCH  16  19
BRANCH  14  10
ATOM     10  N   UNL     1      13.504   9.598  22.828  0.00  0.00    -0.186 NA
ATOM     38  H   UNL     1      13.960  10.139  23.573  0.00  0.00    +0.148 HD
BRANCH  10   1
ATOM      1  S   UNL     1      11.863   9.930  22.474  0.00  0.00    +0.065 S 
ATOM      6  O   UNL     1      11.048   8.790  22.850  0.00  0.00    -0.153 OA
ATOM      7  O   UNL     1      11.778  10.512  21.150  0.00  0.00    -0.153 OA
BRANCH   1  23
ATOM      2  S   UNL     1      11.027  12.718  22.743  0.00  0.00    -0.077 S 
ATOM     23  C   UNL     1      11.347  11.263  23.556  0.00  0.00    +0.142 A 
ATOM     28  C   UNL     1      11.166  11.326  24.897  0.00  0.00    +0.036 A 
ATOM     30  C   UNL     1      10.743  12.627  25.294  0.00  0.00    +0.010 A 
ATOM     31  C   UNL     1      10.626  13.483  24.222  0.00  0.00    +0.047 A 
ENDBRANCH   1  23
ENDBRANCH  10   1
ENDBRANCH  14  10
TORSDOF 9
ENDMDL
MODEL 2
REMARK VINA RESULT:      -7.0     13.791     17.352
REMARK  Name = 11882498
REMARK  10 active torsions:
REMARK  status: ('A' for Active; 'I' for Inactive)
REMARK    1  A    between atoms: S_1  and  N_10
REMARK    2  A    between atoms: S_1  and  C_23
REMARK    3  A    between atoms: N_10  and  C_14
REMARK    4  A    between atoms: N_11  and  C_21
REMARK    5  A    between atoms: C_16  and  C_19
REMARK    6  A    between atoms: C_20  and  C_22
REMARK    7  A    between atoms: C_21  and  C_24
REMARK    8  A    between atoms: C_21  and  C_25
REMARK    9  A    between atoms: C_24  and  C_27
REMARK   10  A    between atoms: C_29  and  C_34
REMARK                            x       y       z     vdW  Elec       q    Type
REMARK                         _______ _______ _______ _____ _____    ______ ____
ROOT
ATOM      5  O   UNL     1      11.225   3.713   2.439  0.00  0.00    -0.268 OA
ATOM      9  N   UNL     1      11.069   5.984   2.926  0.00  0.00    -0.285 N 
ATOM     14  C   UNL     1      11.558   8.384   4.526  0.00  0.00    +0.080 C 
ATOM     15  C   UNL     1      12.345   7.096   4.780  0.00  0.00    +0.052 C 
ATOM     16  C   UNL     1      11.629   5.845   4.276  0.00  0.00    +0.164 C 
ATOM     17  C   UNL     1      11.158   8.468   3.055  0.00  0.00    +0.039 C 
ATOM     18  C   UNL     1      10.361   7.241   2.626  0.00  0.00    +0.110 C 
ATOM     20  C   UNL     1      11.131   4.877   2.053  0.00  0.00    +0.266 C 
ENDROOT
BRANCH  20  22
ATOM      3  S   UNL     1      11.685   5.763  -1.758  0.00  0.00    -0.080 S 
ATOM     12  N   UNL     1       9.888   4.993  -0.067  0.00  0.00    -0.240 NA
ATOM     22  C   UNL     1      11.075   5.146   0.620  0.00  0.00    +0.133 A 
ATOM     26  C   UNL     1      12.158   5.556  -0.122  0.00  0.00    +0.080 A 
ATOM     29  C   UNL     1      10.092   5.292  -1.330  0.00  0.00    +0.076 A 
ATOM     34  C   UNL     1       9.050   5.244  -2.379  0.00  0.00    +0.073 C 
ENDBRANCH  20  22
BRANCH  16  19
ATOM      4  O   UNL     1       9.657   4.612   4.820  0.00  0.00    -0.274 OA
ATOM     11  N   UNL     1      10.507   6.124   6.374  0.00  0.00    -0.302 N 
ATOM     19  C   UNL     1      10.493   5.442   5.169  0.00  0.00    +0.234 C 
ATOM     39  H   UNL     1      11.278   6.752   6.576  0.00  0.00    +0.150 HD
BRANCH  11  21
ATOM     21  C   UNL     1       9.507   5.935   7.400  0.00  0.00    +0.163 C 
BRANCH  21  25
ATOM      8  O   UNL     1      10.484   5.366   9.551  0.00  0.00    -0.274 OA
ATOM     13  N   UNL     1      10.131   3.684   8.027  0.00  0.00    -0.328 N 
ATOM     25  C   UNL     1      10.105   4.999   8.441  0.00  0.00    +0.231 C 
ATOM     40  H   UNL     1       9.793   3.393   7.115  0.00  0.00    +0.145 HD
ATOM     41  H   UNL     1      10.494   2.955   8.631  0.00  0.00    +0.145 HD
ENDBRANCH  21  25
BRANCH  21  24
ATOM     24  C   UNL     1       9.084   7.258   8.049  0.00  0.00    +0.067 C 
BRANCH  24  27
ATOM     27  C   UNL     1       8.840   8.353   7.049  0.00  0.00    -0.045 A 
ATOM     32  C   UNL     1       9.376   9.617   7.272  0.00  0.00    +0.004 A 
ATOM     33  C   UNL     1       8.085   8.092   5.914  0.00  0.00    +0.004 A 
ATOM     35  C   UNL     1       9.151  10.634   6.344  0.00  0.00    +0.000 A 
ATOM     36  C   UNL     1       7.860   9.109   4.986  0.00  0.00    +0.000 A 
ATOM     37  C   UNL     1       8.392  10.379   5.201  0.00  0.00    +0.000 A 
ENDBRANCH  24  27
ENDBRANCH  21  24
ENDBRANCH  11  21
ENDBRANCH  16  19
BRANCH  14  10
ATOM     10  N   UNL     1      12.332   9.541   4.913  0.00  0.00    -0.186 NA
ATOM     38  H   UNL     1      12.052  10.441   4.504  0.00  0.00    +0.148 HD
BRANCH  10   1
ATOM      1  S   UNL     1      13.038   9.542   6.471  0.00  0.00    +0.065 S 
ATOM      6  O   UNL     1      12.624   8.352   7.189  0.00  0.00    -0.153 OA
ATOM      7  O   UNL     1      12.889  10.862   7.051  0.00  0.00    -0.153 OA
BRANCH   1  23
ATOM      2  S   UNL     1      15.624  10.859   6.117  0.00  0.00    -0.077 S 
ATOM     23  C   UNL     1      14.809   9.375   6.250  0.00  0.00    +0.142 A 
ATOM     28  C   UNL     1      15.616   8.290   6.169  0.00  0.00    +0.036 A 
ATOM     30  C   UNL     1      16.975   8.677   5.990  0.00  0.00    +0.010 A 
ATOM     31  C   UNL     1      17.122  10.046   5.944  0.00  0.00    +0.047 A 
ENDBRANCH   1  23
ENDBRANCH  10   1
ENDBRANCH  14  10
TORSDOF 9
ENDMDL
MODEL 3
REMARK VINA RESULT:      -6.8     27.525     31.139
REMARK  Name = 11882498
REMARK  10 active torsions:
REMARK  status: ('A' for Active; 'I' for Inactive)
REMARK    1  A    between atoms: S_1  and  N_10
REMARK    2  A    between atoms: S_1  and  C_23
REMARK    3  A    between atoms: N_10  and  C_14
REMARK    4  A    between atoms: N_11  and  C_21
REMARK    5  A    between atoms: C_16  and  C_19
REMARK    6  A    between atoms: C_20  and  C_22
REMARK    7  A    between atoms: C_21  and  C_24
REMARK    8  A    between atoms: C_21  and  C_25
REMARK    9  A    between atoms: C_24  and  C_27
REMARK   10  A    between atoms: C_29  and  C_34
REMARK                            x       y       z     vdW  Elec       q    Type
REMARK                         _______ _______ _______ _____ _____    ______ ____
ROOT
ATOM      5  O   UNL     1      -6.711  -8.867   5.714  0.00  0.00    -0.268 OA
ATOM      9  N   UNL     1      -6.487  -9.384   7.972  0.00  0.00    -0.285 N 
ATOM     14  C   UNL     1      -4.985 -10.022  10.402  0.00  0.00    +0.080 C 
ATOM     15  C   UNL     1      -4.278  -9.463   9.164  0.00  0.00    +0.052 C 
ATOM     16  C   UNL     1      -5.056  -9.698   7.870  0.00  0.00    +0.164 C 
ATOM     17  C   UNL     1      -6.421  -9.505  10.458  0.00  0.00    +0.039 C 
ATOM     18  C   UNL     1      -7.185  -9.850   9.184  0.00  0.00    +0.110 C 
ATOM     20  C   UNL     1      -7.124  -8.777   6.870  0.00  0.00    +0.266 C 
ENDROOT
BRANCH  20  22
ATOM      3  S   UNL     1     -10.748  -7.245   7.236  0.00  0.00    -0.080 S 
ATOM     12  N   UNL     1      -8.264  -6.806   7.801  0.00  0.00    -0.240 NA
ATOM     22  C   UNL     1      -8.338  -8.011   7.131  0.00  0.00    +0.133 A 
ATOM     26  C   UNL     1      -9.594  -8.416   6.745  0.00  0.00    +0.080 A 
ATOM     29  C   UNL     1      -9.477  -6.312   7.912  0.00  0.00    +0.076 A 
ATOM     34  C   UNL     1      -9.800  -5.029   8.574  0.00  0.00    +0.073 C 
ENDBRANCH  20  22
BRANCH  16  19
ATOM      4  O   UNL     1      -4.918 -12.061   8.192  0.00  0.00    -0.274 OA
ATOM     11  N   UNL     1      -4.917 -11.216   6.022  0.00  0.00    -0.302 N 
ATOM     19  C   UNL     1      -4.964 -11.121   7.402  0.00  0.00    +0.234 C 
ATOM     39  H   UNL     1      -5.015 -10.372   5.465  0.00  0.00    +0.150 HD
BRANCH  11  21
ATOM     21  C   UNL     1      -4.805 -12.474   5.321  0.00  0.00    +0.163 C 
BRANCH  21  25
ATOM      8  O   UNL     1      -6.598 -14.095   5.067  0.00  0.00    -0.274 OA
ATOM     13  N   UNL     1      -7.045 -11.885   4.626  0.00  0.00    -0.328 N 
ATOM     25  C   UNL     1      -6.218 -12.929   4.985  0.00  0.00    +0.231 C 
ATOM     40  H   UNL     1      -6.722 -10.923   4.586  0.00  0.00    +0.145 HD
ATOM     41  H   UNL     1      -8.017 -12.048   4.390  0.00  0.00    +0.145 HD
ENDBRANCH  21  25
BRANCH  21  24
ATOM     24  C   UNL     1      -3.963 -12.354   4.044  0.00  0.00    +0.067 C 
BRANCH  24  27
ATOM     27  C   UNL     1      -2.689 -13.149   4.102  0.00  0.00    -0.045 A 
ATOM     32  C   UNL     1      -2.027 -13.470   2.922  0.00  0.00    +0.004 A 
ATOM     33  C   UNL     1      -2.186 -13.552   5.332  0.00  0.00    +0.004 A 
ATOM     35  C   UNL     1      -0.843 -14.207   2.976  0.00  0.00    +0.000 A 
ATOM     36  C   UNL     1      -1.003 -14.288   5.385  0.00  0.00    +0.000 A 
ATOM     37  C   UNL     1      -0.332 -14.617   4.208  0.00  0.00    +0.000 A 
ENDBRANCH  24  27
ENDBRANCH  21  24
ENDBRANCH  11  21
ENDBRANCH  16  19
BRANCH  14  10
ATOM     10  N   UNL     1      -4.267  -9.669  11.603  0.00  0.00    -0.186 NA
ATOM     38  H   UNL     1      -4.826  -9.310  12.387  0.00  0.00    +0.148 HD
BRANCH  10   1
ATOM      1  S   UNL     1      -2.835 -10.534  11.959  0.00  0.00    +0.065 S 
ATOM      6  O   UNL     1      -1.688  -9.791  11.469  0.00  0.00    -0.153 OA
ATOM      7  O   UNL     1      -3.031 -11.928  11.614  0.00  0.00    -0.153 OA
BRANCH   1  23
ATOM      2  S   UNL     1      -4.107 -10.891  14.566  0.00  0.00    -0.077 S 
ATOM     23  C   UNL     1      -2.660 -10.560  13.742  0.00  0.00    +0.142 A 
ATOM     28  C   UNL     1      -1.592 -10.366  14.553  0.00  0.00    +0.036 A 
ATOM     30  C   UNL     1      -1.963 -10.491  15.923  0.00  0.00    +0.010 A 
ATOM     31  C   UNL     1      -3.302 -10.776  16.073  0.00  0.00    +0.047 A 
ENDBRANCH   1  23
ENDBRANCH  10   1
ENDBRANCH  14  10
TORSDOF 9
ENDMDL
MODEL 4
REMARK VINA RESULT:      -6.8     27.689     30.430
REMARK  Name = 11882498
REMARK  10 active torsions:
REMARK  status: ('A' for Active; 'I' for Inactive)
REMARK    1  A    between atoms: S_1  and  N_10
REMARK    2  A    between atoms: S_1  and  C_23
REMARK    3  A    between atoms: N_10  and  C_14
REMARK    4  A    between atoms: N_11  and  C_21
REMARK    5  A    between atoms: C_16  and  C_19
REMARK    6  A    between atoms: C_20  and  C_22
REMARK    7  A    between atoms: C_21  and  C_24
REMARK    8  A    between atoms: C_21  and  C_25
REMARK    9  A    between atoms: C_24  and  C_27
REMARK   10  A    between atoms: C_29  and  C_34
REMARK                            x       y       z     vdW  Elec       q    Type
REMARK                         _______ _______ _______ _____ _____    ______ ____
ROOT
ATOM      5  O   UNL     1      -3.263  -9.964   9.971  0.00  0.00    -0.268 OA
ATOM      9  N   UNL     1      -5.401 -10.483  10.732  0.00  0.00    -0.285 N 
ATOM     14  C   UNL     1      -7.675 -10.287  12.563  0.00  0.00    +0.080 C 
ATOM     15  C   UNL     1      -6.543  -9.257  12.602  0.00  0.00    +0.052 C 
ATOM     16  C   UNL     1      -5.235  -9.779  12.010  0.00  0.00    +0.164 C 
ATOM     17  C   UNL     1      -7.830 -10.836  11.146  0.00  0.00    +0.039 C 
ATOM     18  C   UNL     1      -6.523 -11.434  10.638  0.00  0.00    +0.110 C 
ATOM     20  C   UNL     1      -4.421 -10.305   9.733  0.00  0.00    +0.266 C 
ENDROOT
BRANCH  20  22
ATOM      3  S   UNL     1      -5.857 -10.333   6.051  0.00  0.00    -0.080 S 
ATOM     12  N   UNL     1      -4.385 -11.681   7.694  0.00  0.00    -0.240 NA
ATOM     22  C   UNL     1      -4.819 -10.548   8.350  0.00  0.00    +0.133 A 
ATOM     26  C   UNL     1      -5.624  -9.698   7.627  0.00  0.00    +0.080 A 
ATOM     29  C   UNL     1      -4.872 -11.673   6.473  0.00  0.00    +0.076 A 
ATOM     34  C   UNL     1      -4.623 -12.729   5.467  0.00  0.00    +0.073 C 
ENDBRANCH  20  22
BRANCH  16  19
ATOM      4  O   UNL     1      -4.146 -11.835  12.555  0.00  0.00    -0.274 OA
ATOM     11  N   UNL     1      -4.412 -10.225  14.216  0.00  0.00    -0.302 N 
ATOM     19  C   UNL     1      -4.534 -10.732  12.933  0.00  0.00    +0.234 C 
ATOM     39  H   UNL     1      -4.724  -9.276  14.403  0.00  0.00    +0.150 HD
BRANCH  11  21
ATOM     21  C   UNL     1      -3.795 -10.955  15.298  0.00  0.00    +0.163 C 
BRANCH  21  25
ATOM      8  O   UNL     1      -1.581  -9.989  15.035  0.00  0.00    -0.274 OA
ATOM     13  N   UNL     1      -1.822 -12.262  14.806  0.00  0.00    -0.328 N 
ATOM     25  C   UNL     1      -2.299 -10.987  15.023  0.00  0.00    +0.231 C 
ATOM     40  H   UNL     1      -2.424 -13.079  14.822  0.00  0.00    +0.145 HD
ATOM     41  H   UNL     1      -0.838 -12.425  14.623  0.00  0.00    +0.145 HD
ENDBRANCH  21  25
BRANCH  21  24
ATOM     24  C   UNL     1      -4.075 -10.315  16.664  0.00  0.00    +0.067 C 
BRANCH  24  27
ATOM     27  C   UNL     1      -5.068 -11.089  17.485  0.00  0.00    -0.045 A 
ATOM     32  C   UNL     1      -5.200 -10.814  18.841  0.00  0.00    +0.004 A 
ATOM     33  C   UNL     1      -5.844 -12.070  16.879  0.00  0.00    +0.004 A 
ATOM     35  C   UNL     1      -6.122 -11.532  19.603  0.00  0.00    +0.000 A 
ATOM     36  C   UNL     1      -6.766 -12.787  17.641  0.00  0.00    +0.000 A 
ATOM     37  C   UNL     1      -6.905 -12.519  19.003  0.00  0.00    +0.000 A 
ENDBRANCH  24  27
ENDBRANCH  21  24
ENDBRANCH  11  21
ENDBRANCH  16  19
BRANCH  14  10
ATOM     10  N   UNL     1      -8.913  -9.703  13.023  0.00  0.00    -0.186 NA
ATOM     38  H   UNL     1      -9.378  -9.044  12.386  0.00  0.00    +0.148 HD
BRANCH  10   1
ATOM      1  S   UNL     1      -9.886 -10.629  14.083  0.00  0.00    +0.065 S 
ATOM      6  O   UNL     1      -9.542 -12.032  13.951  0.00  0.00    -0.153 OA
ATOM      7  O   UNL     1     -11.259 -10.177  13.974  0.00  0.00    -0.153 OA
BRANCH   1  23
ATOM      2  S   UNL     1     -10.477 -10.786  16.941  0.00  0.00    -0.077 S 
ATOM     23  C   UNL     1      -9.424 -10.180  15.756  0.00  0.00    +0.142 A 
ATOM     28  C   UNL     1      -8.395  -9.450  16.248  0.00  0.00    +0.036 A 
ATOM     30  C   UNL     1      -8.459  -9.374  17.670  0.00  0.00    +0.010 A 
ATOM     31  C   UNL     1      -9.542 -10.057  18.177  0.00  0.00    +0.047 A 
ENDBRANCH   1  23
ENDBRANCH  10   1
ENDBRANCH  14  10
TORSDOF 9
ENDMDL
MODEL 5
REMARK VINA RESULT:      -6.7     27.476     30.163
REMARK  Name = 11882498
REMARK  10 active torsions:
REMARK  status: ('A' for Active; 'I' for Inactive)
REMARK    1  A    between atoms: S_1  and  N_10
REMARK    2  A    between atoms: S_1  and  C_23
REMARK    3  A    between atoms: N_10  and  C_14
REMARK    4  A    between atoms: N_11  and  C_21
REMARK    5  A    between atoms: C_16  and  C_19
REMARK    6  A    between atoms: C_20  and  C_22
REMARK    7  A    between atoms: C_21  and  C_24
REMARK    8  A    between atoms: C_21  and  C_25
REMARK    9  A    between atoms: C_24  and  C_27
REMARK   10  A    between atoms: C_29  and  C_34
REMARK                            x       y       z     vdW  Elec       q    Type
REMARK                         _______ _______ _______ _____ _____    ______ ____
ROOT
ATOM      5  O   UNL     1      -3.173 -10.291  10.312  0.00  0.00    -0.268 OA
ATOM      9  N   UNL     1      -5.344 -10.638  11.076  0.00  0.00    -0.285 N 
ATOM     14  C   UNL     1      -7.579 -10.296  12.933  0.00  0.00    +0.080 C 
ATOM     15  C   UNL     1      -6.358  -9.376  12.995  0.00  0.00    +0.052 C 
ATOM     16  C   UNL     1      -5.106  -9.995  12.374  0.00  0.00    +0.164 C 
ATOM     17  C   UNL     1      -7.792 -10.782  11.502  0.00  0.00    +0.039 C 
ATOM     18  C   UNL     1      -6.548 -11.480  10.962  0.00  0.00    +0.110 C 
ATOM     20  C   UNL     1      -4.359 -10.518  10.074  0.00  0.00    +0.266 C 
ENDROOT
BRANCH  20  22
ATOM      3  S   UNL     1      -5.160 -11.585   6.354  0.00  0.00    -0.080 S 
ATOM     12  N   UNL     1      -5.539  -9.697   8.078  0.00  0.00    -0.240 NA
ATOM     22  C   UNL     1      -4.785 -10.678   8.688  0.00  0.00    +0.133 A 
ATOM     26  C   UNL     1      -4.479 -11.776   7.917  0.00  0.00    +0.080 A 
ATOM     29  C   UNL     1      -5.795 -10.069   6.844  0.00  0.00    +0.076 A 
ATOM     34  C   UNL     1      -6.582  -9.272   5.877  0.00  0.00    +0.073 C 
ENDBRANCH  20  22
BRANCH  16  19
ATOM      4  O   UNL     1      -4.521 -12.231  12.976  0.00  0.00    -0.274 OA
ATOM     11  N   UNL     1      -3.926 -10.488  14.400  0.00  0.00    -0.302 N 
ATOM     19  C   UNL     1      -4.488 -11.036  13.260  0.00  0.00    +0.234 C 
ATOM     39  H   UNL     1      -3.912  -9.478  14.506  0.00  0.00    +0.150 HD
BRANCH  11  21
ATOM     21  C   UNL     1      -3.287 -11.280  15.425  0.00  0.00    +0.163 C 
BRANCH  21  25
ATOM      8  O   UNL     1      -1.346 -11.915  14.107  0.00  0.00    -0.274 OA
ATOM     13  N   UNL     1      -1.027 -10.625  15.981  0.00  0.00    -0.328 N 
ATOM     25  C   UNL     1      -1.803 -11.336  15.090  0.00  0.00    +0.231 C 
ATOM     40  H   UNL     1      -1.423 -10.132  16.776  0.00  0.00    +0.145 HD
ATOM     41  H   UNL     1      -0.021 -10.569  15.866  0.00  0.00    +0.145 HD
ENDBRANCH  21  25
BRANCH  21  24
ATOM     24  C   UNL     1      -3.498 -10.696  16.827  0.00  0.00    +0.067 C 
BRANCH  24  27
ATOM     27  C   UNL     1      -4.676 -11.295  17.544  0.00  0.00    -0.045 A 
ATOM     32  C   UNL     1      -5.223 -10.632  18.637  0.00  0.00    +0.004 A 
ATOM     33  C   UNL     1      -5.205 -12.502  17.106  0.00  0.00    +0.004 A 
ATOM     35  C   UNL     1      -6.316 -11.188  19.302  0.00  0.00    +0.000 A 
ATOM     36  C   UNL     1      -6.298 -13.057  17.772  0.00  0.00    +0.000 A 
ATOM     37  C   UNL     1      -6.853 -12.401  18.869  0.00  0.00    +0.000 A 
ENDBRANCH  24  27
ENDBRANCH  21  24
ENDBRANCH  11  21
ENDBRANCH  16  19
BRANCH  14  10
ATOM     10  N   UNL     1      -8.755  -9.618  13.424  0.00  0.00    -0.186 NA
ATOM     38  H   UNL     1      -9.533  -9.504  12.762  0.00  0.00    +0.148 HD
BRANCH  10   1
ATOM      1  S   UNL     1      -9.123  -9.763  15.088  0.00  0.00    +0.065 S 
ATOM      6  O   UNL     1      -7.907  -9.618  15.866  0.00  0.00    -0.153 OA
ATOM      7  O   UNL     1     -10.006 -10.897  15.276  0.00  0.00    -0.153 OA
BRANCH   1  23
ATOM      2  S   UNL     1     -11.440  -8.091  14.468  0.00  0.00    -0.077 S 
ATOM     23  C   UNL     1     -10.143  -8.356  15.530  0.00  0.00    +0.142 A 
ATOM     28  C   UNL     1     -10.071  -7.468  16.550  0.00  0.00    +0.036 A 
ATOM     30  C   UNL     1     -11.127  -6.515  16.472  0.00  0.00    +0.010 A 
ATOM     31  C   UNL     1     -11.946  -6.737  15.387  0.00  0.00    +0.047 A 
ENDBRANCH   1  23
ENDBRANCH  10   1
ENDBRANCH  14  10
TORSDOF 9
ENDMDL
MODEL 6
REMARK VINA RESULT:      -6.6     11.935     15.064
REMARK  Name = 11882498
REMARK  10 active torsions:
REMARK  status: ('A' for Active; 'I' for Inactive)
REMARK    1  A    between atoms: S_1  and  N_10
REMARK    2  A    between atoms: S_1  and  C_23
REMARK    3  A    between atoms: N_10  and  C_14
REMARK    4  A    between atoms: N_11  and  C_21
REMARK    5  A    between atoms: C_16  and  C_19
REMARK    6  A    between atoms: C_20  and  C_22
REMARK    7  A    between atoms: C_21  and  C_24
REMARK    8  A    between atoms: C_21  and  C_25
REMARK    9  A    between atoms: C_24  and  C_27
REMARK   10  A    between atoms: C_29  and  C_34
REMARK                            x       y       z     vdW  Elec       q    Type
REMARK                         _______ _______ _______ _____ _____    ______ ____
ROOT
ATOM      5  O   UNL     1      15.382   6.411   3.889  0.00  0.00    -0.268 OA
ATOM      9  N   UNL     1      14.626   8.384   4.868  0.00  0.00    -0.285 N 
ATOM     14  C   UNL     1      13.077   9.957   6.788  0.00  0.00    +0.080 C 
ATOM     15  C   UNL     1      13.285   8.454   6.989  0.00  0.00    +0.052 C 
ATOM     16  C   UNL     1      13.614   7.714   5.694  0.00  0.00    +0.164 C 
ATOM     17  C   UNL     1      14.267  10.551   6.038  0.00  0.00    +0.039 C 
ATOM     18  C   UNL     1      14.493   9.843   4.707  0.00  0.00    +0.110 C 
ATOM     20  C   UNL     1      15.573   7.590   4.187  0.00  0.00    +0.266 C 
ENDROOT
BRANCH  20  22
ATOM      3  S   UNL     1      18.727   9.292   2.523  0.00  0.00    -0.080 S 
ATOM     12  N   UNL     1      17.793   8.464   4.787  0.00  0.00    -0.240 NA
ATOM     22  C   UNL     1      16.838   8.218   3.821  0.00  0.00    +0.133 A 
ATOM     26  C   UNL     1      17.160   8.594   2.538  0.00  0.00    +0.080 A 
ATOM     29  C   UNL     1      18.833   9.028   4.215  0.00  0.00    +0.076 A 
ATOM     34  C   UNL     1      20.060   9.441   4.932  0.00  0.00    +0.073 C 
ENDBRANCH  20  22
BRANCH  16  19
ATOM      4  O   UNL     1      11.713   8.480   4.466  0.00  0.00    -0.274 OA
ATOM     11  N   UNL     1      12.180   6.200   4.513  0.00  0.00    -0.302 N 
ATOM     19  C   UNL     1      12.406   7.530   4.822  0.00  0.00    +0.234 C 
ATOM     39  H   UNL     1      12.850   5.501   4.821  0.00  0.00    +0.150 HD
BRANCH  11  21
ATOM     21  C   UNL     1      11.068   5.754   3.707  0.00  0.00    +0.163 C 
BRANCH  21  25
ATOM      8  O   UNL     1      10.945   4.179   1.860  0.00  0.00    -0.274 OA
ATOM     13  N   UNL     1      13.009   4.946   2.514  0.00  0.00    -0.328 N 
ATOM     25  C   UNL     1      11.636   4.865   2.610  0.00  0.00    +0.231 C 
ATOM     40  H   UNL     1      13.565   5.535   3.126  0.00  0.00    +0.145 HD
ATOM     41  H   UNL     1      13.515   4.413   1.814  0.00  0.00    +0.145 HD
ENDBRANCH  21  25
BRANCH  21  24
ATOM     24  C   UNL     1      10.024   4.988   4.530  0.00  0.00    +0.067 C 
BRANCH  24  27
ATOM     27  C   UNL     1       9.611   5.715   5.778  0.00  0.00    -0.045 A 
ATOM     32  C   UNL     1       8.808   6.846   5.680  0.00  0.00    +0.004 A 
ATOM     33  C   UNL     1      10.033   5.248   7.017  0.00  0.00    +0.004 A 
ATOM     35  C   UNL     1       8.424   7.521   6.839  0.00  0.00    +0.000 A 
ATOM     36  C   UNL     1       9.648   5.923   8.175  0.00  0.00    +0.000 A 
ATOM     37  C   UNL     1       8.845   7.059   8.087  0.00  0.00    +0.000 A 
ENDBRANCH  24  27
ENDBRANCH  21  24
ENDBRANCH  11  21
ENDBRANCH  16  19
BRANCH  14  10
ATOM     10  N   UNL     1      12.888  10.621   8.056  0.00  0.00    -0.186 NA
ATOM     38  H   UNL     1      13.640  10.517   8.749  0.00  0.00    +0.148 HD
BRANCH  10   1
ATOM      1  S   UNL     1      11.965  12.061   8.072  0.00  0.00    +0.065 S 
ATOM      6  O   UNL     1      11.246  12.188   6.818  0.00  0.00    -0.153 OA
ATOM      7  O   UNL     1      12.789  13.140   8.580  0.00  0.00    -0.153 OA
BRANCH   1  23
ATOM      2  S   UNL     1      11.267  12.113  10.911  0.00  0.00    -0.077 S 
ATOM     23  C   UNL     1      10.701  11.867   9.329  0.00  0.00    +0.142 A 
ATOM     28  C   UNL     1       9.384  11.562   9.252  0.00  0.00    +0.036 A 
ATOM     30  C   UNL     1       8.793  11.524  10.548  0.00  0.00    +0.010 A 
ATOM     31  C   UNL     1       9.705  11.805  11.541  0.00  0.00    +0.047 A 
ENDBRANCH   1  23
ENDBRANCH  10   1
ENDBRANCH  14  10
TORSDOF 9
ENDMDL
MODEL 7
REMARK VINA RESULT:      -6.5     31.462     34.797
REMARK  Name = 11882498
REMARK  10 active torsions:
REMARK  status: ('A' for Active; 'I' for Inactive)
REMARK    1  A    between atoms: S_1  and  N_10
REMARK    2  A    between atoms: S_1  and  C_23
REMARK    3  A    between atoms: N_10  and  C_14
REMARK    4  A    between atoms: N_11  and  C_21
REMARK    5  A    between atoms: C_16  and  C_19
REMARK    6  A    between atoms: C_20  and  C_22
REMARK    7  A    between atoms: C_21  and  C_24
REMARK    8  A    between atoms: C_21  and  C_25
REMARK    9  A    between atoms: C_24  and  C_27
REMARK   10  A    between atoms: C_29  and  C_34
REMARK                            x       y       z     vdW  Elec       q    Type
REMARK                         _______ _______ _______ _____ _____    ______ ____
ROOT
ATOM      5  O   UNL     1      -5.481  -9.180  39.935  0.00  0.00    -0.268 OA
ATOM      9  N   UNL     1      -7.050  -7.492  40.266  0.00  0.00    -0.285 N 
ATOM     14  C   UNL     1      -9.679  -6.432  40.995  0.00  0.00    +0.080 C 
ATOM     15  C   UNL     1      -9.284  -7.868  41.350  0.00  0.00    +0.052 C 
ATOM     16  C   UNL     1      -8.170  -8.422  40.463  0.00  0.00    +0.164 C 
ATOM     17  C   UNL     1      -8.437  -5.544  40.960  0.00  0.00    +0.039 C 
ATOM     18  C   UNL     1      -7.395  -6.087  39.987  0.00  0.00    +0.110 C 
ATOM     20  C   UNL     1      -5.740  -8.013  40.230  0.00  0.00    +0.266 C 
ENDROOT
BRANCH  20  22
ATOM      3  S   UNL     1      -2.988  -5.655  41.806  0.00  0.00    -0.080 S 
ATOM     12  N   UNL     1      -3.859  -6.580  39.554  0.00  0.00    -0.240 NA
ATOM     22  C   UNL     1      -4.646  -7.106  40.558  0.00  0.00    +0.133 A 
ATOM     26  C   UNL     1      -4.331  -6.723  41.841  0.00  0.00    +0.080 A 
ATOM     29  C   UNL     1      -2.951  -5.799  40.097  0.00  0.00    +0.076 A 
ATOM     34  C   UNL     1      -1.923  -5.057  39.335  0.00  0.00    +0.073 C 
ENDBRANCH  20  22
BRANCH  16  19
ATOM      4  O   UNL     1      -9.392  -8.045  38.446  0.00  0.00    -0.274 OA
ATOM     11  N   UNL     1      -8.222 -10.042  38.699  0.00  0.00    -0.302 N 
ATOM     19  C   UNL     1      -8.663  -8.792  39.095  0.00  0.00    +0.234 C 
ATOM     39  H   UNL     1      -7.579 -10.551  39.299  0.00  0.00    +0.150 HD
BRANCH  11  21
ATOM     21  C   UNL     1      -8.576 -10.640  37.433  0.00  0.00    +0.163 C 
BRANCH  21  25
ATOM      8  O   UNL     1      -7.225 -11.601  35.656  0.00  0.00    -0.274 OA
ATOM     13  N   UNL     1      -6.173 -10.870  37.562  0.00  0.00    -0.328 N 
ATOM     25  C   UNL     1      -7.283 -11.106  36.780  0.00  0.00    +0.231 C 
ATOM     40  H   UNL     1      -6.234 -10.439  38.480  0.00  0.00    +0.145 HD
ATOM     41  H   UNL     1      -5.245 -11.121  37.239  0.00  0.00    +0.145 HD
ENDBRANCH  21  25
BRANCH  21  24
ATOM     24  C   UNL     1      -9.547 -11.817  37.597  0.00  0.00    +0.067 C 
BRANCH  24  27
ATOM     27  C   UNL     1     -10.787 -11.677  36.760  0.00  0.00    -0.045 A 
ATOM     32  C   UNL     1     -11.130 -12.687  35.869  0.00  0.00    +0.004 A 
ATOM     33  C   UNL     1     -11.578 -10.542  36.887  0.00  0.00    +0.004 A 
ATOM     35  C   UNL     1     -12.282 -12.559  35.091  0.00  0.00    +0.000 A 
ATOM     36  C   UNL     1     -12.730 -10.414  36.111  0.00  0.00    +0.000 A 
ATOM     37  C   UNL     1     -13.081 -11.421  35.213  0.00  0.00    +0.000 A 
ENDBRANCH  24  27
ENDBRANCH  21  24
ENDBRANCH  11  21
ENDBRANCH  16  19
BRANCH  14  10
ATOM     10  N   UNL     1     -10.647  -5.921  41.936  0.00  0.00    -0.186 NA
ATOM     38  H   UNL     1     -10.332  -5.810  42.908  0.00  0.00    +0.148 HD
BRANCH  10   1
ATOM      1  S   UNL     1     -11.845  -4.852  41.346  0.00  0.00    +0.065 S 
ATOM      6  O   UNL     1     -12.476  -4.172  42.461  0.00  0.00    -0.153 OA
ATOM      7  O   UNL     1     -12.631  -5.538  40.339  0.00  0.00    -0.153 OA
BRANCH   1  23
ATOM      2  S   UNL     1     -10.277  -2.385  41.399  0.00  0.00    -0.077 S 
ATOM     23  C   UNL     1     -11.001  -3.568  40.421  0.00  0.00    +0.142 A 
ATOM     28  C   UNL     1     -10.834  -3.368  39.092  0.00  0.00    +0.036 A 
ATOM     30  C   UNL     1     -10.076  -2.187  38.846  0.00  0.00    +0.010 A 
ATOM     31  C   UNL     1      -9.708  -1.555  40.013  0.00  0.00    +0.047 A 
ENDBRANCH   1  23
ENDBRANCH  10   1
ENDBRANCH  14  10
TORSDOF 9
ENDMDL
MODEL 8
REMARK VINA RESULT:      -6.5     14.222     18.374
REMARK  Name = 11882498
REMARK  10 active torsions:
REMARK  status: ('A' for Active; 'I' for Inactive)
REMARK    1  A    between atoms: S_1  and  N_10
REMARK    2  A    between atoms: S_1  and  C_23
REMARK    3  A    between atoms: N_10  and  C_14
REMARK    4  A    between atoms: N_11  and  C_21
REMARK    5  A    between atoms: C_16  and  C_19
REMARK    6  A    between atoms: C_20  and  C_22
REMARK    7  A    between atoms: C_21  and  C_24
REMARK    8  A    between atoms: C_21  and  C_25
REMARK    9  A    between atoms: C_24  and  C_27
REMARK   10  A    between atoms: C_29  and  C_34
REMARK                            x       y       z     vdW  Elec       q    Type
REMARK                         _______ _______ _______ _____ _____    ______ ____
ROOT
ATOM      5  O   UNL     1      11.352   9.213   4.749  0.00  0.00    -0.268 OA
ATOM      9  N   UNL     1      13.145   7.887   4.081  0.00  0.00    -0.285 N 
ATOM     14  C   UNL     1      14.519   5.983   2.335  0.00  0.00    +0.080 C 
ATOM     15  C   UNL     1      13.236   6.684   1.879  0.00  0.00    +0.052 C 
ATOM     16  C   UNL     1      12.381   7.187   3.041  0.00  0.00    +0.164 C 
ATOM     17  C   UNL     1      15.284   6.879   3.305  0.00  0.00    +0.039 C 
ATOM     18  C   UNL     1      14.418   7.273   4.497  0.00  0.00    +0.110 C 
ATOM     20  C   UNL     1      12.565   9.015   4.699  0.00  0.00    +0.266 C 
ENDROOT
BRANCH  20  22
ATOM      3  S   UNL     1      14.769  11.371   6.981  0.00  0.00    -0.080 S 
ATOM     12  N   UNL     1      14.221  10.824   4.514  0.00  0.00    -0.240 NA
ATOM     22  C   UNL     1      13.467   9.986   5.309  0.00  0.00    +0.133 A 
ATOM     26  C   UNL     1      13.626  10.131   6.668  0.00  0.00    +0.080 A 
ATOM     29  C   UNL     1      14.946  11.600   5.290  0.00  0.00    +0.076 A 
ATOM     34  C   UNL     1      15.884  12.633   4.798  0.00  0.00    +0.073 C 
ENDBRANCH  20  22
BRANCH  16  19
ATOM      4  O   UNL     1      11.516   4.967   3.211  0.00  0.00    -0.274 OA
ATOM     11  N   UNL     1      11.137   6.461   4.956  0.00  0.00    -0.302 N 
ATOM     19  C   UNL     1      11.645   6.074   3.728  0.00  0.00    +0.234 C 
ATOM     39  H   UNL     1      11.351   7.389   5.308  0.00  0.00    +0.150 HD
BRANCH  11  21
ATOM     21  C   UNL     1      10.370   5.580   5.806  0.00  0.00    +0.163 C 
BRANCH  21  25
ATOM      8  O   UNL     1      10.002   5.800   8.198  0.00  0.00    -0.274 OA
ATOM     13  N   UNL     1      12.105   6.207   7.368  0.00  0.00    -0.328 N 
ATOM     25  C   UNL     1      10.772   5.881   7.243  0.00  0.00    +0.231 C 
ATOM     40  H   UNL     1      12.734   6.247   6.572  0.00  0.00    +0.145 HD
ATOM     41  H   UNL     1      12.507   6.418   8.275  0.00  0.00    +0.145 HD
ENDBRANCH  21  25
BRANCH  21  24
ATOM     24  C   UNL     1       8.858   5.768   5.622  0.00  0.00    +0.067 C 
BRANCH  24  27
ATOM     27  C   UNL     1       8.485   7.161   5.199  0.00  0.00    -0.045 A 
ATOM     32  C   UNL     1       8.313   7.445   3.849  0.00  0.00    +0.004 A 
ATOM     33  C   UNL     1       8.315   8.149   6.161  0.00  0.00    +0.004 A 
ATOM     35  C   UNL     1       7.966   8.738   3.456  0.00  0.00    +0.000 A 
ATOM     36  C   UNL     1       7.968   9.441   5.767  0.00  0.00    +0.000 A 
ATOM     37  C   UNL     1       7.794   9.736   4.415  0.00  0.00    +0.000 A 
ENDBRANCH  24  27
ENDBRANCH  21  24
ENDBRANCH  11  21
ENDBRANCH  16  19
BRANCH  14  10
ATOM     10  N   UNL     1      15.342   5.636   1.200  0.00  0.00    -0.186 NA
ATOM     38  H   UNL     1      16.195   6.191   1.062  0.00  0.00    +0.148 HD
BRANCH  10   1
ATOM      1  S   UNL     1      15.345   4.004   0.687  0.00  0.00    +0.065 S 
ATOM      6  O   UNL     1      15.005   3.146   1.806  0.00  0.00    -0.153 OA
ATOM      7  O   UNL     1      16.531   3.766  -0.112  0.00  0.00    -0.153 OA
BRANCH   1  23
ATOM      2  S   UNL     1      14.301   4.538  -1.991  0.00  0.00    -0.077 S 
ATOM     23  C   UNL     1      14.001   3.814  -0.485  0.00  0.00    +0.142 A 
ATOM     28  C   UNL     1      12.796   3.204  -0.393  0.00  0.00    +0.036 A 
ATOM     30  C   UNL     1      12.068   3.326  -1.611  0.00  0.00    +0.010 A 
ATOM     31  C   UNL     1      12.770   4.029  -2.566  0.00  0.00    +0.047 A 
ENDBRANCH   1  23
ENDBRANCH  10   1
ENDBRANCH  14  10
TORSDOF 9
ENDMDL
MODEL 9
REMARK VINA RESULT:      -6.5     20.871     23.739
REMARK  Name = 11882498
REMARK  10 active torsions:
REMARK  status: ('A' for Active; 'I' for Inactive)
REMARK    1  A    between atoms: S_1  and  N_10
REMARK    2  A    between atoms: S_1  and  C_23
REMARK    3  A    between atoms: N_10  and  C_14
REMARK    4  A    between atoms: N_11  and  C_21
REMARK    5  A    between atoms: C_16  and  C_19
REMARK    6  A    between atoms: C_20  and  C_22
REMARK    7  A    between atoms: C_21  and  C_24
REMARK    8  A    between atoms: C_21  and  C_25
REMARK    9  A    between atoms: C_24  and  C_27
REMARK   10  A    between atoms: C_29  and  C_34
REMARK                            x       y       z     vdW  Elec       q    Type
REMARK                         _______ _______ _______ _____ _____    ______ ____
ROOT
ATOM      5  O   UNL     1       6.073  -5.038  37.589  0.00  0.00    -0.268 OA
ATOM      9  N   UNL     1       8.204  -5.067  36.654  0.00  0.00    -0.285 N 
ATOM     14  C   UNL     1      10.121  -5.219  34.448  0.00  0.00    +0.080 C 
ATOM     15  C   UNL     1       8.636  -4.962  34.183  0.00  0.00    +0.052 C 
ATOM     16  C   UNL     1       7.730  -5.442  35.316  0.00  0.00    +0.164 C 
ATOM     17  C   UNL     1      10.511  -4.656  35.813  0.00  0.00    +0.039 C 
ATOM     18  C   UNL     1       9.643  -5.241  36.922  0.00  0.00    +0.110 C 
ATOM     20  C   UNL     1       7.253  -4.690  37.624  0.00  0.00    +0.266 C 
ENDROOT
BRANCH  20  22
ATOM      3  S   UNL     1       8.556  -3.030  40.965  0.00  0.00    -0.080 S 
ATOM     12  N   UNL     1       7.786  -2.478  38.560  0.00  0.00    -0.240 NA
ATOM     22  C   UNL     1       7.710  -3.846  38.723  0.00  0.00    +0.133 A 
ATOM     26  C   UNL     1       8.085  -4.333  39.954  0.00  0.00    +0.080 A 
ATOM     29  C   UNL     1       8.220  -1.944  39.680  0.00  0.00    +0.076 A 
ATOM     34  C   UNL     1       8.432  -0.495  39.888  0.00  0.00    +0.073 C 
ENDBRANCH  20  22
BRANCH  16  19
ATOM      4  O   UNL     1       8.495  -7.685  35.019  0.00  0.00    -0.274 OA
ATOM     11  N   UNL     1       6.291  -7.323  35.677  0.00  0.00    -0.302 N 
ATOM     19  C   UNL     1       7.571  -6.934  35.322  0.00  0.00    +0.234 C 
ATOM     39  H   UNL     1       5.620  -6.614  35.958  0.00  0.00    +0.150 HD
BRANCH  11  21
ATOM     21  C   UNL     1       5.873  -8.704  35.736  0.00  0.00    +0.163 C 
BRANCH  21  25
ATOM      8  O   UNL     1       5.153  -9.904  37.723  0.00  0.00    -0.274 OA
ATOM     13  N   UNL     1       4.384  -7.765  37.393  0.00  0.00    -0.328 N 
ATOM     25  C   UNL     1       5.104  -8.885  37.037  0.00  0.00    +0.231 C 
ATOM     40  H   UNL     1       4.372  -6.921  36.827  0.00  0.00    +0.145 HD
ATOM     41  H   UNL     1       3.836  -7.747  38.246  0.00  0.00    +0.145 HD
ENDBRANCH  21  25
BRANCH  21  24
ATOM     24  C   UNL     1       5.000  -9.099  34.538  0.00  0.00    +0.067 C 
BRANCH  24  27
ATOM     27  C   UNL     1       5.772  -9.197  33.253  0.00  0.00    -0.045 A 
ATOM     32  C   UNL     1       5.826  -8.101  32.400  0.00  0.00    +0.004 A 
ATOM     33  C   UNL     1       6.425 -10.381  32.932  0.00  0.00    +0.004 A 
ATOM     35  C   UNL     1       6.544  -8.191  31.207  0.00  0.00    +0.000 A 
ATOM     36  C   UNL     1       7.142 -10.471  31.739  0.00  0.00    +0.000 A 
ATOM     37  C   UNL     1       7.201  -9.377  30.877  0.00  0.00    +0.000 A 
ENDBRANCH  24  27
ENDBRANCH  21  24
ENDBRANCH  11  21
ENDBRANCH  16  19
BRANCH  14  10
ATOM     10  N   UNL     1      10.935  -4.641  33.405  0.00  0.00    -0.186 NA
ATOM     38  H   UNL     1      11.120  -3.632  33.469  0.00  0.00    +0.148 HD
BRANCH  10   1
ATOM      1  S   UNL     1      12.117  -5.637  32.672  0.00  0.00    +0.065 S 
ATOM      6  O   UNL     1      13.340  -5.586  33.450  0.00  0.00    -0.153 OA
ATOM      7  O   UNL     1      12.121  -5.385  31.244  0.00  0.00    -0.153 OA
BRANCH   1  23
ATOM      2  S   UNL     1      12.331  -8.232  34.000  0.00  0.00    -0.077 S 
ATOM     23  C   UNL     1      11.539  -7.329  32.800  0.00  0.00    +0.142 A 
ATOM     28  C   UNL     1      10.591  -8.019  32.121  0.00  0.00    +0.036 A 
ATOM     30  C   UNL     1      10.497  -9.358  32.597  0.00  0.00    +0.010 A 
ATOM     31  C   UNL     1      11.387  -9.609  33.618  0.00  0.00    +0.047 A 
ENDBRANCH   1  23
ENDBRANCH  10   1
ENDBRANCH  14  10
TORSDOF 9
ENDMDL
MODEL 10
REMARK VINA RESULT:      -6.5     31.950     35.272
REMARK  Name = 11882498
REMARK  10 active torsions:
REMARK  status: ('A' for Active; 'I' for Inactive)
REMARK    1  A    between atoms: S_1  and  N_10
REMARK    2  A    between atoms: S_1  and  C_23
REMARK    3  A    between atoms: N_10  and  C_14
REMARK    4  A    between atoms: N_11  and  C_21
REMARK    5  A    between atoms: C_16  and  C_19
REMARK    6  A    between atoms: C_20  and  C_22
REMARK    7  A    between atoms: C_21  and  C_24
REMARK    8  A    between atoms: C_21  and  C_25
REMARK    9  A    between atoms: C_24  and  C_27
REMARK   10  A    between atoms: C_29  and  C_34
REMARK                            x       y       z     vdW  Elec       q    Type
REMARK                         _______ _______ _______ _____ _____    ______ ____
ROOT
ATOM      5  O   UNL     1      -5.707  -8.961  40.233  0.00  0.00    -0.268 OA
ATOM      9  N   UNL     1      -7.138  -7.125  40.187  0.00  0.00    -0.285 N 
ATOM     14  C   UNL     1      -9.704  -5.764  40.541  0.00  0.00    +0.080 C 
ATOM     15  C   UNL     1      -9.464  -7.156  41.131  0.00  0.00    +0.052 C 
ATOM     16  C   UNL     1      -8.347  -7.923  40.427  0.00  0.00    +0.164 C 
ATOM     17  C   UNL     1      -8.388  -4.992  40.477  0.00  0.00    +0.039 C 
ATOM     18  C   UNL     1      -7.336  -5.755  39.680  0.00  0.00    +0.110 C 
ATOM     20  C   UNL     1      -5.880  -7.746  40.333  0.00  0.00    +0.266 C 
ENDROOT
BRANCH  20  22
ATOM      3  S   UNL     1      -3.002  -5.457  41.780  0.00  0.00    -0.080 S 
ATOM     12  N   UNL     1      -3.902  -6.490  39.587  0.00  0.00    -0.240 NA
ATOM     22  C   UNL     1      -4.734  -6.888  40.612  0.00  0.00    +0.133 A 
ATOM     26  C   UNL     1      -4.411  -6.432  41.870  0.00  0.00    +0.080 A 
ATOM     29  C   UNL     1      -2.953  -5.729  40.087  0.00  0.00    +0.076 A 
ATOM     34  C   UNL     1      -1.869  -5.113  39.290  0.00  0.00    +0.073 C 
ENDBRANCH  20  22
BRANCH  16  19
ATOM      4  O   UNL     1      -9.537  -7.829  38.358  0.00  0.00    -0.274 OA
ATOM     11  N   UNL     1      -8.243  -9.706  38.830  0.00  0.00    -0.302 N 
ATOM     19  C   UNL     1      -8.778  -8.457  39.092  0.00  0.00    +0.234 C 
ATOM     39  H   UNL     1      -7.583 -10.109  39.489  0.00  0.00    +0.150 HD
BRANCH  11  21
ATOM     21  C   UNL     1      -8.522 -10.446  37.621  0.00  0.00    +0.163 C 
BRANCH  21  25
ATOM      8  O   UNL     1      -7.035 -11.401  35.952  0.00  0.00    -0.274 OA
ATOM     13  N   UNL     1      -6.159 -10.800  37.989  0.00  0.00    -0.328 N 
ATOM     25  C   UNL     1      -7.189 -10.949  37.085  0.00  0.00    +0.231 C 
ATOM     40  H   UNL     1      -6.297 -10.404  38.914  0.00  0.00    +0.145 HD
ATOM     41  H   UNL     1      -5.214 -11.084  37.753  0.00  0.00    +0.145 HD
ENDBRANCH  21  25
BRANCH  21  24
ATOM     24  C   UNL     1      -9.478 -11.621  37.867  0.00  0.00    +0.067 C 
BRANCH  24  27
ATOM     27  C   UNL     1     -10.670 -11.610  36.952  0.00  0.00    -0.045 A 
ATOM     32  C   UNL     1     -10.870 -12.669  36.074  0.00  0.00    +0.004 A 
ATOM     33  C   UNL     1     -11.560 -10.544  36.994  0.00  0.00    +0.004 A 
ATOM     35  C   UNL     1     -11.977 -12.661  35.225  0.00  0.00    +0.000 A 
ATOM     36  C   UNL     1     -12.667 -10.536  36.146  0.00  0.00    +0.000 A 
ATOM     37  C   UNL     1     -12.875 -11.593  35.261  0.00  0.00    +0.000 A 
ENDBRANCH  24  27
ENDBRANCH  21  24
ENDBRANCH  11  21
ENDBRANCH  16  19
BRANCH  14  10
ATOM     10  N   UNL     1     -10.684  -5.042  41.317  0.00  0.00    -0.186 NA
ATOM     38  H   UNL     1     -10.359  -4.624  42.198  0.00  0.00    +0.148 HD
BRANCH  10   1
ATOM      1  S   UNL     1     -11.955  -4.267  40.473  0.00  0.00    +0.065 S 
ATOM      6  O   UNL     1     -11.730  -4.387  39.045  0.00  0.00    -0.153 OA
ATOM      7  O   UNL     1     -12.211  -2.980  41.090  0.00  0.00    -0.153 OA
BRANCH   1  23
ATOM      2  S   UNL     1     -13.446  -6.000  42.296  0.00  0.00    -0.077 S 
ATOM     23  C   UNL     1     -13.453  -5.197  40.800  0.00  0.00    +0.142 A 
ATOM     28  C   UNL     1     -14.585  -5.378  40.079  0.00  0.00    +0.036 A 
ATOM     30  C   UNL     1     -15.504  -6.215  40.774  0.00  0.00    +0.010 A 
ATOM     31  C   UNL     1     -15.011  -6.625  41.993  0.00  0.00    +0.047 A 
ENDBRANCH   1  23
ENDBRANCH  10   1
ENDBRANCH  14  10
TORSDOF 9
ENDMDL
