MODEL 1
REMARK VINA RESULT:      -6.8      0.000      0.000
REMARK  Name = 75536726
REMARK  8 active torsions:
REMARK  status: ('A' for Active; 'I' for Inactive)
REMARK    1  A    between atoms: O_4  and  C_11
REMARK    2  A    between atoms: N_6  and  C_9
REMARK    3  A    between atoms: N_6  and  C_10
REMARK    4  A    between atoms: N_7  and  C_19
REMARK    5  A    between atoms: N_8  and  C_21
REMARK    6  A    between atoms: C_14  and  C_19
REMARK    7  A    between atoms: C_21  and  C_22
REMARK    8  A    between atoms: C_21  and  C_23
REMARK                            x       y       z     vdW  Elec       q    Type
REMARK                         _______ _______ _______ _____ _____    ______ ____
ROOT
ATOM      3  O   UNL     1      11.051   8.089  19.741  0.00  0.00    -0.371 OA
ATOM     10  C   UNL     1      13.416   8.272  19.861  0.00  0.00    +0.111 C 
ATOM     11  C   UNL     1      12.846   8.312  21.266  0.00  0.00    +0.164 C 
ATOM     14  C   UNL     1      11.482   7.670  21.047  0.00  0.00    +0.165 C 
ATOM     15  C   UNL     1      12.188   8.604  19.028  0.00  0.00    +0.181 C 
ENDROOT
BRANCH  11   4
ATOM      4  O   UNL     1      13.627   7.585  22.193  0.00  0.00    -0.388 OA
ATOM     25  H   UNL     1      13.591   6.644  21.953  0.00  0.00    +0.210 HD
ENDBRANCH  11   4
BRANCH  10   6
ATOM      6  N   UNL     1      14.512   9.203  19.649  0.00  0.00    -0.306 NA
ATOM     24  H   UNL     1      14.518   9.913  20.381  0.00  0.00    +0.123 HD
BRANCH   6   9
ATOM      1  F   UNL     1      16.948   5.930  21.747  0.00  0.00    -0.206 F 
ATOM      2  F   UNL     1      18.831   5.844  20.663  0.00  0.00    -0.206 F 
ATOM      9  C   UNL     1      15.793   8.500  19.626  0.00  0.00    +0.054 C 
ATOM     12  C   UNL     1      16.541   8.736  20.944  0.00  0.00    +0.024 C 
ATOM     13  C   UNL     1      15.561   7.004  19.379  0.00  0.00    +0.024 C 
ATOM     16  C   UNL     1      17.854   7.956  20.984  0.00  0.00    +0.077 C 
ATOM     17  C   UNL     1      16.874   6.224  19.419  0.00  0.00    +0.077 C 
ATOM     18  C   UNL     1      17.632   6.479  20.710  0.00  0.00    +0.249 C 
ENDBRANCH   6   9
ENDBRANCH  10   6
BRANCH  14  19
ATOM     19  C   UNL     1      10.451   8.081  22.084  0.00  0.00    +0.140 C 
BRANCH  19   7
ATOM      5  O   UNL     1      10.707  10.945  22.319  0.00  0.00    -0.253 OA
ATOM      7  N   UNL     1      11.057   8.808  23.162  0.00  0.00    -0.297 N 
ATOM      8  N   UNL     1      11.775  10.647  24.357  0.00  0.00    -0.297 N 
ATOM     20  C   UNL     1      11.140  10.203  23.200  0.00  0.00    +0.300 C 
ATOM     26  H   UNL     1      11.457   8.281  23.931  0.00  0.00    +0.150 HD
ATOM     27  H   UNL     1      12.030   9.960  25.061  0.00  0.00    +0.150 HD
BRANCH   8  21
ATOM     21  C   UNL     1      11.992  12.046  24.644  0.00  0.00    +0.068 C 
ATOM     22  C   UNL     1      13.321  12.239  25.362  0.00  0.00    +0.027 C 
ATOM     23  C   UNL     1      10.836  12.608  25.462  0.00  0.00    +0.027 C 
ENDBRANCH   8  21
ENDBRANCH  19   7
ENDBRANCH  14  19
TORSDOF 6
ENDMDL
MODEL 2
REMARK VINA RESULT:      -6.7      3.003      3.626
REMARK  Name = 75536726
REMARK  8 active torsions:
REMARK  status: ('A' for Active; 'I' for Inactive)
REMARK    1  A    between atoms: O_4  and  C_11
REMARK    2  A    between atoms: N_6  and  C_9
REMARK    3  A    between atoms: N_6  and  C_10
REMARK    4  A    between atoms: N_7  and  C_19
REMARK    5  A    between atoms: N_8  and  C_21
REMARK    6  A    between atoms: C_14  and  C_19
REMARK    7  A    between atoms: C_21  and  C_22
REMARK    8  A    between atoms: C_21  and  C_23
REMARK                            x       y       z     vdW  Elec       q    Type
REMARK                         _______ _______ _______ _____ _____    ______ ____
ROOT
ATOM      3  O   UNL     1      11.356   6.750  20.621  0.00  0.00    -0.371 OA
ATOM     10  C   UNL     1      13.673   7.193  20.344  0.00  0.00    +0.111 C 
ATOM     11  C   UNL     1      13.086   8.212  21.303  0.00  0.00    +0.164 C 
ATOM     14  C   UNL     1      11.825   7.492  21.760  0.00  0.00    +0.165 C 
ATOM     15  C   UNL     1      12.421   6.669  19.658  0.00  0.00    +0.181 C 
ENDROOT
BRANCH  11   4
ATOM      4  O   UNL     1      13.949   8.503  22.385  0.00  0.00    -0.388 OA
ATOM     25  H   UNL     1      13.515   8.219  23.207  0.00  0.00    +0.210 HD
ENDBRANCH  11   4
BRANCH  10   6
ATOM      6  N   UNL     1      14.636   7.756  19.411  0.00  0.00    -0.306 NA
ATOM     24  H   UNL     1      15.148   7.010  18.941  0.00  0.00    +0.123 HD
BRANCH   6   9
ATOM      1  F   UNL     1      15.382  10.456  15.777  0.00  0.00    -0.206 F 
ATOM      2  F   UNL     1      13.412  11.164  15.186  0.00  0.00    -0.206 F 
ATOM      9  C   UNL     1      13.968   8.601  18.423  0.00  0.00    +0.054 C 
ATOM     12  C   UNL     1      14.470  10.045  18.550  0.00  0.00    +0.024 C 
ATOM     13  C   UNL     1      14.213   8.049  17.014  0.00  0.00    +0.024 C 
ATOM     16  C   UNL     1      13.846  10.945  17.484  0.00  0.00    +0.077 C 
ATOM     17  C   UNL     1      13.589   8.949  15.948  0.00  0.00    +0.077 C 
ATOM     18  C   UNL     1      14.061  10.385  16.088  0.00  0.00    +0.249 C 
ENDBRANCH   6   9
ENDBRANCH  10   6
BRANCH  14  19
ATOM     19  C   UNL     1      10.736   8.434  22.242  0.00  0.00    +0.140 C 
BRANCH  19   7
ATOM      5  O   UNL     1      11.008  11.302  22.410  0.00  0.00    -0.253 OA
ATOM      7  N   UNL     1      11.170   9.195  23.377  0.00  0.00    -0.297 N 
ATOM      8  N   UNL     1      11.718  11.070  24.607  0.00  0.00    -0.297 N 
ATOM     20  C   UNL     1      11.275  10.589  23.377  0.00  0.00    +0.300 C 
ATOM     26  H   UNL     1      11.428   8.693  24.221  0.00  0.00    +0.150 HD
ATOM     27  H   UNL     1      11.840  10.408  25.368  0.00  0.00    +0.150 HD
BRANCH   8  21
ATOM     21  C   UNL     1      11.914  12.475  24.874  0.00  0.00    +0.068 C 
ATOM     22  C   UNL     1      13.122  12.680  25.778  0.00  0.00    +0.027 C 
ATOM     23  C   UNL     1      10.657  13.082  25.487  0.00  0.00    +0.027 C 
ENDBRANCH   8  21
ENDBRANCH  19   7
ENDBRANCH  14  19
TORSDOF 6
ENDMDL
MODEL 3
REMARK VINA RESULT:      -6.7      1.681      2.135
REMARK  Name = 75536726
REMARK  8 active torsions:
REMARK  status: ('A' for Active; 'I' for Inactive)
REMARK    1  A    between atoms: O_4  and  C_11
REMARK    2  A    between atoms: N_6  and  C_9
REMARK    3  A    between atoms: N_6  and  C_10
REMARK    4  A    between atoms: N_7  and  C_19
REMARK    5  A    between atoms: N_8  and  C_21
REMARK    6  A    between atoms: C_14  and  C_19
REMARK    7  A    between atoms: C_21  and  C_22
REMARK    8  A    between atoms: C_21  and  C_23
REMARK                            x       y       z     vdW  Elec       q    Type
REMARK                         _______ _______ _______ _____ _____    ______ ____
ROOT
ATOM      3  O   UNL     1      10.913   8.916  20.219  0.00  0.00    -0.371 OA
ATOM     10  C   UNL     1      12.441   7.251  19.491  0.00  0.00    +0.111 C 
ATOM     11  C   UNL     1      12.243   7.117  20.989  0.00  0.00    +0.164 C 
ATOM     14  C   UNL     1      10.916   7.841  21.174  0.00  0.00    +0.165 C 
ATOM     15  C   UNL     1      11.940   8.664  19.244  0.00  0.00    +0.181 C 
ENDROOT
BRANCH  11   4
ATOM      4  O   UNL     1      12.172   5.770  21.413  0.00  0.00    -0.388 OA
ATOM     25  H   UNL     1      11.502   5.705  22.114  0.00  0.00    +0.210 HD
ENDBRANCH  11   4
BRANCH  10   6
ATOM      6  N   UNL     1      13.817   7.056  19.064  0.00  0.00    -0.306 NA
ATOM     24  H   UNL     1      14.010   7.611  18.231  0.00  0.00    +0.123 HD
BRANCH   6   9
ATOM      1  F   UNL     1      18.273   7.491  20.068  0.00  0.00    -0.206 F 
ATOM      2  F   UNL     1      18.324   8.149  22.140  0.00  0.00    -0.206 F 
ATOM      9  C   UNL     1      14.748   7.418  20.132  0.00  0.00    +0.054 C 
ATOM     12  C   UNL     1      15.644   6.221  20.470  0.00  0.00    +0.024 C 
ATOM     13  C   UNL     1      15.580   8.633  19.705  0.00  0.00    +0.024 C 
ATOM     16  C   UNL     1      16.679   6.586  21.534  0.00  0.00    +0.077 C 
ATOM     17  C   UNL     1      16.615   8.998  20.769  0.00  0.00    +0.077 C 
ATOM     18  C   UNL     1      17.486   7.807  21.129  0.00  0.00    +0.249 C 
ENDBRANCH   6   9
ENDBRANCH  10   6
BRANCH  14  19
ATOM     19  C   UNL     1      10.725   8.398  22.574  0.00  0.00    +0.140 C 
BRANCH  19   7
ATOM      5  O   UNL     1      12.245  10.714  23.381  0.00  0.00    -0.253 OA
ATOM      7  N   UNL     1      10.299   9.767  22.537  0.00  0.00    -0.297 N 
ATOM      8  N   UNL     1      10.441  12.055  22.806  0.00  0.00    -0.297 N 
ATOM     20  C   UNL     1      11.100  10.836  22.948  0.00  0.00    +0.300 C 
ATOM     26  H   UNL     1       9.360   9.969  22.207  0.00  0.00    +0.150 HD
ATOM     27  H   UNL     1       9.524  12.059  22.368  0.00  0.00    +0.150 HD
BRANCH   8  21
ATOM     21  C   UNL     1      11.046  13.318  23.160  0.00  0.00    +0.068 C 
ATOM     22  C   UNL     1      10.294  13.958  24.319  0.00  0.00    +0.027 C 
ATOM     23  C   UNL     1      11.090  14.245  21.951  0.00  0.00    +0.027 C 
ENDBRANCH   8  21
ENDBRANCH  19   7
ENDBRANCH  14  19
TORSDOF 6
ENDMDL
MODEL 4
REMARK VINA RESULT:      -6.3     27.693     30.606
REMARK  Name = 75536726
REMARK  8 active torsions:
REMARK  status: ('A' for Active; 'I' for Inactive)
REMARK    1  A    between atoms: O_4  and  C_11
REMARK    2  A    between atoms: N_6  and  C_9
REMARK    3  A    between atoms: N_6  and  C_10
REMARK    4  A    between atoms: N_7  and  C_19
REMARK    5  A    between atoms: N_8  and  C_21
REMARK    6  A    between atoms: C_14  and  C_19
REMARK    7  A    between atoms: C_21  and  C_22
REMARK    8  A    between atoms: C_21  and  C_23
REMARK                            x       y       z     vdW  Elec       q    Type
REMARK                         _______ _______ _______ _____ _____    ______ ____
ROOT
ATOM      3  O   UNL     1     -17.070   1.313  25.835  0.00  0.00    -0.371 OA
ATOM     10  C   UNL     1     -16.256   2.834  27.467  0.00  0.00    +0.111 C 
ATOM     11  C   UNL     1     -16.065   3.440  26.089  0.00  0.00    +0.164 C 
ATOM     14  C   UNL     1     -17.071   2.637  25.274  0.00  0.00    +0.165 C 
ATOM     15  C   UNL     1     -16.442   1.365  27.127  0.00  0.00    +0.181 C 
ENDROOT
BRANCH  11   4
ATOM      4  O   UNL     1     -16.346   4.825  26.056  0.00  0.00    -0.388 OA
ATOM     25  H   UNL     1     -17.284   4.942  25.832  0.00  0.00    +0.210 HD
ENDBRANCH  11   4
BRANCH  10   6
ATOM      6  N   UNL     1     -15.139   3.071  28.368  0.00  0.00    -0.306 NA
ATOM     24  H   UNL     1     -14.979   4.072  28.475  0.00  0.00    +0.123 HD
BRANCH   6   9
ATOM      1  F   UNL     1     -13.247   2.263  32.469  0.00  0.00    -0.206 F 
ATOM      2  F   UNL     1     -14.773   1.197  33.595  0.00  0.00    -0.206 F 
ATOM      9  C   UNL     1     -15.388   2.462  29.673  0.00  0.00    +0.054 C 
ATOM     12  C   UNL     1     -14.388   1.326  29.917  0.00  0.00    +0.024 C 
ATOM     13  C   UNL     1     -15.296   3.530  30.770  0.00  0.00    +0.024 C 
ATOM     16  C   UNL     1     -14.572   0.713  31.305  0.00  0.00    +0.077 C 
ATOM     17  C   UNL     1     -15.481   2.917  32.158  0.00  0.00    +0.077 C 
ATOM     18  C   UNL     1     -14.512   1.771  32.393  0.00  0.00    +0.249 C 
ENDBRANCH   6   9
ENDBRANCH  10   6
BRANCH  14  19
ATOM     19  C   UNL     1     -16.730   2.569  23.796  0.00  0.00    +0.140 C 
BRANCH  19   7
ATOM      5  O   UNL     1     -16.414   4.735  21.917  0.00  0.00    -0.253 OA
ATOM      7  N   UNL     1     -15.526   3.291  23.505  0.00  0.00    -0.297 N 
ATOM      8  N   UNL     1     -14.169   4.858  22.491  0.00  0.00    -0.297 N 
ATOM     20  C   UNL     1     -15.456   4.333  22.576  0.00  0.00    +0.300 C 
ATOM     26  H   UNL     1     -14.675   3.021  23.990  0.00  0.00    +0.150 HD
ATOM     27  H   UNL     1     -13.462   4.509  23.132  0.00  0.00    +0.150 HD
BRANCH   8  21
ATOM     21  C   UNL     1     -13.824   5.944  21.604  0.00  0.00    +0.068 C 
ATOM     22  C   UNL     1     -12.319   5.986  21.378  0.00  0.00    +0.027 C 
ATOM     23  C   UNL     1     -14.335   7.269  22.159  0.00  0.00    +0.027 C 
ENDBRANCH   8  21
ENDBRANCH  19   7
ENDBRANCH  14  19
TORSDOF 6
ENDMDL
MODEL 5
REMARK VINA RESULT:      -6.3     25.979     28.538
REMARK  Name = 75536726
REMARK  8 active torsions:
REMARK  status: ('A' for Active; 'I' for Inactive)
REMARK    1  A    between atoms: O_4  and  C_11
REMARK    2  A    between atoms: N_6  and  C_9
REMARK    3  A    between atoms: N_6  and  C_10
REMARK    4  A    between atoms: N_7  and  C_19
REMARK    5  A    between atoms: N_8  and  C_21
REMARK    6  A    between atoms: C_14  and  C_19
REMARK    7  A    between atoms: C_21  and  C_22
REMARK    8  A    between atoms: C_21  and  C_23
REMARK                            x       y       z     vdW  Elec       q    Type
REMARK                         _______ _______ _______ _____ _____    ______ ____
ROOT
ATOM      3  O   UNL     1     -16.370   4.430  22.031  0.00  0.00    -0.371 OA
ATOM     10  C   UNL     1     -14.327   5.640  22.076  0.00  0.00    +0.111 C 
ATOM     11  C   UNL     1     -14.582   5.049  23.450  0.00  0.00    +0.164 C 
ATOM     14  C   UNL     1     -15.563   3.935  23.112  0.00  0.00    +0.165 C 
ATOM     15  C   UNL     1     -15.714   5.574  21.458  0.00  0.00    +0.181 C 
ENDROOT
BRANCH  11   4
ATOM      4  O   UNL     1     -13.406   4.551  24.057  0.00  0.00    -0.388 OA
ATOM     25  H   UNL     1     -12.666   4.676  23.439  0.00  0.00    +0.210 HD
ENDBRANCH  11   4
BRANCH  10   6
ATOM      6  N   UNL     1     -13.787   6.990  22.112  0.00  0.00    -0.306 NA
ATOM     24  H   UNL     1     -13.027   7.047  22.790  0.00  0.00    +0.123 HD
BRANCH   6   9
ATOM      1  F   UNL     1     -10.329   9.070  19.930  0.00  0.00    -0.206 F 
ATOM      2  F   UNL     1     -10.876   9.018  17.825  0.00  0.00    -0.206 F 
ATOM      9  C   UNL     1     -13.309   7.392  20.791  0.00  0.00    +0.054 C 
ATOM     12  C   UNL     1     -13.160   8.918  20.734  0.00  0.00    +0.024 C 
ATOM     13  C   UNL     1     -11.980   6.692  20.483  0.00  0.00    +0.024 C 
ATOM     16  C   UNL     1     -12.593   9.370  19.389  0.00  0.00    +0.077 C 
ATOM     17  C   UNL     1     -11.414   7.144  19.137  0.00  0.00    +0.077 C 
ATOM     18  C   UNL     1     -11.292   8.656  19.066  0.00  0.00    +0.249 C 
ENDBRANCH   6   9
ENDBRANCH  10   6
BRANCH  14  19
ATOM     19  C   UNL     1     -16.452   3.543  24.279  0.00  0.00    +0.140 C 
BRANCH  19   7
ATOM      5  O   UNL     1     -17.473   2.902  26.901  0.00  0.00    -0.253 OA
ATOM      7  N   UNL     1     -15.717   3.519  25.510  0.00  0.00    -0.297 N 
ATOM      8  N   UNL     1     -15.351   3.250  27.773  0.00  0.00    -0.297 N 
ATOM     20  C   UNL     1     -16.288   3.197  26.744  0.00  0.00    +0.300 C 
ATOM     26  H   UNL     1     -14.731   3.763  25.486  0.00  0.00    +0.150 HD
ATOM     27  H   UNL     1     -14.380   3.429  27.532  0.00  0.00    +0.150 HD
BRANCH   8  21
ATOM     21  C   UNL     1     -15.681   2.961  29.149  0.00  0.00    +0.068 C 
ATOM     22  C   UNL     1     -14.741   3.707  30.087  0.00  0.00    +0.027 C 
ATOM     23  C   UNL     1     -15.639   1.460  29.404  0.00  0.00    +0.027 C 
ENDBRANCH   8  21
ENDBRANCH  19   7
ENDBRANCH  14  19
TORSDOF 6
ENDMDL
MODEL 6
REMARK VINA RESULT:      -6.3     29.280     31.068
REMARK  Name = 75536726
REMARK  8 active torsions:
REMARK  status: ('A' for Active; 'I' for Inactive)
REMARK    1  A    between atoms: O_4  and  C_11
REMARK    2  A    between atoms: N_6  and  C_9
REMARK    3  A    between atoms: N_6  and  C_10
REMARK    4  A    between atoms: N_7  and  C_19
REMARK    5  A    between atoms: N_8  and  C_21
REMARK    6  A    between atoms: C_14  and  C_19
REMARK    7  A    between atoms: C_21  and  C_22
REMARK    8  A    between atoms: C_21  and  C_23
REMARK                            x       y       z     vdW  Elec       q    Type
REMARK                         _______ _______ _______ _____ _____    ______ ____
ROOT
ATOM      3  O   UNL     1     -15.260  -0.003  28.990  0.00  0.00    -0.371 OA
ATOM     10  C   UNL     1     -14.448   1.700  30.432  0.00  0.00    +0.111 C 
ATOM     11  C   UNL     1     -15.279   2.337  29.335  0.00  0.00    +0.164 C 
ATOM     14  C   UNL     1     -16.111   1.149  28.870  0.00  0.00    +0.165 C 
ATOM     15  C   UNL     1     -14.143   0.339  29.828  0.00  0.00    +0.181 C 
ENDROOT
BRANCH  11   4
ATOM      4  O   UNL     1     -16.089   3.395  29.807  0.00  0.00    -0.388 OA
ATOM     25  H   UNL     1     -16.463   3.135  30.665  0.00  0.00    +0.210 HD
ENDBRANCH  11   4
BRANCH  10   6
ATOM      6  N   UNL     1     -13.250   2.452  30.769  0.00  0.00    -0.306 NA
ATOM     24  H   UNL     1     -13.094   3.191  30.084  0.00  0.00    +0.123 HD
BRANCH   6   9
ATOM      1  F   UNL     1     -16.180   4.415  33.704  0.00  0.00    -0.206 F 
ATOM      2  F   UNL     1     -15.001   4.834  35.483  0.00  0.00    -0.206 F 
ATOM      9  C   UNL     1     -13.357   3.026  32.108  0.00  0.00    +0.054 C 
ATOM     12  C   UNL     1     -13.768   4.501  32.011  0.00  0.00    +0.024 C 
ATOM     13  C   UNL     1     -14.364   2.223  32.940  0.00  0.00    +0.024 C 
ATOM     16  C   UNL     1     -13.960   5.116  33.397  0.00  0.00    +0.077 C 
ATOM     17  C   UNL     1     -14.556   2.838  34.326  0.00  0.00    +0.077 C 
ATOM     18  C   UNL     1     -14.934   4.306  34.235  0.00  0.00    +0.249 C 
ENDBRANCH   6   9
ENDBRANCH  10   6
BRANCH  14  19
ATOM     19  C   UNL     1     -16.599   1.281  27.438  0.00  0.00    +0.140 C 
BRANCH  19   7
ATOM      5  O   UNL     1     -16.534   1.893  24.619  0.00  0.00    -0.253 OA
ATOM      7  N   UNL     1     -16.100   2.478  26.825  0.00  0.00    -0.297 N 
ATOM      8  N   UNL     1     -15.566   3.940  25.122  0.00  0.00    -0.297 N 
ATOM     20  C   UNL     1     -16.105   2.698  25.445  0.00  0.00    +0.300 C 
ATOM     26  H   UNL     1     -15.711   3.198  27.426  0.00  0.00    +0.150 HD
ATOM     27  H   UNL     1     -15.308   4.566  25.880  0.00  0.00    +0.150 HD
BRANCH   8  21
ATOM     21  C   UNL     1     -15.452   4.415  23.763  0.00  0.00    +0.068 C 
ATOM     22  C   UNL     1     -14.044   4.934  23.499  0.00  0.00    +0.027 C 
ATOM     23  C   UNL     1     -16.497   5.489  23.484  0.00  0.00    +0.027 C 
ENDBRANCH   8  21
ENDBRANCH  19   7
ENDBRANCH  14  19
TORSDOF 6
ENDMDL
MODEL 7
REMARK VINA RESULT:      -6.3     26.311     28.341
REMARK  Name = 75536726
REMARK  8 active torsions:
REMARK  status: ('A' for Active; 'I' for Inactive)
REMARK    1  A    between atoms: O_4  and  C_11
REMARK    2  A    between atoms: N_6  and  C_9
REMARK    3  A    between atoms: N_6  and  C_10
REMARK    4  A    between atoms: N_7  and  C_19
REMARK    5  A    between atoms: N_8  and  C_21
REMARK    6  A    between atoms: C_14  and  C_19
REMARK    7  A    between atoms: C_21  and  C_22
REMARK    8  A    between atoms: C_21  and  C_23
REMARK                            x       y       z     vdW  Elec       q    Type
REMARK                         _______ _______ _______ _____ _____    ______ ____
ROOT
ATOM      3  O   UNL     1      -1.156 -11.402  15.111  0.00  0.00    -0.371 OA
ATOM     10  C   UNL     1      -3.285 -10.966  16.070  0.00  0.00    +0.111 C 
ATOM     11  C   UNL     1      -3.477 -11.561  14.687  0.00  0.00    +0.164 C 
ATOM     14  C   UNL     1      -2.132 -12.240  14.470  0.00  0.00    +0.165 C 
ATOM     15  C   UNL     1      -1.839 -10.500  15.999  0.00  0.00    +0.181 C 
ENDROOT
BRANCH  11   4
ATOM      4  O   UNL     1      -4.548 -12.483  14.634  0.00  0.00    -0.388 OA
ATOM     25  H   UNL     1      -5.171 -12.189  13.948  0.00  0.00    +0.210 HD
ENDBRANCH  11   4
BRANCH  10   6
ATOM      6  N   UNL     1      -4.212  -9.890  16.377  0.00  0.00    -0.306 NA
ATOM     24  H   UNL     1      -4.806  -9.696  15.571  0.00  0.00    +0.123 HD
BRANCH   6   9
ATOM      1  F   UNL     1      -6.664 -13.268  18.280  0.00  0.00    -0.206 F 
ATOM      2  F   UNL     1      -7.443 -12.429  20.129  0.00  0.00    -0.206 F 
ATOM      9  C   UNL     1      -5.037 -10.230  17.535  0.00  0.00    +0.054 C 
ATOM     12  C   UNL     1      -6.456 -10.586  17.076  0.00  0.00    +0.024 C 
ATOM     13  C   UNL     1      -4.395 -11.388  18.308  0.00  0.00    +0.024 C 
ATOM     16  C   UNL     1      -7.328 -11.017  18.255  0.00  0.00    +0.077 C 
ATOM     17  C   UNL     1      -5.267 -11.818  19.487  0.00  0.00    +0.077 C 
ATOM     18  C   UNL     1      -6.682 -12.144  19.042  0.00  0.00    +0.249 C 
ENDBRANCH   6   9
ENDBRANCH  10   6
BRANCH  14  19
ATOM     19  C   UNL     1      -1.776 -12.414  13.004  0.00  0.00    +0.140 C 
BRANCH  19   7
ATOM      5  O   UNL     1      -1.757  -9.963  11.481  0.00  0.00    -0.253 OA
ATOM      7  N   UNL     1      -2.818 -11.918  12.153  0.00  0.00    -0.297 N 
ATOM      8  N   UNL     1      -3.879 -10.477  10.697  0.00  0.00    -0.297 N 
ATOM     20  C   UNL     1      -2.730 -10.716  11.446  0.00  0.00    +0.300 C 
ATOM     26  H   UNL     1      -3.670 -12.465  12.069  0.00  0.00    +0.150 HD
ATOM     27  H   UNL     1      -4.598 -11.195  10.673  0.00  0.00    +0.150 HD
BRANCH   8  21
ATOM     21  C   UNL     1      -4.048  -9.301   9.875  0.00  0.00    +0.068 C 
ATOM     22  C   UNL     1      -4.954  -8.294  10.571  0.00  0.00    +0.027 C 
ATOM     23  C   UNL     1      -4.597  -9.682   8.505  0.00  0.00    +0.027 C 
ENDBRANCH   8  21
ENDBRANCH  19   7
ENDBRANCH  14  19
TORSDOF 6
ENDMDL
MODEL 8
REMARK VINA RESULT:      -6.2      1.860      2.573
REMARK  Name = 75536726
REMARK  8 active torsions:
REMARK  status: ('A' for Active; 'I' for Inactive)
REMARK    1  A    between atoms: O_4  and  C_11
REMARK    2  A    between atoms: N_6  and  C_9
REMARK    3  A    between atoms: N_6  and  C_10
REMARK    4  A    between atoms: N_7  and  C_19
REMARK    5  A    between atoms: N_8  and  C_21
REMARK    6  A    between atoms: C_14  and  C_19
REMARK    7  A    between atoms: C_21  and  C_22
REMARK    8  A    between atoms: C_21  and  C_23
REMARK                            x       y       z     vdW  Elec       q    Type
REMARK                         _______ _______ _______ _____ _____    ______ ____
ROOT
ATOM      3  O   UNL     1      13.093   6.811  20.420  0.00  0.00    -0.371 OA
ATOM     10  C   UNL     1      15.359   7.150  21.045  0.00  0.00    +0.111 C 
ATOM     11  C   UNL     1      14.514   8.267  21.628  0.00  0.00    +0.164 C 
ATOM     14  C   UNL     1      13.130   7.632  21.600  0.00  0.00    +0.165 C 
ATOM     15  C   UNL     1      14.441   6.611  19.961  0.00  0.00    +0.181 C 
ENDROOT
BRANCH  11   4
ATOM      4  O   UNL     1      14.905   8.621  22.939  0.00  0.00    -0.388 OA
ATOM     25  H   UNL     1      14.164   8.439  23.540  0.00  0.00    +0.210 HD
ENDBRANCH  11   4
BRANCH  10   6
ATOM      6  N   UNL     1      16.643   7.597  20.529  0.00  0.00    -0.306 NA
ATOM     24  H   UNL     1      16.836   8.548  20.841  0.00  0.00    +0.123 HD
BRANCH   6   9
ATOM      1  F   UNL     1      21.143   6.793  20.134  0.00  0.00    -0.206 F 
ATOM      2  F   UNL     1      21.513   5.039  21.364  0.00  0.00    -0.206 F 
ATOM      9  C   UNL     1      17.715   6.702  20.961  0.00  0.00    +0.054 C 
ATOM     12  C   UNL     1      18.331   6.002  19.743  0.00  0.00    +0.024 C 
ATOM     13  C   UNL     1      18.772   7.495  21.739  0.00  0.00    +0.024 C 
ATOM     16  C   UNL     1      19.505   5.112  20.149  0.00  0.00    +0.077 C 
ATOM     17  C   UNL     1      19.946   6.605  22.145  0.00  0.00    +0.077 C 
ATOM     18  C   UNL     1      20.540   5.887  20.946  0.00  0.00    +0.249 C 
ENDBRANCH   6   9
ENDBRANCH  10   6
BRANCH  14  19
ATOM     19  C   UNL     1      12.003   8.649  21.553  0.00  0.00    +0.140 C 
BRANCH  19   7
ATOM      5  O   UNL     1      12.410  11.451  22.108  0.00  0.00    -0.253 OA
ATOM      7  N   UNL     1      11.845   9.311  22.815  0.00  0.00    -0.297 N 
ATOM      8  N   UNL     1      11.837  11.059  24.322  0.00  0.00    -0.297 N 
ATOM     20  C   UNL     1      12.062  10.679  23.001  0.00  0.00    +0.300 C 
ATOM     26  H   UNL     1      11.573   8.753  23.619  0.00  0.00    +0.150 HD
ATOM     27  H   UNL     1      11.479  10.363  24.970  0.00  0.00    +0.150 HD
BRANCH   8  21
ATOM     21  C   UNL     1      11.992  12.419  24.783  0.00  0.00    +0.068 C 
ATOM     22  C   UNL     1      13.216  12.537  25.681  0.00  0.00    +0.027 C 
ATOM     23  C   UNL     1      10.732  12.885  25.503  0.00  0.00    +0.027 C 
ENDBRANCH   8  21
ENDBRANCH  19   7
ENDBRANCH  14  19
TORSDOF 6
ENDMDL
MODEL 9
REMARK VINA RESULT:      -6.2      4.504      7.331
REMARK  Name = 75536726
REMARK  8 active torsions:
REMARK  status: ('A' for Active; 'I' for Inactive)
REMARK    1  A    between atoms: O_4  and  C_11
REMARK    2  A    between atoms: N_6  and  C_9
REMARK    3  A    between atoms: N_6  and  C_10
REMARK    4  A    between atoms: N_7  and  C_19
REMARK    5  A    between atoms: N_8  and  C_21
REMARK    6  A    between atoms: C_14  and  C_19
REMARK    7  A    between atoms: C_21  and  C_22
REMARK    8  A    between atoms: C_21  and  C_23
REMARK                            x       y       z     vdW  Elec       q    Type
REMARK                         _______ _______ _______ _____ _____    ______ ____
ROOT
ATOM      3  O   UNL     1      18.413   6.033  19.480  0.00  0.00    -0.371 OA
ATOM     10  C   UNL     1      16.184   6.735  19.908  0.00  0.00    +0.111 C 
ATOM     11  C   UNL     1      16.989   6.837  21.190  0.00  0.00    +0.164 C 
ATOM     14  C   UNL     1      18.409   6.880  20.642  0.00  0.00    +0.165 C 
ATOM     15  C   UNL     1      17.051   5.799  19.081  0.00  0.00    +0.181 C 
ENDROOT
BRANCH  11   4
ATOM      4  O   UNL     1      16.678   7.994  21.940  0.00  0.00    -0.388 OA
ATOM     25  H   UNL     1      16.554   8.734  21.323  0.00  0.00    +0.210 HD
ENDBRANCH  11   4
BRANCH  10   6
ATOM      6  N   UNL     1      14.835   6.232  20.104  0.00  0.00    -0.306 NA
ATOM     24  H   UNL     1      14.801   5.622  20.920  0.00  0.00    +0.123 HD
BRANCH   6   9
ATOM      1  F   UNL     1      10.478   7.213  21.157  0.00  0.00    -0.206 F 
ATOM      2  F   UNL     1      10.340   9.379  21.027  0.00  0.00    -0.206 F 
ATOM      9  C   UNL     1      13.888   7.334  20.264  0.00  0.00    +0.054 C 
ATOM     12  C   UNL     1      12.736   7.181  19.263  0.00  0.00    +0.024 C 
ATOM     13  C   UNL     1      13.370   7.368  21.707  0.00  0.00    +0.024 C 
ATOM     16  C   UNL     1      11.689   8.277  19.451  0.00  0.00    +0.077 C 
ATOM     17  C   UNL     1      12.323   8.465  21.895  0.00  0.00    +0.077 C 
ATOM     18  C   UNL     1      11.195   8.335  20.886  0.00  0.00    +0.249 C 
ENDBRANCH   6   9
ENDBRANCH  10   6
BRANCH  14  19
ATOM     19  C   UNL     1      19.451   6.394  21.634  0.00  0.00    +0.140 C 
BRANCH  19   7
ATOM      5  O   UNL     1      21.186   6.104  23.921  0.00  0.00    -0.253 OA
ATOM      7  N   UNL     1      19.485   7.223  22.803  0.00  0.00    -0.297 N 
ATOM      8  N   UNL     1      20.182   7.965  24.875  0.00  0.00    -0.297 N 
ATOM     20  C   UNL     1      20.360   7.015  23.873  0.00  0.00    +0.300 C 
ATOM     26  H   UNL     1      18.828   7.996  22.863  0.00  0.00    +0.150 HD
ATOM     27  H   UNL     1      19.526   8.723  24.709  0.00  0.00    +0.150 HD
BRANCH   8  21
ATOM     21  C   UNL     1      20.959   7.976  26.091  0.00  0.00    +0.068 C 
ATOM     22  C   UNL     1      20.042   7.943  27.307  0.00  0.00    +0.027 C 
ATOM     23  C   UNL     1      21.878   9.192  26.126  0.00  0.00    +0.027 C 
ENDBRANCH   8  21
ENDBRANCH  19   7
ENDBRANCH  14  19
TORSDOF 6
ENDMDL
MODEL 10
REMARK VINA RESULT:      -6.1      1.996      2.510
REMARK  Name = 75536726
REMARK  8 active torsions:
REMARK  status: ('A' for Active; 'I' for Inactive)
REMARK    1  A    between atoms: O_4  and  C_11
REMARK    2  A    between atoms: N_6  and  C_9
REMARK    3  A    between atoms: N_6  and  C_10
REMARK    4  A    between atoms: N_7  and  C_19
REMARK    5  A    between atoms: N_8  and  C_21
REMARK    6  A    between atoms: C_14  and  C_19
REMARK    7  A    between atoms: C_21  and  C_22
REMARK    8  A    between atoms: C_21  and  C_23
REMARK                            x       y       z     vdW  Elec       q    Type
REMARK                         _______ _______ _______ _____ _____    ______ ____
ROOT
ATOM      3  O   UNL     1      10.884   8.219  19.572  0.00  0.00    -0.371 OA
ATOM     10  C   UNL     1      13.108   7.497  19.160  0.00  0.00    +0.111 C 
ATOM     11  C   UNL     1      12.817   7.376  20.644  0.00  0.00    +0.164 C 
ATOM     14  C   UNL     1      11.294   7.351  20.642  0.00  0.00    +0.165 C 
ATOM     15  C   UNL     1      12.014   8.453  18.714  0.00  0.00    +0.181 C 
ENDROOT
BRANCH  11   4
ATOM      4  O   UNL     1      13.362   6.203  21.214  0.00  0.00    -0.388 OA
ATOM     25  H   UNL     1      12.653   5.545  21.298  0.00  0.00    +0.210 HD
ENDBRANCH  11   4
BRANCH  10   6
ATOM      6  N   UNL     1      14.444   7.988  18.865  0.00  0.00    -0.306 NA
ATOM     24  H   UNL     1      14.453   8.466  17.965  0.00  0.00    +0.123 HD
BRANCH   6   9
ATOM      1  F   UNL     1      17.913  10.731  20.089  0.00  0.00    -0.206 F 
ATOM      2  F   UNL     1      17.325  11.561  22.012  0.00  0.00    -0.206 F 
ATOM      9  C   UNL     1      14.908   8.893  19.915  0.00  0.00    +0.054 C 
ATOM     12  C   UNL     1      16.213   8.363  20.521  0.00  0.00    +0.024 C 
ATOM     13  C   UNL     1      15.093  10.303  19.342  0.00  0.00    +0.024 C 
ATOM     16  C   UNL     1      16.766   9.322  21.575  0.00  0.00    +0.077 C 
ATOM     17  C   UNL     1      15.646  11.262  20.396  0.00  0.00    +0.077 C 
ATOM     18  C   UNL     1      16.923  10.727  21.019  0.00  0.00    +0.249 C 
ENDBRANCH   6   9
ENDBRANCH  10   6
BRANCH  14  19
ATOM     19  C   UNL     1      10.684   7.825  21.950  0.00  0.00    +0.140 C 
BRANCH  19   7
ATOM      5  O   UNL     1      10.917  10.701  21.986  0.00  0.00    -0.253 OA
ATOM      7  N   UNL     1      11.618   8.607  22.708  0.00  0.00    -0.297 N 
ATOM      8  N   UNL     1      12.664  10.505  23.500  0.00  0.00    -0.297 N 
ATOM     20  C   UNL     1      11.665  10.003  22.669  0.00  0.00    +0.300 C 
ATOM     26  H   UNL     1      12.288   8.118  23.293  0.00  0.00    +0.150 HD
ATOM     27  H   UNL     1      13.180   9.852  24.083  0.00  0.00    +0.150 HD
BRANCH   8  21
ATOM     21  C   UNL     1      12.926  11.918  23.644  0.00  0.00    +0.068 C 
ATOM     22  C   UNL     1      14.424  12.169  23.760  0.00  0.00    +0.027 C 
ATOM     23  C   UNL     1      12.178  12.479  24.847  0.00  0.00    +0.027 C 
ENDBRANCH   8  21
ENDBRANCH  19   7
ENDBRANCH  14  19
TORSDOF 6
ENDMDL
