MODEL 1
REMARK VINA RESULT:      -6.7      0.000      0.000
REMARK  Name = 11886113
REMARK  6 active torsions:
REMARK  status: ('A' for Active; 'I' for Inactive)
REMARK    1  A    between atoms: O_4  and  C_19
REMARK    2  A    between atoms: O_4  and  C_25
REMARK    3  A    between atoms: N_5  and  C_12
REMARK    4  A    between atoms: N_6  and  C_13
REMARK    5  A    between atoms: C_16  and  C_18
REMARK    6  A    between atoms: C_17  and  C_19
REMARK                            x       y       z     vdW  Elec       q    Type
REMARK                         _______ _______ _______ _____ _____    ______ ____
ROOT
ATOM      1  O   UNL     1      12.509   6.922  19.902  0.00  0.00    -0.370 OA
ATOM      2  O   UNL     1      14.769   9.109  19.880  0.00  0.00    -0.370 OA
ATOM     10  C   UNL     1      14.036   8.422  18.850  0.00  0.00    +0.176 C 
ATOM     11  C   UNL     1      13.823   6.997  19.326  0.00  0.00    +0.171 C 
ATOM     12  C   UNL     1      12.639   9.003  18.737  0.00  0.00    +0.168 C 
ATOM     13  C   UNL     1      14.875   6.799  20.395  0.00  0.00    +0.130 C 
ATOM     14  C   UNL     1      11.844   8.183  19.748  0.00  0.00    +0.190 C 
ATOM     15  C   UNL     1      15.032   8.200  20.958  0.00  0.00    +0.185 C 
ENDROOT
BRANCH  12   5
ATOM      5  N   UNL     1      12.125   8.965  17.366  0.00  0.00    -0.217 N 
ATOM      7  N   UNL     1      11.049   8.230  17.064  0.00  0.00    -0.043 NA
ATOM      8  N   UNL     1      11.816   9.272  15.248  0.00  0.00    -0.108 NA
ATOM      9  N   UNL     1      10.863   8.422  15.764  0.00  0.00    -0.023 NA
ATOM     16  C   UNL     1      12.586   9.596  16.261  0.00  0.00    +0.182 A 
BRANCH  16  18
ATOM     18  C   UNL     1      13.732  10.468  16.232  0.00  0.00    +0.021 A 
ATOM     20  C   UNL     1      13.841  11.509  17.155  0.00  0.00    +0.011 A 
ATOM     21  C   UNL     1      14.736  10.274  15.280  0.00  0.00    +0.011 A 
ATOM     22  C   UNL     1      14.951  12.355  17.127  0.00  0.00    +0.001 A 
ATOM     23  C   UNL     1      15.845  11.120  15.253  0.00  0.00    +0.001 A 
ATOM     24  C   UNL     1      15.953  12.160  16.177  0.00  0.00    +0.000 A 
ENDBRANCH  16  18
ENDBRANCH  12   5
BRANCH  13   6
ATOM      3  O   UNL     1      17.473   6.700  21.676  0.00  0.00    -0.273 OA
ATOM      6  N   UNL     1      16.113   6.324  19.826  0.00  0.00    -0.306 N 
ATOM     17  C   UNL     1      17.314   6.315  20.520  0.00  0.00    +0.239 C 
ATOM     26  H   UNL     1      16.087   5.932  18.888  0.00  0.00    +0.149 HD
BRANCH  17  19
ATOM     19  C   UNL     1      18.446   5.764  19.680  0.00  0.00    +0.255 C 
BRANCH  19   4
ATOM      4  O   UNL     1      19.696   6.128  20.224  0.00  0.00    -0.374 OA
ATOM     25  C   UNL     1      20.495   4.989  20.529  0.00  0.00    +0.194 C 
ENDBRANCH  19   4
ENDBRANCH  17  19
ENDBRANCH  13   6
TORSDOF 5
ENDMDL
MODEL 2
REMARK VINA RESULT:      -6.7     14.175     16.458
REMARK  Name = 11886113
REMARK  6 active torsions:
REMARK  status: ('A' for Active; 'I' for Inactive)
REMARK    1  A    between atoms: O_4  and  C_19
REMARK    2  A    between atoms: O_4  and  C_25
REMARK    3  A    between atoms: N_5  and  C_12
REMARK    4  A    between atoms: N_6  and  C_13
REMARK    5  A    between atoms: C_16  and  C_18
REMARK    6  A    between atoms: C_17  and  C_19
REMARK                            x       y       z     vdW  Elec       q    Type
REMARK                         _______ _______ _______ _____ _____    ______ ____
ROOT
ATOM      1  O   UNL     1       9.996   7.690   3.133  0.00  0.00    -0.370 OA
ATOM      2  O   UNL     1      12.801   6.535   3.961  0.00  0.00    -0.370 OA
ATOM     10  C   UNL     1      11.670   5.997   3.252  0.00  0.00    +0.176 C 
ATOM     11  C   UNL     1      10.423   6.558   3.907  0.00  0.00    +0.171 C 
ATOM     12  C   UNL     1      11.642   6.544   1.837  0.00  0.00    +0.168 C 
ATOM     13  C   UNL     1      10.887   7.004   5.275  0.00  0.00    +0.130 C 
ATOM     14  C   UNL     1      10.843   7.834   1.984  0.00  0.00    +0.190 C 
ATOM     15  C   UNL     1      12.334   7.384   5.018  0.00  0.00    +0.185 C 
ENDROOT
BRANCH  12   5
ATOM      5  N   UNL     1      11.097   5.583   0.874  0.00  0.00    -0.217 N 
ATOM      7  N   UNL     1       9.792   5.582   0.581  0.00  0.00    -0.043 NA
ATOM      8  N   UNL     1      10.852   3.993  -0.570  0.00  0.00    -0.108 NA
ATOM      9  N   UNL     1       9.647   4.605  -0.306  0.00  0.00    -0.023 NA
ATOM     16  C   UNL     1      11.736   4.618   0.173  0.00  0.00    +0.182 A 
BRANCH  16  18
ATOM     18  C   UNL     1      13.149   4.345   0.252  0.00  0.00    +0.021 A 
ATOM     20  C   UNL     1      13.679   3.728   1.386  0.00  0.00    +0.011 A 
ATOM     21  C   UNL     1      13.990   4.698  -0.806  0.00  0.00    +0.011 A 
ATOM     22  C   UNL     1      15.048   3.464   1.462  0.00  0.00    +0.001 A 
ATOM     23  C   UNL     1      15.357   4.434  -0.729  0.00  0.00    +0.001 A 
ATOM     24  C   UNL     1      15.886   3.816   0.406  0.00  0.00    +0.000 A 
ENDBRANCH  16  18
ENDBRANCH  12   5
BRANCH  13   6
ATOM      3  O   UNL     1       9.113   6.840   7.560  0.00  0.00    -0.273 OA
ATOM      6  N   UNL     1      10.793   5.929   6.234  0.00  0.00    -0.306 N 
ATOM     17  C   UNL     1       9.908   5.940   7.302  0.00  0.00    +0.239 C 
ATOM     26  H   UNL     1      11.370   5.106   6.086  0.00  0.00    +0.149 HD
BRANCH  17  19
ATOM     19  C   UNL     1      10.025   4.687   8.143  0.00  0.00    +0.255 C 
BRANCH  19   4
ATOM      4  O   UNL     1      10.151   5.013   9.511  0.00  0.00    -0.374 OA
ATOM     25  C   UNL     1       9.028   4.574  10.268  0.00  0.00    +0.194 C 
ENDBRANCH  19   4
ENDBRANCH  17  19
ENDBRANCH  13   6
TORSDOF 5
ENDMDL
MODEL 3
REMARK VINA RESULT:      -6.7      4.001      5.759
REMARK  Name = 11886113
REMARK  6 active torsions:
REMARK  status: ('A' for Active; 'I' for Inactive)
REMARK    1  A    between atoms: O_4  and  C_19
REMARK    2  A    between atoms: O_4  and  C_25
REMARK    3  A    between atoms: N_5  and  C_12
REMARK    4  A    between atoms: N_6  and  C_13
REMARK    5  A    between atoms: C_16  and  C_18
REMARK    6  A    between atoms: C_17  and  C_19
REMARK                            x       y       z     vdW  Elec       q    Type
REMARK                         _______ _______ _______ _____ _____    ______ ____
ROOT
ATOM      1  O   UNL     1      11.130   8.272  22.169  0.00  0.00    -0.370 OA
ATOM      2  O   UNL     1      11.928  11.080  20.999  0.00  0.00    -0.370 OA
ATOM     10  C   UNL     1      12.658   9.873  21.281  0.00  0.00    +0.176 C 
ATOM     11  C   UNL     1      12.075   9.283  22.551  0.00  0.00    +0.171 C 
ATOM     12  C   UNL     1      12.374   8.837  20.210  0.00  0.00    +0.168 C 
ATOM     13  C   UNL     1      11.363  10.444  23.210  0.00  0.00    +0.130 C 
ATOM     14  C   UNL     1      11.135   8.125  20.742  0.00  0.00    +0.190 C 
ATOM     15  C   UNL     1      10.938  11.281  22.018  0.00  0.00    +0.185 C 
ENDROOT
BRANCH  12   5
ATOM      5  N   UNL     1      13.525   7.969  19.949  0.00  0.00    -0.217 N 
ATOM      7  N   UNL     1      13.806   6.950  20.768  0.00  0.00    -0.043 NA
ATOM      8  N   UNL     1      15.288   7.046  19.105  0.00  0.00    -0.108 NA
ATOM      9  N   UNL     1      14.889   6.386  20.246  0.00  0.00    -0.023 NA
ATOM     16  C   UNL     1      14.427   8.024  18.941  0.00  0.00    +0.182 A 
BRANCH  16  18
ATOM     18  C   UNL     1      14.418   9.001  17.883  0.00  0.00    +0.021 A 
ATOM     20  C   UNL     1      14.789  10.320  18.147  0.00  0.00    +0.011 A 
ATOM     21  C   UNL     1      14.037   8.631  16.591  0.00  0.00    +0.011 A 
ATOM     22  C   UNL     1      14.780  11.267  17.122  0.00  0.00    +0.001 A 
ATOM     23  C   UNL     1      14.029   9.578  15.567  0.00  0.00    +0.001 A 
ATOM     24  C   UNL     1      14.400  10.897  15.833  0.00  0.00    +0.000 A 
ENDBRANCH  16  18
ENDBRANCH  12   5
BRANCH  13   6
ATOM      3  O   UNL     1      10.639  12.153  25.435  0.00  0.00    -0.273 OA
ATOM      6  N   UNL     1      12.255  11.180  24.074  0.00  0.00    -0.306 N 
ATOM     17  C   UNL     1      11.813  11.978  25.119  0.00  0.00    +0.239 C 
ATOM     26  H   UNL     1      13.256  11.066  23.935  0.00  0.00    +0.149 HD
BRANCH  17  19
ATOM     19  C   UNL     1      12.964  12.629  25.856  0.00  0.00    +0.255 C 
BRANCH  19   4
ATOM      4  O   UNL     1      13.947  11.673  26.191  0.00  0.00    -0.374 OA
ATOM     25  C   UNL     1      14.937  12.212  27.061  0.00  0.00    +0.194 C 
ENDBRANCH  19   4
ENDBRANCH  17  19
ENDBRANCH  13   6
TORSDOF 5
ENDMDL
MODEL 4
REMARK VINA RESULT:      -6.4      3.384      6.716
REMARK  Name = 11886113
REMARK  6 active torsions:
REMARK  status: ('A' for Active; 'I' for Inactive)
REMARK    1  A    between atoms: O_4  and  C_19
REMARK    2  A    between atoms: O_4  and  C_25
REMARK    3  A    between atoms: N_5  and  C_12
REMARK    4  A    between atoms: N_6  and  C_13
REMARK    5  A    between atoms: C_16  and  C_18
REMARK    6  A    between atoms: C_17  and  C_19
REMARK                            x       y       z     vdW  Elec       q    Type
REMARK                         _______ _______ _______ _____ _____    ______ ____
ROOT
ATOM      1  O   UNL     1      13.259  10.313  18.178  0.00  0.00    -0.370 OA
ATOM      2  O   UNL     1      13.193   8.518  15.596  0.00  0.00    -0.370 OA
ATOM     10  C   UNL     1      14.027   8.550  16.768  0.00  0.00    +0.176 C 
ATOM     11  C   UNL     1      14.212  10.007  17.147  0.00  0.00    +0.171 C 
ATOM     12  C   UNL     1      13.289   7.936  17.943  0.00  0.00    +0.168 C 
ATOM     13  C   UNL     1      13.878  10.767  15.883  0.00  0.00    +0.130 C 
ATOM     14  C   UNL     1      12.538   9.125  18.534  0.00  0.00    +0.190 C 
ATOM     15  C   UNL     1      12.857   9.861  15.220  0.00  0.00    +0.185 C 
ENDROOT
BRANCH  12   5
ATOM      5  N   UNL     1      14.186   7.245  18.871  0.00  0.00    -0.217 N 
ATOM      7  N   UNL     1      15.360   6.762  18.449  0.00  0.00    -0.043 NA
ATOM      8  N   UNL     1      15.080   6.341  20.620  0.00  0.00    -0.108 NA
ATOM      9  N   UNL     1      15.905   6.209  19.525  0.00  0.00    -0.023 NA
ATOM     16  C   UNL     1      14.021   6.987  20.189  0.00  0.00    +0.182 A 
BRANCH  16  18
ATOM     18  C   UNL     1      12.866   7.368  20.962  0.00  0.00    +0.021 A 
ATOM     20  C   UNL     1      11.740   6.545  20.988  0.00  0.00    +0.011 A 
ATOM     21  C   UNL     1      12.871   8.563  21.686  0.00  0.00    +0.011 A 
ATOM     22  C   UNL     1      10.621   6.914  21.736  0.00  0.00    +0.001 A 
ATOM     23  C   UNL     1      11.753   8.931  22.433  0.00  0.00    +0.001 A 
ATOM     24  C   UNL     1      10.627   8.106  22.458  0.00  0.00    +0.000 A 
ENDBRANCH  16  18
ENDBRANCH  12   5
BRANCH  13   6
ATOM      3  O   UNL     1      15.890  12.844  16.078  0.00  0.00    -0.273 OA
ATOM      6  N   UNL     1      15.046  10.934  15.052  0.00  0.00    -0.306 N 
ATOM     17  C   UNL     1      15.958  11.966  15.221  0.00  0.00    +0.239 C 
ATOM     26  H   UNL     1      15.230  10.231  14.341  0.00  0.00    +0.149 HD
BRANCH  17  19
ATOM     19  C   UNL     1      17.082  11.895  14.211  0.00  0.00    +0.255 C 
BRANCH  19   4
ATOM      4  O   UNL     1      16.915  12.874  13.207  0.00  0.00    -0.374 OA
ATOM     25  C   UNL     1      17.016  12.317  11.900  0.00  0.00    +0.194 C 
ENDBRANCH  19   4
ENDBRANCH  17  19
ENDBRANCH  13   6
TORSDOF 5
ENDMDL
MODEL 5
REMARK VINA RESULT:      -6.4     26.373     28.540
REMARK  Name = 11886113
REMARK  6 active torsions:
REMARK  status: ('A' for Active; 'I' for Inactive)
REMARK    1  A    between atoms: O_4  and  C_19
REMARK    2  A    between atoms: O_4  and  C_25
REMARK    3  A    between atoms: N_5  and  C_12
REMARK    4  A    between atoms: N_6  and  C_13
REMARK    5  A    between atoms: C_16  and  C_18
REMARK    6  A    between atoms: C_17  and  C_19
REMARK                            x       y       z     vdW  Elec       q    Type
REMARK                         _______ _______ _______ _____ _____    ______ ____
ROOT
ATOM      1  O   UNL     1      -5.213 -11.037  17.658  0.00  0.00    -0.370 OA
ATOM      2  O   UNL     1      -6.677 -11.511  14.916  0.00  0.00    -0.370 OA
ATOM     10  C   UNL     1      -5.556 -10.706  15.321  0.00  0.00    +0.176 C 
ATOM     11  C   UNL     1      -5.863 -10.176  16.709  0.00  0.00    +0.171 C 
ATOM     12  C   UNL     1      -4.332 -11.584  15.506  0.00  0.00    +0.168 C 
ATOM     13  C   UNL     1      -7.365 -10.301  16.832  0.00  0.00    +0.130 C 
ATOM     14  C   UNL     1      -4.446 -12.029  16.961  0.00  0.00    +0.190 C 
ATOM     15  C   UNL     1      -7.663 -11.505  15.958  0.00  0.00    +0.185 C 
ENDROOT
BRANCH  12   5
ATOM      5  N   UNL     1      -3.087 -10.893  15.165  0.00  0.00    -0.217 N 
ATOM      7  N   UNL     1      -2.290 -10.415  16.126  0.00  0.00    -0.043 NA
ATOM      8  N   UNL     1      -1.429  -9.986  14.115  0.00  0.00    -0.108 NA
ATOM      9  N   UNL     1      -1.273  -9.860  15.477  0.00  0.00    -0.023 NA
ATOM     16  C   UNL     1      -2.561 -10.631  13.946  0.00  0.00    +0.182 A 
BRANCH  16  18
ATOM     18  C   UNL     1      -3.164 -11.006  12.693  0.00  0.00    +0.021 A 
ATOM     20  C   UNL     1      -2.882 -12.251  12.128  0.00  0.00    +0.011 A 
ATOM     21  C   UNL     1      -4.031 -10.127  12.041  0.00  0.00    +0.011 A 
ATOM     22  C   UNL     1      -3.466 -12.615  10.913  0.00  0.00    +0.001 A 
ATOM     23  C   UNL     1      -4.614 -10.492  10.827  0.00  0.00    +0.001 A 
ATOM     24  C   UNL     1      -4.331 -11.737  10.264  0.00  0.00    +0.000 A 
ENDBRANCH  16  18
ENDBRANCH  12   5
BRANCH  13   6
ATOM      3  O   UNL     1      -9.941  -9.258  17.655  0.00  0.00    -0.273 OA
ATOM      6  N   UNL     1      -8.028  -9.119  16.337  0.00  0.00    -0.306 N 
ATOM     17  C   UNL     1      -9.269  -8.696  16.794  0.00  0.00    +0.239 C 
ATOM     26  H   UNL     1      -7.536  -8.545  15.657  0.00  0.00    +0.149 HD
BRANCH  17  19
ATOM     19  C   UNL     1      -9.722  -7.429  16.101  0.00  0.00    +0.255 C 
BRANCH  19   4
ATOM      4  O   UNL     1     -10.863  -6.893  16.736  0.00  0.00    -0.374 OA
ATOM     25  C   UNL     1     -11.556  -5.975  15.896  0.00  0.00    +0.194 C 
ENDBRANCH  19   4
ENDBRANCH  17  19
ENDBRANCH  13   6
TORSDOF 5
ENDMDL
MODEL 6
REMARK VINA RESULT:      -6.0     32.352     34.182
REMARK  Name = 11886113
REMARK  6 active torsions:
REMARK  status: ('A' for Active; 'I' for Inactive)
REMARK    1  A    between atoms: O_4  and  C_19
REMARK    2  A    between atoms: O_4  and  C_25
REMARK    3  A    between atoms: N_5  and  C_12
REMARK    4  A    between atoms: N_6  and  C_13
REMARK    5  A    between atoms: C_16  and  C_18
REMARK    6  A    between atoms: C_17  and  C_19
REMARK                            x       y       z     vdW  Elec       q    Type
REMARK                         _______ _______ _______ _____ _____    ______ ____
ROOT
ATOM      1  O   UNL     1      -0.980 -15.547  -3.588  0.00  0.00    -0.370 OA
ATOM      2  O   UNL     1       2.149 -15.824  -3.728  0.00  0.00    -0.370 OA
ATOM     10  C   UNL     1       1.255 -14.966  -2.996  0.00  0.00    +0.176 C 
ATOM     11  C   UNL     1       0.090 -14.646  -3.913  0.00  0.00    +0.171 C 
ATOM     12  C   UNL     1       0.637 -15.731  -1.841  0.00  0.00    +0.168 C 
ATOM     13  C   UNL     1       0.616 -14.938  -5.301  0.00  0.00    +0.130 C 
ATOM     14  C   UNL     1      -0.600 -16.361  -2.470  0.00  0.00    +0.190 C 
ATOM     15  C   UNL     1       1.618 -16.048  -5.041  0.00  0.00    +0.185 C 
ENDROOT
BRANCH  12   5
ATOM      5  N   UNL     1       0.376 -14.878  -0.678  0.00  0.00    -0.217 N 
ATOM      7  N   UNL     1      -0.868 -14.481  -0.394  0.00  0.00    -0.043 NA
ATOM      8  N   UNL     1       0.572 -13.666   1.101  0.00  0.00    -0.108 NA
ATOM      9  N   UNL     1      -0.744 -13.738   0.699  0.00  0.00    -0.023 NA
ATOM     16  C   UNL     1       1.247 -14.382   0.231  0.00  0.00    +0.182 A 
BRANCH  16  18
ATOM     18  C   UNL     1       2.668 -14.616   0.221  0.00  0.00    +0.021 A 
ATOM     20  C   UNL     1       3.509 -13.775  -0.510  0.00  0.00    +0.011 A 
ATOM     21  C   UNL     1       3.208 -15.684   0.941  0.00  0.00    +0.011 A 
ATOM     22  C   UNL     1       4.886 -14.002  -0.521  0.00  0.00    +0.001 A 
ATOM     23  C   UNL     1       4.584 -15.910   0.930  0.00  0.00    +0.001 A 
ATOM     24  C   UNL     1       5.423 -15.068   0.199  0.00  0.00    +0.000 A 
ENDBRANCH  16  18
ENDBRANCH  12   5
BRANCH  13   6
ATOM      3  O   UNL     1      -0.638 -12.782  -6.778  0.00  0.00    -0.273 OA
ATOM      6  N   UNL     1       1.259 -13.777  -5.869  0.00  0.00    -0.306 N 
ATOM     17  C   UNL     1       0.572 -12.793  -6.565  0.00  0.00    +0.239 C 
ATOM     26  H   UNL     1       2.256 -13.657  -5.707  0.00  0.00    +0.149 HD
BRANCH  17  19
ATOM     19  C   UNL     1       1.496 -11.695  -7.047  0.00  0.00    +0.255 C 
BRANCH  19   4
ATOM      4  O   UNL     1       2.442 -11.365  -6.052  0.00  0.00    -0.374 OA
ATOM     25  C   UNL     1       1.909 -10.457  -5.093  0.00  0.00    +0.194 C 
ENDBRANCH  19   4
ENDBRANCH  17  19
ENDBRANCH  13   6
TORSDOF 5
ENDMDL
MODEL 7
REMARK VINA RESULT:      -6.0     20.581     22.453
REMARK  Name = 11886113
REMARK  6 active torsions:
REMARK  status: ('A' for Active; 'I' for Inactive)
REMARK    1  A    between atoms: O_4  and  C_19
REMARK    2  A    between atoms: O_4  and  C_25
REMARK    3  A    between atoms: N_5  and  C_12
REMARK    4  A    between atoms: N_6  and  C_13
REMARK    5  A    between atoms: C_16  and  C_18
REMARK    6  A    between atoms: C_17  and  C_19
REMARK                            x       y       z     vdW  Elec       q    Type
REMARK                         _______ _______ _______ _____ _____    ______ ____
ROOT
ATOM      1  O   UNL     1      -0.609  12.158   2.554  0.00  0.00    -0.370 OA
ATOM      2  O   UNL     1      -0.960   9.230   1.462  0.00  0.00    -0.370 OA
ATOM     10  C   UNL     1      -0.570   9.780   2.733  0.00  0.00    +0.176 C 
ATOM     11  C   UNL     1       0.259  11.018   2.450  0.00  0.00    +0.171 C 
ATOM     12  C   UNL     1      -1.793  10.296   3.468  0.00  0.00    +0.168 C 
ATOM     13  C   UNL     1       0.720  10.841   1.020  0.00  0.00    +0.130 C 
ATOM     14  C   UNL     1      -1.915  11.731   2.966  0.00  0.00    +0.190 C 
ATOM     15  C   UNL     1      -0.417  10.041   0.411  0.00  0.00    +0.185 C 
ENDROOT
BRANCH  12   5
ATOM      5  N   UNL     1      -1.677  10.154   4.921  0.00  0.00    -0.217 N 
ATOM      7  N   UNL     1      -0.718  10.801   5.591  0.00  0.00    -0.043 NA
ATOM      8  N   UNL     1      -1.966   9.593   6.989  0.00  0.00    -0.108 NA
ATOM      9  N   UNL     1      -0.900  10.454   6.860  0.00  0.00    -0.023 NA
ATOM     16  C   UNL     1      -2.433   9.422   5.773  0.00  0.00    +0.182 A 
BRANCH  16  18
ATOM     18  C   UNL     1      -3.552   8.604   5.382  0.00  0.00    +0.021 A 
ATOM     20  C   UNL     1      -4.751   9.201   4.990  0.00  0.00    +0.011 A 
ATOM     21  C   UNL     1      -3.439   7.212   5.393  0.00  0.00    +0.011 A 
ATOM     22  C   UNL     1      -5.835   8.408   4.611  0.00  0.00    +0.001 A 
ATOM     23  C   UNL     1      -4.523   6.420   5.015  0.00  0.00    +0.001 A 
ATOM     24  C   UNL     1      -5.722   7.019   4.624  0.00  0.00    +0.000 A 
ENDBRANCH  16  18
ENDBRANCH  12   5
BRANCH  13   6
ATOM      3  O   UNL     1       3.404  11.934   1.068  0.00  0.00    -0.273 OA
ATOM      6  N   UNL     1       1.963  10.110   0.961  0.00  0.00    -0.306 N 
ATOM     17  C   UNL     1       3.207  10.724   0.989  0.00  0.00    +0.239 C 
ATOM     26  H   UNL     1       1.919   9.094   0.946  0.00  0.00    +0.149 HD
BRANCH  17  19
ATOM     19  C   UNL     1       4.334   9.716   0.912  0.00  0.00    +0.255 C 
BRANCH  19   4
ATOM      4  O   UNL     1       4.148   8.841  -0.180  0.00  0.00    -0.374 OA
ATOM     25  C   UNL     1       4.681   9.377  -1.387  0.00  0.00    +0.194 C 
ENDBRANCH  19   4
ENDBRANCH  17  19
ENDBRANCH  13   6
TORSDOF 5
ENDMDL
MODEL 8
REMARK VINA RESULT:      -6.0     32.755     34.799
REMARK  Name = 11886113
REMARK  6 active torsions:
REMARK  status: ('A' for Active; 'I' for Inactive)
REMARK    1  A    between atoms: O_4  and  C_19
REMARK    2  A    between atoms: O_4  and  C_25
REMARK    3  A    between atoms: N_5  and  C_12
REMARK    4  A    between atoms: N_6  and  C_13
REMARK    5  A    between atoms: C_16  and  C_18
REMARK    6  A    between atoms: C_17  and  C_19
REMARK                            x       y       z     vdW  Elec       q    Type
REMARK                         _______ _______ _______ _____ _____    ______ ____
ROOT
ATOM      1  O   UNL     1       0.796 -14.926  -4.702  0.00  0.00    -0.370 OA
ATOM      2  O   UNL     1       1.151 -11.806  -4.869  0.00  0.00    -0.370 OA
ATOM     10  C   UNL     1       0.436 -12.682  -3.980  0.00  0.00    +0.176 C 
ATOM     11  C   UNL     1      -0.114 -13.821  -4.819  0.00  0.00    +0.171 C 
ATOM     12  C   UNL     1       1.405 -13.345  -3.019  0.00  0.00    +0.168 C 
ATOM     13  C   UNL     1      -0.104 -13.282  -6.232  0.00  0.00    +0.130 C 
ATOM     14  C   UNL     1       1.842 -14.593  -3.779  0.00  0.00    +0.190 C 
ATOM     15  C   UNL     1       1.072 -12.323  -6.204  0.00  0.00    +0.185 C 
ENDROOT
BRANCH  12   5
ATOM      5  N   UNL     1       0.810 -13.596  -1.705  0.00  0.00    -0.217 N 
ATOM      7  N   UNL     1      -0.462 -13.261  -1.459  0.00  0.00    -0.043 NA
ATOM      8  N   UNL     1       0.465 -14.179   0.349  0.00  0.00    -0.108 NA
ATOM      9  N   UNL     1      -0.669 -13.621  -0.199  0.00  0.00    -0.023 NA
ATOM     16  C   UNL     1       1.368 -14.153  -0.605  0.00  0.00    +0.182 A 
BRANCH  16  18
ATOM     18  C   UNL     1       2.726 -14.627  -0.523  0.00  0.00    +0.021 A 
ATOM     20  C   UNL     1       3.783 -13.715  -0.492  0.00  0.00    +0.011 A 
ATOM     21  C   UNL     1       2.988 -15.998  -0.476  0.00  0.00    +0.011 A 
ATOM     22  C   UNL     1       5.099 -14.174  -0.413  0.00  0.00    +0.001 A 
ATOM     23  C   UNL     1       4.304 -16.455  -0.398  0.00  0.00    +0.001 A 
ATOM     24  C   UNL     1       5.359 -15.543  -0.367  0.00  0.00    +0.000 A 
ENDBRANCH  16  18
ENDBRANCH  12   5
BRANCH  13   6
ATOM      3  O   UNL     1      -2.610 -14.453  -7.096  0.00  0.00    -0.273 OA
ATOM      6  N   UNL     1      -1.334 -12.591  -6.535  0.00  0.00    -0.306 N 
ATOM     17  C   UNL     1      -2.489 -13.241  -6.945  0.00  0.00    +0.239 C 
ATOM     26  H   UNL     1      -1.364 -11.584  -6.392  0.00  0.00    +0.149 HD
BRANCH  17  19
ATOM     19  C   UNL     1      -3.624 -12.270  -7.191  0.00  0.00    +0.255 C 
BRANCH  19   4
ATOM      4  O   UNL     1      -3.912 -11.530  -6.024  0.00  0.00    -0.374 OA
ATOM     25  C   UNL     1      -4.754 -12.253  -5.131  0.00  0.00    +0.194 C 
ENDBRANCH  19   4
ENDBRANCH  17  19
ENDBRANCH  13   6
TORSDOF 5
ENDMDL
MODEL 9
REMARK VINA RESULT:      -5.9     26.626     29.585
REMARK  Name = 11886113
REMARK  6 active torsions:
REMARK  status: ('A' for Active; 'I' for Inactive)
REMARK    1  A    between atoms: O_4  and  C_19
REMARK    2  A    between atoms: O_4  and  C_25
REMARK    3  A    between atoms: N_5  and  C_12
REMARK    4  A    between atoms: N_6  and  C_13
REMARK    5  A    between atoms: C_16  and  C_18
REMARK    6  A    between atoms: C_17  and  C_19
REMARK                            x       y       z     vdW  Elec       q    Type
REMARK                         _______ _______ _______ _____ _____    ______ ____
ROOT
ATOM      1  O   UNL     1     -15.169   7.436  22.925  0.00  0.00    -0.370 OA
ATOM      2  O   UNL     1     -13.502   4.899  22.102  0.00  0.00    -0.370 OA
ATOM     10  C   UNL     1     -14.519   5.680  21.448  0.00  0.00    +0.176 C 
ATOM     11  C   UNL     1     -15.512   6.104  22.514  0.00  0.00    +0.171 C 
ATOM     12  C   UNL     1     -13.924   6.979  20.939  0.00  0.00    +0.168 C 
ATOM     13  C   UNL     1     -15.282   5.130  23.648  0.00  0.00    +0.130 C 
ATOM     14  C   UNL     1     -14.074   7.916  22.132  0.00  0.00    +0.190 C 
ATOM     15  C   UNL     1     -13.807   4.804  23.500  0.00  0.00    +0.185 C 
ENDROOT
BRANCH  12   5
ATOM      5  N   UNL     1     -14.559   7.441  19.702  0.00  0.00    -0.217 N 
ATOM      7  N   UNL     1     -15.834   7.136  19.439  0.00  0.00    -0.043 NA
ATOM      8  N   UNL     1     -14.968   8.358  17.788  0.00  0.00    -0.108 NA
ATOM      9  N   UNL     1     -16.081   7.702  18.264  0.00  0.00    -0.023 NA
ATOM     16  C   UNL     1     -14.038   8.183  18.698  0.00  0.00    +0.182 A 
BRANCH  16  18
ATOM     18  C   UNL     1     -12.687   8.681  18.661  0.00  0.00    +0.021 A 
ATOM     20  C   UNL     1     -11.723   8.030  17.889  0.00  0.00    +0.011 A 
ATOM     21  C   UNL     1     -12.338   9.816  19.397  0.00  0.00    +0.011 A 
ATOM     22  C   UNL     1     -10.414   8.512  17.853  0.00  0.00    +0.001 A 
ATOM     23  C   UNL     1     -11.029  10.297  19.361  0.00  0.00    +0.001 A 
ATOM     24  C   UNL     1     -10.067   9.645  18.589  0.00  0.00    +0.000 A 
ENDBRANCH  16  18
ENDBRANCH  12   5
BRANCH  13   6
ATOM      3  O   UNL     1     -16.049   3.245  25.711  0.00  0.00    -0.273 OA
ATOM      6  N   UNL     1     -16.096   3.948  23.494  0.00  0.00    -0.306 N 
ATOM     17  C   UNL     1     -16.411   3.101  24.546  0.00  0.00    +0.239 C 
ATOM     26  H   UNL     1     -16.495   3.760  22.578  0.00  0.00    +0.149 HD
BRANCH  17  19
ATOM     19  C   UNL     1     -17.277   1.944  24.097  0.00  0.00    +0.255 C 
BRANCH  19   4
ATOM      4  O   UNL     1     -17.094   1.687  22.721  0.00  0.00    -0.374 OA
ATOM     25  C   UNL     1     -18.334   1.533  22.039  0.00  0.00    +0.194 C 
ENDBRANCH  19   4
ENDBRANCH  17  19
ENDBRANCH  13   6
TORSDOF 5
ENDMDL
MODEL 10
REMARK VINA RESULT:      -5.8     11.472     13.746
REMARK  Name = 11886113
REMARK  6 active torsions:
REMARK  status: ('A' for Active; 'I' for Inactive)
REMARK    1  A    between atoms: O_4  and  C_19
REMARK    2  A    between atoms: O_4  and  C_25
REMARK    3  A    between atoms: N_5  and  C_12
REMARK    4  A    between atoms: N_6  and  C_13
REMARK    5  A    between atoms: C_16  and  C_18
REMARK    6  A    between atoms: C_17  and  C_19
REMARK                            x       y       z     vdW  Elec       q    Type
REMARK                         _______ _______ _______ _____ _____    ______ ____
ROOT
ATOM      1  O   UNL     1      13.241   8.228   3.820  0.00  0.00    -0.370 OA
ATOM      2  O   UNL     1      13.356   7.004   6.714  0.00  0.00    -0.370 OA
ATOM     10  C   UNL     1      12.328   7.655   5.947  0.00  0.00    +0.176 C 
ATOM     11  C   UNL     1      12.998   8.748   5.136  0.00  0.00    +0.171 C 
ATOM     12  C   UNL     1      11.771   6.695   4.912  0.00  0.00    +0.168 C 
ATOM     13  C   UNL     1      14.307   8.995   5.852  0.00  0.00    +0.130 C 
ATOM     14  C   UNL     1      12.695   6.906   3.717  0.00  0.00    +0.190 C 
ATOM     15  C   UNL     1      14.617   7.629   6.439  0.00  0.00    +0.185 C 
ENDROOT
BRANCH  12   5
ATOM      5  N   UNL     1      10.349   6.921   4.644  0.00  0.00    -0.217 N 
ATOM      7  N   UNL     1       9.955   7.486   3.498  0.00  0.00    -0.043 NA
ATOM      8  N   UNL     1       8.193   7.011   4.779  0.00  0.00    -0.108 NA
ATOM      9  N   UNL     1       8.631   7.539   3.585  0.00  0.00    -0.023 NA
ATOM     16  C   UNL     1       9.276   6.634   5.418  0.00  0.00    +0.182 A 
BRANCH  16  18
ATOM     18  C   UNL     1       9.343   6.019   6.719  0.00  0.00    +0.021 A 
ATOM     20  C   UNL     1       9.727   4.683   6.842  0.00  0.00    +0.011 A 
ATOM     21  C   UNL     1       9.025   6.759   7.861  0.00  0.00    +0.011 A 
ATOM     22  C   UNL     1       9.792   4.087   8.102  0.00  0.00    +0.001 A 
ATOM     23  C   UNL     1       9.090   6.163   9.120  0.00  0.00    +0.001 A 
ATOM     24  C   UNL     1       9.474   4.826   9.241  0.00  0.00    +0.000 A 
ENDBRANCH  16  18
ENDBRANCH  12   5
BRANCH  13   6
ATOM      3  O   UNL     1      14.746  11.850   5.628  0.00  0.00    -0.273 OA
ATOM      6  N   UNL     1      14.156   9.987   6.889  0.00  0.00    -0.306 N 
ATOM     17  C   UNL     1      14.391  11.339   6.686  0.00  0.00    +0.239 C 
ATOM     26  H   UNL     1      13.814   9.680   7.796  0.00  0.00    +0.149 HD
BRANCH  17  19
ATOM     19  C   UNL     1      14.155  12.146   7.945  0.00  0.00    +0.255 C 
BRANCH  19   4
ATOM      4  O   UNL     1      12.803  12.067   8.342  0.00  0.00    -0.374 OA
ATOM     25  C   UNL     1      12.033  13.149   7.828  0.00  0.00    +0.194 C 
ENDBRANCH  19   4
ENDBRANCH  17  19
ENDBRANCH  13   6
TORSDOF 5
ENDMDL
