MODEL 1
REMARK VINA RESULT:      -7.3      0.000      0.000
REMARK  Name = 75536636
REMARK  7 active torsions:
REMARK  status: ('A' for Active; 'I' for Inactive)
REMARK    1  A    between atoms: O_3  and  C_11
REMARK    2  A    between atoms: N_6  and  C_9
REMARK    3  A    between atoms: N_6  and  C_10
REMARK    4  A    between atoms: N_8  and  C_18
REMARK    5  A    between atoms: C_12  and  C_18
REMARK    6  A    between atoms: C_19  and  C_20
REMARK    7  A    between atoms: C_21  and  C_22
REMARK                            x       y       z     vdW  Elec       q    Type
REMARK                         _______ _______ _______ _____ _____    ______ ____
ROOT
ATOM      2  O   UNL     1      19.326   6.977  21.928  0.00  0.00    -0.371 OA
ATOM      9  C   UNL     1      17.394   6.701  20.573  0.00  0.00    +0.111 C 
ATOM     11  C   UNL     1      18.616   6.265  19.786  0.00  0.00    +0.164 C 
ATOM     12  C   UNL     1      19.610   6.003  20.910  0.00  0.00    +0.165 C 
ATOM     15  C   UNL     1      18.027   7.539  21.672  0.00  0.00    +0.181 C 
ENDROOT
BRANCH  11   3
ATOM      3  O   UNL     1      18.381   5.107  19.008  0.00  0.00    -0.388 OA
ATOM     29  H   UNL     1      18.394   4.335  19.599  0.00  0.00    +0.210 HD
ENDBRANCH  11   3
BRANCH   9   6
ATOM      6  N   UNL     1      16.425   7.442  19.783  0.00  0.00    -0.306 NA
ATOM     28  H   UNL     1      16.630   7.341  18.789  0.00  0.00    +0.123 HD
BRANCH   6  10
ATOM      4  O   UNL     1      10.375   8.472  19.404  0.00  0.00    -0.276 OA
ATOM      7  N   UNL     1      12.246   7.531  20.409  0.00  0.00    -0.302 N 
ATOM     10  C   UNL     1      15.067   6.981  20.061  0.00  0.00    +0.057 C 
ATOM     13  C   UNL     1      14.153   7.280  18.867  0.00  0.00    +0.037 C 
ATOM     14  C   UNL     1      14.531   7.657  21.330  0.00  0.00    +0.037 C 
ATOM     16  C   UNL     1      12.708   6.893  19.175  0.00  0.00    +0.109 C 
ATOM     17  C   UNL     1      13.078   7.263  21.590  0.00  0.00    +0.109 C 
ATOM     19  C   UNL     1      11.076   8.289  20.402  0.00  0.00    +0.212 C 
ATOM     20  C   UNL     1      10.670   8.917  21.711  0.00  0.00    +0.109 C 
ENDBRANCH   6  10
ENDBRANCH   9   6
BRANCH  12  18
ATOM     18  C   UNL     1      21.058   6.125  20.472  0.00  0.00    +0.138 C 
BRANCH  18   8
ATOM      5  O   UNL     1      22.447   5.388  22.874  0.00  0.00    -0.270 OA
ATOM      8  N   UNL     1      21.779   4.908  20.704  0.00  0.00    -0.309 N 
ATOM     21  C   UNL     1      22.426   4.632  21.906  0.00  0.00    +0.244 C 
ATOM     30  H   UNL     1      21.860   4.271  19.919  0.00  0.00    +0.149 HD
BRANCH  21  22
ATOM      1  F   UNL     1      25.177  -0.253  22.185  0.00  0.00    -0.205 F 
ATOM     22  C   UNL     1      23.152   3.339  21.979  0.00  0.00    +0.037 A 
ATOM     23  C   UNL     1      23.768   2.820  20.841  0.00  0.00    +0.016 A 
ATOM     24  C   UNL     1      23.221   2.644  23.188  0.00  0.00    +0.016 A 
ATOM     25  C   UNL     1      24.452   1.606  20.910  0.00  0.00    +0.039 A 
ATOM     26  C   UNL     1      23.904   1.431  23.257  0.00  0.00    +0.039 A 
ATOM     27  C   UNL     1      24.519   0.912  22.117  0.00  0.00    +0.123 A 
ENDBRANCH  21  22
ENDBRANCH  18   8
ENDBRANCH  12  18
TORSDOF 6
ENDMDL
MODEL 2
REMARK VINA RESULT:      -7.0     31.990     34.932
REMARK  Name = 75536636
REMARK  7 active torsions:
REMARK  status: ('A' for Active; 'I' for Inactive)
REMARK    1  A    between atoms: O_3  and  C_11
REMARK    2  A    between atoms: N_6  and  C_9
REMARK    3  A    between atoms: N_6  and  C_10
REMARK    4  A    between atoms: N_8  and  C_18
REMARK    5  A    between atoms: C_12  and  C_18
REMARK    6  A    between atoms: C_19  and  C_20
REMARK    7  A    between atoms: C_21  and  C_22
REMARK                            x       y       z     vdW  Elec       q    Type
REMARK                         _______ _______ _______ _____ _____    ______ ____
ROOT
ATOM      2  O   UNL     1     -17.035   1.274  25.081  0.00  0.00    -0.371 OA
ATOM      9  C   UNL     1     -16.051   3.436  25.024  0.00  0.00    +0.111 C 
ATOM     11  C   UNL     1     -16.297   3.043  26.469  0.00  0.00    +0.164 C 
ATOM     12  C   UNL     1     -16.402   1.528  26.346  0.00  0.00    +0.165 C 
ATOM     15  C   UNL     1     -16.971   2.474  24.290  0.00  0.00    +0.181 C 
ENDROOT
BRANCH  11   3
ATOM      3  O   UNL     1     -15.242   3.431  27.328  0.00  0.00    -0.388 OA
ATOM     29  H   UNL     1     -14.400   3.285  26.864  0.00  0.00    +0.210 HD
ENDBRANCH  11   3
BRANCH   9   6
ATOM      6  N   UNL     1     -16.348   4.831  24.740  0.00  0.00    -0.306 NA
ATOM     28  H   UNL     1     -15.908   5.433  25.436  0.00  0.00    +0.123 HD
BRANCH   6  10
ATOM      4  O   UNL     1     -11.801   6.909  21.161  0.00  0.00    -0.276 OA
ATOM      7  N   UNL     1     -14.047   6.612  21.675  0.00  0.00    -0.302 N 
ATOM     10  C   UNL     1     -15.890   5.197  23.402  0.00  0.00    +0.057 C 
ATOM     13  C   UNL     1     -14.453   4.706  23.185  0.00  0.00    +0.037 C 
ATOM     14  C   UNL     1     -15.972   6.717  23.215  0.00  0.00    +0.037 C 
ATOM     16  C   UNL     1     -13.920   5.162  21.828  0.00  0.00    +0.109 C 
ATOM     17  C   UNL     1     -15.408   7.134  21.857  0.00  0.00    +0.109 C 
ATOM     19  C   UNL     1     -12.929   7.376  21.343  0.00  0.00    +0.212 C 
ATOM     20  C   UNL     1     -13.141   8.862  21.209  0.00  0.00    +0.109 C 
ENDBRANCH   6  10
ENDBRANCH   9   6
BRANCH  12  18
ATOM     18  C   UNL     1     -17.210   0.891  27.462  0.00  0.00    +0.138 C 
BRANCH  18   8
ATOM      5  O   UNL     1     -15.032  -0.074  29.065  0.00  0.00    -0.270 OA
ATOM      8  N   UNL     1     -16.808   1.385  28.747  0.00  0.00    -0.309 N 
ATOM     21  C   UNL     1     -15.734   0.855  29.456  0.00  0.00    +0.244 C 
ATOM     30  H   UNL     1     -17.391   2.106  29.159  0.00  0.00    +0.149 HD
BRANCH  21  22
ATOM      1  F   UNL     1     -14.714   3.137  34.483  0.00  0.00    -0.205 F 
ATOM     22  C   UNL     1     -15.463   1.459  30.786  0.00  0.00    +0.037 A 
ATOM     23  C   UNL     1     -15.762   2.802  31.015  0.00  0.00    +0.016 A 
ATOM     24  C   UNL     1     -14.911   0.683  31.806  0.00  0.00    +0.016 A 
ATOM     25  C   UNL     1     -15.509   3.369  32.264  0.00  0.00    +0.039 A 
ATOM     26  C   UNL     1     -14.657   1.250  33.054  0.00  0.00    +0.039 A 
ATOM     27  C   UNL     1     -14.957   2.594  33.283  0.00  0.00    +0.123 A 
ENDBRANCH  21  22
ENDBRANCH  18   8
ENDBRANCH  12  18
TORSDOF 6
ENDMDL
MODEL 3
REMARK VINA RESULT:      -7.0     27.463     29.823
REMARK  Name = 75536636
REMARK  7 active torsions:
REMARK  status: ('A' for Active; 'I' for Inactive)
REMARK    1  A    between atoms: O_3  and  C_11
REMARK    2  A    between atoms: N_6  and  C_9
REMARK    3  A    between atoms: N_6  and  C_10
REMARK    4  A    between atoms: N_8  and  C_18
REMARK    5  A    between atoms: C_12  and  C_18
REMARK    6  A    between atoms: C_19  and  C_20
REMARK    7  A    between atoms: C_21  and  C_22
REMARK                            x       y       z     vdW  Elec       q    Type
REMARK                         _______ _______ _______ _____ _____    ______ ____
ROOT
ATOM      2  O   UNL     1      -3.508 -11.333  12.644  0.00  0.00    -0.371 OA
ATOM      9  C   UNL     1      -2.979 -10.179  10.636  0.00  0.00    +0.111 C 
ATOM     11  C   UNL     1      -2.087  -9.665  11.751  0.00  0.00    +0.164 C 
ATOM     12  C   UNL     1      -2.171 -10.814  12.747  0.00  0.00    +0.165 C 
ATOM     15  C   UNL     1      -4.095 -10.844  11.425  0.00  0.00    +0.181 C 
ENDROOT
BRANCH  11   3
ATOM      3  O   UNL     1      -0.759  -9.432  11.325  0.00  0.00    -0.388 OA
ATOM     29  H   UNL     1      -0.419  -8.651  11.795  0.00  0.00    +0.210 HD
ENDBRANCH  11   3
BRANCH   9   6
ATOM      6  N   UNL     1      -3.459  -9.136   9.744  0.00  0.00    -0.306 NA
ATOM     28  H   UNL     1      -2.879  -9.094   8.907  0.00  0.00    +0.123 HD
BRANCH   6  10
ATOM      4  O   UNL     1      -7.899  -8.646   5.519  0.00  0.00    -0.276 OA
ATOM      7  N   UNL     1      -7.148  -8.777   7.714  0.00  0.00    -0.302 N 
ATOM     10  C   UNL     1      -4.853  -9.371   9.375  0.00  0.00    +0.057 C 
ATOM     13  C   UNL     1      -4.939  -9.851   7.922  0.00  0.00    +0.037 C 
ATOM     14  C   UNL     1      -5.671  -8.087   9.566  0.00  0.00    +0.037 C 
ATOM     16  C   UNL     1      -6.394 -10.011   7.484  0.00  0.00    +0.109 C 
ATOM     17  C   UNL     1      -7.112  -8.281   9.096  0.00  0.00    +0.109 C 
ATOM     19  C   UNL     1      -7.856  -8.191   6.665  0.00  0.00    +0.212 C 
ATOM     20  C   UNL     1      -8.603  -6.920   6.980  0.00  0.00    +0.109 C 
ENDBRANCH   6  10
ENDBRANCH   9   6
BRANCH  12  18
ATOM     18  C   UNL     1      -1.893 -10.391  14.178  0.00  0.00    +0.138 C 
BRANCH  18   8
ATOM      5  O   UNL     1      -2.247 -11.047  16.951  0.00  0.00    -0.270 OA
ATOM      8  N   UNL     1      -3.106 -10.281  14.935  0.00  0.00    -0.309 N 
ATOM     21  C   UNL     1      -3.187 -10.624  16.282  0.00  0.00    +0.244 C 
ATOM     30  H   UNL     1      -3.938 -10.005  14.425  0.00  0.00    +0.149 HD
BRANCH  21  22
ATOM      1  F   UNL     1      -8.231 -10.076  18.684  0.00  0.00    -0.205 F 
ATOM     22  C   UNL     1      -4.522 -10.480  16.917  0.00  0.00    +0.037 A 
ATOM     23  C   UNL     1      -4.760 -11.038  18.173  0.00  0.00    +0.016 A 
ATOM     24  C   UNL     1      -5.537  -9.786  16.258  0.00  0.00    +0.016 A 
ATOM     25  C   UNL     1      -6.014 -10.901  18.770  0.00  0.00    +0.039 A 
ATOM     26  C   UNL     1      -6.790  -9.650  16.854  0.00  0.00    +0.039 A 
ATOM     27  C   UNL     1      -7.028 -10.208  18.111  0.00  0.00    +0.123 A 
ENDBRANCH  21  22
ENDBRANCH  18   8
ENDBRANCH  12  18
TORSDOF 6
ENDMDL
MODEL 4
REMARK VINA RESULT:      -6.9      7.968      9.678
REMARK  Name = 75536636
REMARK  7 active torsions:
REMARK  status: ('A' for Active; 'I' for Inactive)
REMARK    1  A    between atoms: O_3  and  C_11
REMARK    2  A    between atoms: N_6  and  C_9
REMARK    3  A    between atoms: N_6  and  C_10
REMARK    4  A    between atoms: N_8  and  C_18
REMARK    5  A    between atoms: C_12  and  C_18
REMARK    6  A    between atoms: C_19  and  C_20
REMARK    7  A    between atoms: C_21  and  C_22
REMARK                            x       y       z     vdW  Elec       q    Type
REMARK                         _______ _______ _______ _____ _____    ______ ____
ROOT
ATOM      2  O   UNL     1      10.492   8.388  19.889  0.00  0.00    -0.371 OA
ATOM      9  C   UNL     1      12.512   7.403  19.120  0.00  0.00    +0.111 C 
ATOM     11  C   UNL     1      12.530   7.449  20.637  0.00  0.00    +0.164 C 
ATOM     12  C   UNL     1      11.045   7.584  20.944  0.00  0.00    +0.165 C 
ATOM     15  C   UNL     1      11.431   8.424  18.801  0.00  0.00    +0.181 C 
ENDROOT
BRANCH  11   3
ATOM      3  O   UNL     1      13.085   6.282  21.212  0.00  0.00    -0.388 OA
ATOM     29  H   UNL     1      12.540   6.030  21.977  0.00  0.00    +0.210 HD
ENDBRANCH  11   3
BRANCH   9   6
ATOM      6  N   UNL     1      13.792   7.724  18.510  0.00  0.00    -0.306 NA
ATOM     28  H   UNL     1      14.065   6.988  17.859  0.00  0.00    +0.123 HD
BRANCH   6  10
ATOM      4  O   UNL     1      16.189  11.511  14.301  0.00  0.00    -0.276 OA
ATOM      7  N   UNL     1      14.999  11.085  16.251  0.00  0.00    -0.302 N 
ATOM     10  C   UNL     1      13.728   9.007  17.814  0.00  0.00    +0.057 C 
ATOM     13  C   UNL     1      14.040   8.816  16.325  0.00  0.00    +0.037 C 
ATOM     14  C   UNL     1      14.714   9.998  18.446  0.00  0.00    +0.037 C 
ATOM     16  C   UNL     1      14.073  10.158  15.597  0.00  0.00    +0.109 C 
ATOM     17  C   UNL     1      14.735  11.318  17.677  0.00  0.00    +0.109 C 
ATOM     19  C   UNL     1      16.008  11.696  15.507  0.00  0.00    +0.212 C 
ATOM     20  C   UNL     1      16.923  12.634  16.253  0.00  0.00    +0.109 C 
ENDBRANCH   6  10
ENDBRANCH   9   6
BRANCH  12  18
ATOM     18  C   UNL     1      10.767   8.235  22.287  0.00  0.00    +0.138 C 
BRANCH  18   8
ATOM      5  O   UNL     1      11.244  11.037  21.877  0.00  0.00    -0.270 OA
ATOM      8  N   UNL     1      11.897   8.987  22.747  0.00  0.00    -0.309 N 
ATOM     21  C   UNL     1      12.047  10.349  22.502  0.00  0.00    +0.244 C 
ATOM     30  H   UNL     1      12.633   8.464  23.209  0.00  0.00    +0.149 HD
BRANCH  21  22
ATOM      1  F   UNL     1      16.738  12.727  24.467  0.00  0.00    -0.205 F 
ATOM     22  C   UNL     1      13.289  10.977  23.022  0.00  0.00    +0.037 A 
ATOM     23  C   UNL     1      14.496  10.801  22.346  0.00  0.00    +0.016 A 
ATOM     24  C   UNL     1      13.247  11.745  24.187  0.00  0.00    +0.016 A 
ATOM     25  C   UNL     1      15.661  11.392  22.834  0.00  0.00    +0.039 A 
ATOM     26  C   UNL     1      14.412  12.335  24.675  0.00  0.00    +0.039 A 
ATOM     27  C   UNL     1      15.619  12.158  23.998  0.00  0.00    +0.123 A 
ENDBRANCH  21  22
ENDBRANCH  18   8
ENDBRANCH  12  18
TORSDOF 6
ENDMDL
MODEL 5
REMARK VINA RESULT:      -6.8     28.318     30.528
REMARK  Name = 75536636
REMARK  7 active torsions:
REMARK  status: ('A' for Active; 'I' for Inactive)
REMARK    1  A    between atoms: O_3  and  C_11
REMARK    2  A    between atoms: N_6  and  C_9
REMARK    3  A    between atoms: N_6  and  C_10
REMARK    4  A    between atoms: N_8  and  C_18
REMARK    5  A    between atoms: C_12  and  C_18
REMARK    6  A    between atoms: C_19  and  C_20
REMARK    7  A    between atoms: C_21  and  C_22
REMARK                            x       y       z     vdW  Elec       q    Type
REMARK                         _______ _______ _______ _____ _____    ______ ____
ROOT
ATOM      2  O   UNL     1      -5.835 -10.989  18.588  0.00  0.00    -0.371 OA
ATOM      9  C   UNL     1      -7.810  -9.995  17.720  0.00  0.00    +0.111 C 
ATOM     11  C   UNL     1      -6.683  -9.809  16.722  0.00  0.00    +0.164 C 
ATOM     12  C   UNL     1      -5.721 -10.906  17.158  0.00  0.00    +0.165 C 
ATOM     15  C   UNL     1      -7.038 -10.311  18.991  0.00  0.00    +0.181 C 
ENDROOT
BRANCH  11   3
ATOM      3  O   UNL     1      -7.106  -9.980  15.383  0.00  0.00    -0.388 OA
ATOM     29  H   UNL     1      -6.494  -9.494  14.804  0.00  0.00    +0.210 HD
ENDBRANCH  11   3
BRANCH   9   6
ATOM      6  N   UNL     1      -8.670  -8.830  17.855  0.00  0.00    -0.306 NA
ATOM     28  H   UNL     1      -8.130  -7.977  17.712  0.00  0.00    +0.123 HD
BRANCH   6  10
ATOM      4  O   UNL     1     -13.169  -5.874  14.884  0.00  0.00    -0.276 OA
ATOM      7  N   UNL     1     -12.216  -7.780  15.810  0.00  0.00    -0.302 N 
ATOM     10  C   UNL     1      -9.774  -8.888  16.899  0.00  0.00    +0.057 C 
ATOM     13  C   UNL     1      -9.763  -7.641  16.006  0.00  0.00    +0.037 C 
ATOM     14  C   UNL     1     -11.109  -9.002  17.645  0.00  0.00    +0.037 C 
ATOM     16  C   UNL     1     -10.965  -7.635  15.064  0.00  0.00    +0.109 C 
ATOM     17  C   UNL     1     -12.286  -8.968  16.671  0.00  0.00    +0.109 C 
ATOM     19  C   UNL     1     -13.238  -6.846  15.640  0.00  0.00    +0.212 C 
ATOM     20  C   UNL     1     -14.493  -7.063  16.448  0.00  0.00    +0.109 C 
ENDBRANCH   6  10
ENDBRANCH   9   6
BRANCH  12  18
ATOM     18  C   UNL     1      -4.279 -10.628  16.773  0.00  0.00    +0.138 C 
BRANCH  18   8
ATOM      5  O   UNL     1      -3.090 -12.154  14.652  0.00  0.00    -0.270 OA
ATOM      8  N   UNL     1      -4.171 -10.240  15.397  0.00  0.00    -0.309 N 
ATOM     21  C   UNL     1      -3.576 -11.047  14.431  0.00  0.00    +0.244 C 
ATOM     30  H   UNL     1      -4.490  -9.307  15.161  0.00  0.00    +0.149 HD
BRANCH  21  22
ATOM      1  F   UNL     1      -3.357  -8.947   9.230  0.00  0.00    -0.205 F 
ATOM     22  C   UNL     1      -3.517 -10.491  13.056  0.00  0.00    +0.037 A 
ATOM     23  C   UNL     1      -2.289 -10.355  12.409  0.00  0.00    +0.016 A 
ATOM     24  C   UNL     1      -4.692 -10.104  12.409  0.00  0.00    +0.016 A 
ATOM     25  C   UNL     1      -2.235  -9.834  11.117  0.00  0.00    +0.039 A 
ATOM     26  C   UNL     1      -4.638  -9.582  11.117  0.00  0.00    +0.039 A 
ATOM     27  C   UNL     1      -3.409  -9.447  10.471  0.00  0.00    +0.123 A 
ENDBRANCH  21  22
ENDBRANCH  18   8
ENDBRANCH  12  18
TORSDOF 6
ENDMDL
MODEL 6
REMARK VINA RESULT:      -6.8     28.152     31.589
REMARK  Name = 75536636
REMARK  7 active torsions:
REMARK  status: ('A' for Active; 'I' for Inactive)
REMARK    1  A    between atoms: O_3  and  C_11
REMARK    2  A    between atoms: N_6  and  C_9
REMARK    3  A    between atoms: N_6  and  C_10
REMARK    4  A    between atoms: N_8  and  C_18
REMARK    5  A    between atoms: C_12  and  C_18
REMARK    6  A    between atoms: C_19  and  C_20
REMARK    7  A    between atoms: C_21  and  C_22
REMARK                            x       y       z     vdW  Elec       q    Type
REMARK                         _______ _______ _______ _____ _____    ______ ____
ROOT
ATOM      2  O   UNL     1      -6.405 -13.040  18.486  0.00  0.00    -0.371 OA
ATOM      9  C   UNL     1      -5.069 -11.088  18.259  0.00  0.00    +0.111 C 
ATOM     11  C   UNL     1      -6.447 -10.690  18.754  0.00  0.00    +0.164 C 
ATOM     12  C   UNL     1      -6.945 -12.009  19.329  0.00  0.00    +0.165 C 
ATOM     15  C   UNL     1      -5.340 -12.476  17.700  0.00  0.00    +0.181 C 
ENDROOT
BRANCH  11   3
ATOM      3  O   UNL     1      -6.401  -9.670  19.734  0.00  0.00    -0.388 OA
ATOM     29  H   UNL     1      -6.099 -10.064  20.571  0.00  0.00    +0.210 HD
ENDBRANCH  11   3
BRANCH   9   6
ATOM      6  N   UNL     1      -4.517 -10.177  17.270  0.00  0.00    -0.306 NA
ATOM     28  H   UNL     1      -3.678  -9.727  17.635  0.00  0.00    +0.123 HD
BRANCH   6  10
ATOM      4  O   UNL     1      -1.536 -10.230  11.893  0.00  0.00    -0.276 OA
ATOM      7  N   UNL     1      -3.285 -10.860  13.286  0.00  0.00    -0.302 N 
ATOM     10  C   UNL     1      -4.205 -10.884  16.030  0.00  0.00    +0.057 C 
ATOM     13  C   UNL     1      -2.723 -10.705  15.681  0.00  0.00    +0.037 C 
ATOM     14  C   UNL     1      -5.092 -10.365  14.891  0.00  0.00    +0.037 C 
ATOM     16  C   UNL     1      -2.396 -11.356  14.338  0.00  0.00    +0.109 C 
ATOM     17  C   UNL     1      -4.719 -11.022  13.563  0.00  0.00    +0.109 C 
ATOM     19  C   UNL     1      -2.746 -10.323  12.118  0.00  0.00    +0.212 C 
ATOM     20  C   UNL     1      -3.727  -9.830  11.084  0.00  0.00    +0.109 C 
ENDBRANCH   6  10
ENDBRANCH   9   6
BRANCH  12  18
ATOM     18  C   UNL     1      -8.458 -12.115  19.365  0.00  0.00    +0.138 C 
BRANCH  18   8
ATOM      5  O   UNL     1     -10.560 -10.333  20.173  0.00  0.00    -0.270 OA
ATOM      8  N   UNL     1      -9.073 -11.097  18.563  0.00  0.00    -0.309 N 
ATOM     21  C   UNL     1     -10.090 -10.274  19.040  0.00  0.00    +0.244 C 
ATOM     30  H   UNL     1      -8.780 -11.043  17.594  0.00  0.00    +0.149 HD
BRANCH  21  22
ATOM      1  F   UNL     1     -12.172  -6.546  15.395  0.00  0.00    -0.205 F 
ATOM     22  C   UNL     1     -10.641  -9.287  18.076  0.00  0.00    +0.037 A 
ATOM     23  C   UNL     1      -9.808  -8.319  17.517  0.00  0.00    +0.016 A 
ATOM     24  C   UNL     1     -11.992  -9.329  17.730  0.00  0.00    +0.016 A 
ATOM     25  C   UNL     1     -10.325  -7.392  16.611  0.00  0.00    +0.039 A 
ATOM     26  C   UNL     1     -12.509  -8.403  16.825  0.00  0.00    +0.039 A 
ATOM     27  C   UNL     1     -11.675  -7.435  16.266  0.00  0.00    +0.123 A 
ENDBRANCH  21  22
ENDBRANCH  18   8
ENDBRANCH  12  18
TORSDOF 6
ENDMDL
MODEL 7
REMARK VINA RESULT:      -6.7     29.911     33.517
REMARK  Name = 75536636
REMARK  7 active torsions:
REMARK  status: ('A' for Active; 'I' for Inactive)
REMARK    1  A    between atoms: O_3  and  C_11
REMARK    2  A    between atoms: N_6  and  C_9
REMARK    3  A    between atoms: N_6  and  C_10
REMARK    4  A    between atoms: N_8  and  C_18
REMARK    5  A    between atoms: C_12  and  C_18
REMARK    6  A    between atoms: C_19  and  C_20
REMARK    7  A    between atoms: C_21  and  C_22
REMARK                            x       y       z     vdW  Elec       q    Type
REMARK                         _______ _______ _______ _____ _____    ______ ____
ROOT
ATOM      2  O   UNL     1     -12.864  -8.292  15.148  0.00  0.00    -0.371 OA
ATOM      9  C   UNL     1     -10.724  -8.100  16.162  0.00  0.00    +0.111 C 
ATOM     11  C   UNL     1     -11.248  -6.711  15.846  0.00  0.00    +0.164 C 
ATOM     12  C   UNL     1     -12.741  -6.982  15.726  0.00  0.00    +0.165 C 
ATOM     15  C   UNL     1     -11.596  -8.962  15.264  0.00  0.00    +0.181 C 
ENDROOT
BRANCH  11   3
ATOM      3  O   UNL     1     -10.961  -5.774  16.866  0.00  0.00    -0.388 OA
ATOM     29  H   UNL     1     -10.612  -6.257  17.635  0.00  0.00    +0.210 HD
ENDBRANCH  11   3
BRANCH   9   6
ATOM      6  N   UNL     1      -9.304  -8.263  15.897  0.00  0.00    -0.306 NA
ATOM     28  H   UNL     1      -8.778  -7.495  16.313  0.00  0.00    +0.123 HD
BRANCH   6  10
ATOM      4  O   UNL     1      -6.480 -11.320  20.423  0.00  0.00    -0.276 OA
ATOM      7  N   UNL     1      -7.097 -11.035  18.201  0.00  0.00    -0.302 N 
ATOM     10  C   UNL     1      -8.821  -9.539  16.421  0.00  0.00    +0.057 C 
ATOM     13  C   UNL     1      -9.105  -9.632  17.925  0.00  0.00    +0.037 C 
ATOM     14  C   UNL     1      -7.319  -9.685  16.148  0.00  0.00    +0.037 C 
ATOM     16  C   UNL     1      -8.523 -10.916  18.512  0.00  0.00    +0.109 C 
ATOM     17  C   UNL     1      -6.771 -10.969  16.771  0.00  0.00    +0.109 C 
ATOM     19  C   UNL     1      -6.177 -11.234  19.230  0.00  0.00    +0.212 C 
ATOM     20  C   UNL     1      -4.728 -11.341  18.829  0.00  0.00    +0.109 C 
ENDBRANCH   6  10
ENDBRANCH   9   6
BRANCH  12  18
ATOM     18  C   UNL     1     -13.467  -5.968  14.861  0.00  0.00    +0.138 C 
BRANCH  18   8
ATOM      5  O   UNL     1     -13.333  -3.631  13.198  0.00  0.00    -0.270 OA
ATOM      8  N   UNL     1     -12.879  -5.879  13.556  0.00  0.00    -0.309 N 
ATOM     21  C   UNL     1     -12.859  -4.699  12.817  0.00  0.00    +0.244 C 
ATOM     30  H   UNL     1     -12.533  -6.743  13.154  0.00  0.00    +0.149 HD
BRANCH  21  22
ATOM      1  F   UNL     1     -10.513  -4.995   7.726  0.00  0.00    -0.205 F 
ATOM     22  C   UNL     1     -12.237  -4.778  11.471  0.00  0.00    +0.037 A 
ATOM     23  C   UNL     1     -12.055  -6.017  10.858  0.00  0.00    +0.016 A 
ATOM     24  C   UNL     1     -11.836  -3.611  10.818  0.00  0.00    +0.016 A 
ATOM     25  C   UNL     1     -11.472  -6.091   9.593  0.00  0.00    +0.039 A 
ATOM     26  C   UNL     1     -11.253  -3.685   9.554  0.00  0.00    +0.039 A 
ATOM     27  C   UNL     1     -11.072  -4.925   8.941  0.00  0.00    +0.123 A 
ENDBRANCH  21  22
ENDBRANCH  18   8
ENDBRANCH  12  18
TORSDOF 6
ENDMDL
MODEL 8
REMARK VINA RESULT:      -6.7      4.027     10.712
REMARK  Name = 75536636
REMARK  7 active torsions:
REMARK  status: ('A' for Active; 'I' for Inactive)
REMARK    1  A    between atoms: O_3  and  C_11
REMARK    2  A    between atoms: N_6  and  C_9
REMARK    3  A    between atoms: N_6  and  C_10
REMARK    4  A    between atoms: N_8  and  C_18
REMARK    5  A    between atoms: C_12  and  C_18
REMARK    6  A    between atoms: C_19  and  C_20
REMARK    7  A    between atoms: C_21  and  C_22
REMARK                            x       y       z     vdW  Elec       q    Type
REMARK                         _______ _______ _______ _____ _____    ______ ____
ROOT
ATOM      2  O   UNL     1      18.613   7.094  21.871  0.00  0.00    -0.371 OA
ATOM      9  C   UNL     1      19.848   5.912  20.221  0.00  0.00    +0.111 C 
ATOM     11  C   UNL     1      18.365   5.708  19.970  0.00  0.00    +0.164 C 
ATOM     12  C   UNL     1      17.775   6.894  20.721  0.00  0.00    +0.165 C 
ATOM     15  C   UNL     1      19.846   6.382  21.667  0.00  0.00    +0.181 C 
ENDROOT
BRANCH  11   3
ATOM      3  O   UNL     1      18.035   5.737  18.595  0.00  0.00    -0.388 OA
ATOM     29  H   UNL     1      18.716   6.249  18.128  0.00  0.00    +0.210 HD
ENDBRANCH  11   3
BRANCH   9   6
ATOM      6  N   UNL     1      20.645   4.714  20.016  0.00  0.00    -0.306 NA
ATOM     28  H   UNL     1      21.053   4.719  19.082  0.00  0.00    +0.123 HD
BRANCH   6  10
ATOM      4  O   UNL     1      26.379   2.995  21.421  0.00  0.00    -0.276 OA
ATOM      7  N   UNL     1      24.164   3.428  21.972  0.00  0.00    -0.302 N 
ATOM     10  C   UNL     1      21.700   4.615  21.022  0.00  0.00    +0.057 C 
ATOM     13  C   UNL     1      23.056   4.969  20.399  0.00  0.00    +0.037 C 
ATOM     14  C   UNL     1      21.734   3.199  21.612  0.00  0.00    +0.037 C 
ATOM     16  C   UNL     1      24.187   4.779  21.408  0.00  0.00    +0.109 C 
ATOM     17  C   UNL     1      22.891   3.043  22.597  0.00  0.00    +0.109 C 
ATOM     19  C   UNL     1      25.310   2.635  21.921  0.00  0.00    +0.212 C 
ATOM     20  C   UNL     1      25.204   1.256  22.520  0.00  0.00    +0.109 C 
ENDBRANCH   6  10
ENDBRANCH   9   6
BRANCH  12  18
ATOM     18  C   UNL     1      16.340   6.671  21.164  0.00  0.00    +0.138 C 
BRANCH  18   8
ATOM      5  O   UNL     1      15.284   9.307  20.743  0.00  0.00    -0.270 OA
ATOM      8  N   UNL     1      15.411   7.068  20.146  0.00  0.00    -0.309 N 
ATOM     21  C   UNL     1      14.950   8.375  20.015  0.00  0.00    +0.244 C 
ATOM     30  H   UNL     1      15.041   6.331  19.556  0.00  0.00    +0.149 HD
BRANCH  21  22
ATOM      1  F   UNL     1      11.242   9.293  15.902  0.00  0.00    -0.205 F 
ATOM     22  C   UNL     1      13.969   8.620  18.927  0.00  0.00    +0.037 A 
ATOM     23  C   UNL     1      14.378   9.233  17.744  0.00  0.00    +0.016 A 
ATOM     24  C   UNL     1      12.638   8.234  19.089  0.00  0.00    +0.016 A 
ATOM     25  C   UNL     1      13.457   9.461  16.722  0.00  0.00    +0.039 A 
ATOM     26  C   UNL     1      11.717   8.462  18.068  0.00  0.00    +0.039 A 
ATOM     27  C   UNL     1      12.126   9.076  16.884  0.00  0.00    +0.123 A 
ENDBRANCH  21  22
ENDBRANCH  18   8
ENDBRANCH  12  18
TORSDOF 6
ENDMDL
MODEL 9
REMARK VINA RESULT:      -6.7     30.392     33.960
REMARK  Name = 75536636
REMARK  7 active torsions:
REMARK  status: ('A' for Active; 'I' for Inactive)
REMARK    1  A    between atoms: O_3  and  C_11
REMARK    2  A    between atoms: N_6  and  C_9
REMARK    3  A    between atoms: N_6  and  C_10
REMARK    4  A    between atoms: N_8  and  C_18
REMARK    5  A    between atoms: C_12  and  C_18
REMARK    6  A    between atoms: C_19  and  C_20
REMARK    7  A    between atoms: C_21  and  C_22
REMARK                            x       y       z     vdW  Elec       q    Type
REMARK                         _______ _______ _______ _____ _____    ______ ____
ROOT
ATOM      2  O   UNL     1     -16.830   5.300  23.869  0.00  0.00    -0.371 OA
ATOM      9  C   UNL     1     -15.121   6.252  22.521  0.00  0.00    +0.111 C 
ATOM     11  C   UNL     1     -14.662   4.893  23.015  0.00  0.00    +0.164 C 
ATOM     12  C   UNL     1     -15.993   4.244  23.368  0.00  0.00    +0.165 C 
ATOM     15  C   UNL     1     -16.248   6.560  23.494  0.00  0.00    +0.181 C 
ENDROOT
BRANCH  11   3
ATOM      3  O   UNL     1     -13.963   4.160  22.026  0.00  0.00    -0.388 OA
ATOM     29  H   UNL     1     -14.614   3.766  21.421  0.00  0.00    +0.210 HD
ENDBRANCH  11   3
BRANCH   9   6
ATOM      6  N   UNL     1     -14.074   7.261  22.529  0.00  0.00    -0.306 NA
ATOM     28  H   UNL     1     -13.266   6.924  23.051  0.00  0.00    +0.123 HD
BRANCH   6  10
ATOM      4  O   UNL     1      -9.752   9.441  18.738  0.00  0.00    -0.276 OA
ATOM      7  N   UNL     1     -11.964   9.056  19.338  0.00  0.00    -0.302 N 
ATOM     10  C   UNL     1     -13.679   7.608  21.166  0.00  0.00    +0.057 C 
ATOM     13  C   UNL     1     -12.229   7.178  20.913  0.00  0.00    +0.037 C 
ATOM     14  C   UNL     1     -13.838   9.117  20.940  0.00  0.00    +0.037 C 
ATOM     16  C   UNL     1     -11.763   7.618  19.526  0.00  0.00    +0.109 C 
ATOM     17  C   UNL     1     -13.341   9.519  19.552  0.00  0.00    +0.109 C 
ATOM     19  C   UNL     1     -10.894   9.860  18.946  0.00  0.00    +0.212 C 
ATOM     20  C   UNL     1     -11.180  11.331  18.778  0.00  0.00    +0.109 C 
ENDBRANCH   6  10
ENDBRANCH   9   6
BRANCH  12  18
ATOM     18  C   UNL     1     -15.869   3.148  24.411  0.00  0.00    +0.138 C 
BRANCH  18   8
ATOM      5  O   UNL     1     -16.626   1.841  26.853  0.00  0.00    -0.270 OA
ATOM      8  N   UNL     1     -15.788   3.694  25.735  0.00  0.00    -0.309 N 
ATOM     21  C   UNL     1     -16.179   2.985  26.867  0.00  0.00    +0.244 C 
ATOM     30  H   UNL     1     -15.494   4.661  25.810  0.00  0.00    +0.149 HD
BRANCH  21  22
ATOM      1  F   UNL     1     -15.724   5.693  31.764  0.00  0.00    -0.205 F 
ATOM     22  C   UNL     1     -16.059   3.700  28.164  0.00  0.00    +0.037 A 
ATOM     23  C   UNL     1     -15.191   3.225  29.145  0.00  0.00    +0.016 A 
ATOM     24  C   UNL     1     -16.815   4.850  28.398  0.00  0.00    +0.016 A 
ATOM     25  C   UNL     1     -15.077   3.898  30.362  0.00  0.00    +0.039 A 
ATOM     26  C   UNL     1     -16.703   5.522  29.614  0.00  0.00    +0.039 A 
ATOM     27  C   UNL     1     -15.833   5.046  30.596  0.00  0.00    +0.123 A 
ENDBRANCH  21  22
ENDBRANCH  18   8
ENDBRANCH  12  18
TORSDOF 6
ENDMDL
MODEL 10
REMARK VINA RESULT:      -6.7     28.263     31.269
REMARK  Name = 75536636
REMARK  7 active torsions:
REMARK  status: ('A' for Active; 'I' for Inactive)
REMARK    1  A    between atoms: O_3  and  C_11
REMARK    2  A    between atoms: N_6  and  C_9
REMARK    3  A    between atoms: N_6  and  C_10
REMARK    4  A    between atoms: N_8  and  C_18
REMARK    5  A    between atoms: C_12  and  C_18
REMARK    6  A    between atoms: C_19  and  C_20
REMARK    7  A    between atoms: C_21  and  C_22
REMARK                            x       y       z     vdW  Elec       q    Type
REMARK                         _______ _______ _______ _____ _____    ______ ____
ROOT
ATOM      2  O   UNL     1      -6.900 -12.535  18.327  0.00  0.00    -0.371 OA
ATOM      9  C   UNL     1      -4.888 -13.308  17.328  0.00  0.00    +0.111 C 
ATOM     11  C   UNL     1      -4.612 -12.001  18.049  0.00  0.00    +0.164 C 
ATOM     12  C   UNL     1      -5.785 -11.948  19.019  0.00  0.00    +0.165 C 
ATOM     15  C   UNL     1      -6.401 -13.261  17.191  0.00  0.00    +0.181 C 
ENDROOT
BRANCH  11   3
ATOM      3  O   UNL     1      -3.369 -12.002  18.723  0.00  0.00    -0.388 OA
ATOM     29  H   UNL     1      -2.959 -11.127  18.610  0.00  0.00    +0.210 HD
ENDBRANCH  11   3
BRANCH   9   6
ATOM      6  N   UNL     1      -4.207 -13.424  16.049  0.00  0.00    -0.306 NA
ATOM     28  H   UNL     1      -4.698 -14.086  15.448  0.00  0.00    +0.123 HD
BRANCH   6  10
ATOM      4  O   UNL     1      -3.779 -10.243  10.805  0.00  0.00    -0.276 OA
ATOM      7  N   UNL     1      -3.421 -10.518  13.084  0.00  0.00    -0.302 N 
ATOM     10  C   UNL     1      -4.115 -12.124  15.390  0.00  0.00    +0.057 C 
ATOM     13  C   UNL     1      -4.986 -12.110  14.128  0.00  0.00    +0.037 C 
ATOM     14  C   UNL     1      -2.654 -11.814  15.038  0.00  0.00    +0.037 C 
ATOM     16  C   UNL     1      -4.830 -10.793  13.371  0.00  0.00    +0.109 C 
ATOM     17  C   UNL     1      -2.543 -10.502  14.262  0.00  0.00    +0.109 C 
ATOM     19  C   UNL     1      -3.017 -10.259  11.774  0.00  0.00    +0.212 C 
ATOM     20  C   UNL     1      -1.549  -9.989  11.561  0.00  0.00    +0.109 C 
ENDBRANCH   6  10
ENDBRANCH   9   6
BRANCH  12  18
ATOM     18  C   UNL     1      -6.137 -10.538  19.458  0.00  0.00    +0.138 C 
BRANCH  18   8
ATOM      5  O   UNL     1      -6.921  -9.298  16.990  0.00  0.00    -0.270 OA
ATOM      8  N   UNL     1      -7.469 -10.186  19.064  0.00  0.00    -0.309 N 
ATOM     21  C   UNL     1      -7.759  -9.584  17.842  0.00  0.00    +0.244 C 
ATOM     30  H   UNL     1      -8.200 -10.330  19.752  0.00  0.00    +0.149 HD
BRANCH  21  22
ATOM      1  F   UNL     1     -13.154  -8.339  16.910  0.00  0.00    -0.205 F 
ATOM     22  C   UNL     1      -9.187  -9.256  17.594  0.00  0.00    +0.037 A 
ATOM     23  C   UNL     1     -10.169 -10.227  17.784  0.00  0.00    +0.016 A 
ATOM     24  C   UNL     1      -9.544  -7.974  17.172  0.00  0.00    +0.016 A 
ATOM     25  C   UNL     1     -11.510  -9.917  17.553  0.00  0.00    +0.039 A 
ATOM     26  C   UNL     1     -10.884  -7.665  16.941  0.00  0.00    +0.039 A 
ATOM     27  C   UNL     1     -11.867  -8.637  17.132  0.00  0.00    +0.123 A 
ENDBRANCH  21  22
ENDBRANCH  18   8
ENDBRANCH  12  18
TORSDOF 6
ENDMDL
