MODEL 1
REMARK VINA RESULT:      -7.1      0.000      0.000
REMARK  Name = 45360516
REMARK  11 active torsions:
REMARK  status: ('A' for Active; 'I' for Inactive)
REMARK    1  A    between atoms: O_2  and  C_24
REMARK    2  A    between atoms: O_5  and  C_38
REMARK    3  A    between atoms: O_5  and  C_39
REMARK    4  A    between atoms: N_6  and  C_15
REMARK    5  A    between atoms: N_8  and  C_17
REMARK    6  A    between atoms: C_10  and  C_12
REMARK    7  A    between atoms: C_11  and  C_18
REMARK    8  A    between atoms: C_12  and  C_15
REMARK    9  A    between atoms: C_18  and  C_24
REMARK   10  A    between atoms: C_23  and  C_27
REMARK   11  A    between atoms: C_27  and  C_30
REMARK                            x       y       z     vdW  Elec       q    Type
REMARK                         _______ _______ _______ _____ _____    ______ ____
ROOT
ATOM      1  O   UNL     1      -1.427 -10.135  12.047  0.00  0.00    -0.275 OA
ATOM      7  N   UNL     1      -2.462 -11.422  13.680  0.00  0.00    -0.301 N 
ATOM     10  C   UNL     1      -4.374 -11.910  15.189  0.00  0.00    +0.011 C 
ATOM     11  C   UNL     1      -3.544 -11.338  16.366  0.00  0.00    +0.006 C 
ATOM     13  C   UNL     1      -3.432 -12.443  14.095  0.00  0.00    +0.111 C 
ATOM     14  C   UNL     1      -2.508 -10.310  15.880  0.00  0.00    +0.023 C 
ATOM     16  C   UNL     1      -1.639 -10.884  14.764  0.00  0.00    +0.108 C 
ATOM     23  C   UNL     1      -2.267 -10.976  12.374  0.00  0.00    +0.220 C 
ENDROOT
BRANCH  10  12
ATOM     12  C   UNL     1      -5.375 -10.915  14.591  0.00  0.00    +0.020 C 
BRANCH  12  15
ATOM     15  C   UNL     1      -6.754 -11.546  14.453  0.00  0.00    +0.085 C 
BRANCH  15   6
ATOM      6  N   UNL     1      -7.516 -11.350  15.685  0.00  0.00    -0.302 NA
ATOM     17  C   UNL     1      -9.885 -10.636  17.247  0.00  0.00    +0.095 C 
ATOM     19  C   UNL     1      -7.921  -9.943  15.820  0.00  0.00    +0.086 C 
ATOM     20  C   UNL     1      -8.682 -12.244  15.716  0.00  0.00    +0.086 C 
ATOM     21  C   UNL     1      -8.675  -9.709  17.129  0.00  0.00    +0.040 C 
ATOM     22  C   UNL     1      -9.461 -12.089  17.023  0.00  0.00    +0.040 C 
BRANCH  17   8
ATOM      4  O   UNL     1      -8.754 -10.976  20.022  0.00  0.00    -0.247 OA
ATOM      8  N   UNL     1     -10.532 -10.476  18.525  0.00  0.00    -0.289 N 
ATOM      9  N   UNL     1     -10.927 -10.396  20.754  0.00  0.00    -0.306 N 
ATOM     25  C   UNL     1     -11.873 -10.116  18.715  0.00  0.00    +0.070 A 
ATOM     26  C   UNL     1      -9.913 -10.659  19.789  0.00  0.00    +0.328 A 
ATOM     28  C   UNL     1     -12.109 -10.068  20.087  0.00  0.00    +0.067 A 
ATOM     29  C   UNL     1     -12.868  -9.834  17.802  0.00  0.00    +0.028 A 
ATOM     31  C   UNL     1     -13.338  -9.741  20.615  0.00  0.00    +0.028 A 
ATOM     32  C   UNL     1     -14.127  -9.500  18.314  0.00  0.00    +0.002 A 
ATOM     33  C   UNL     1     -14.359  -9.454  19.705  0.00  0.00    +0.002 A 
ATOM     40  H   UNL     1     -10.822 -10.436  21.760  0.00  0.00    +0.170 HD
ENDBRANCH  17   8
ENDBRANCH  15   6
ENDBRANCH  12  15
ENDBRANCH  10  12
BRANCH  11  18
ATOM     18  C   UNL     1      -4.409 -10.745  17.479  0.00  0.00    +0.124 C 
BRANCH  18  24
ATOM      3  O   UNL     1      -4.186 -12.592  19.056  0.00  0.00    -0.251 OA
ATOM     24  C   UNL     1      -4.885 -11.805  18.435  0.00  0.00    +0.305 C 
BRANCH  24   2
ATOM      2  O   UNL     1      -6.240 -11.768  18.520  0.00  0.00    -0.481 OA
ATOM     41  H   UNL     1      -6.666 -12.219  17.761  0.00  0.00    +0.295 HD
ENDBRANCH  24   2
ENDBRANCH  18  24
ENDBRANCH  11  18
BRANCH  23  27
ATOM     27  C   UNL     1      -3.157 -11.578  11.315  0.00  0.00    +0.131 C 
BRANCH  27  30
ATOM     30  C   UNL     1      -4.035 -10.528  10.706  0.00  0.00    -0.038 A 
ATOM     34  C   UNL     1      -4.824  -9.718  11.522  0.00  0.00    +0.007 A 
ATOM     35  C   UNL     1      -4.064 -10.362   9.320  0.00  0.00    +0.007 A 
ATOM     36  C   UNL     1      -5.641  -8.741  10.954  0.00  0.00    +0.046 A 
ATOM     37  C   UNL     1      -4.882  -9.385   8.753  0.00  0.00    +0.046 A 
ATOM     38  C   UNL     1      -5.670  -8.575   9.569  0.00  0.00    +0.120 A 
BRANCH  38   5
ATOM      5  O   UNL     1      -6.467  -7.621   9.015  0.00  0.00    -0.495 OA
ATOM     39  C   UNL     1      -7.840  -7.955   8.819  0.00  0.00    +0.277 C 
ENDBRANCH  38   5
ENDBRANCH  27  30
ENDBRANCH  23  27
TORSDOF 10
ENDMDL
MODEL 2
REMARK VINA RESULT:      -6.5      2.362      4.689
REMARK  Name = 45360516
REMARK  11 active torsions:
REMARK  status: ('A' for Active; 'I' for Inactive)
REMARK    1  A    between atoms: O_2  and  C_24
REMARK    2  A    between atoms: O_5  and  C_38
REMARK    3  A    between atoms: O_5  and  C_39
REMARK    4  A    between atoms: N_6  and  C_15
REMARK    5  A    between atoms: N_8  and  C_17
REMARK    6  A    between atoms: C_10  and  C_12
REMARK    7  A    between atoms: C_11  and  C_18
REMARK    8  A    between atoms: C_12  and  C_15
REMARK    9  A    between atoms: C_18  and  C_24
REMARK   10  A    between atoms: C_23  and  C_27
REMARK   11  A    between atoms: C_27  and  C_30
REMARK                            x       y       z     vdW  Elec       q    Type
REMARK                         _______ _______ _______ _____ _____    ______ ____
ROOT
ATOM      1  O   UNL     1      -4.511 -10.022   8.240  0.00  0.00    -0.275 OA
ATOM      7  N   UNL     1      -5.681  -9.127  10.036  0.00  0.00    -0.301 N 
ATOM     10  C   UNL     1      -6.627  -9.294  12.327  0.00  0.00    +0.011 C 
ATOM     11  C   UNL     1      -8.028  -9.492  11.694  0.00  0.00    +0.006 C 
ATOM     13  C   UNL     1      -5.725  -8.502  11.364  0.00  0.00    +0.111 C 
ATOM     14  C   UNL     1      -7.931 -10.102  10.286  0.00  0.00    +0.023 C 
ATOM     16  C   UNL     1      -6.985  -9.298   9.397  0.00  0.00    +0.108 C 
ATOM     23  C   UNL     1      -4.523  -9.522   9.368  0.00  0.00    +0.220 C 
ENDROOT
BRANCH  10  12
ATOM     12  C   UNL     1      -5.942 -10.601  12.744  0.00  0.00    +0.020 C 
BRANCH  12  15
ATOM     15  C   UNL     1      -5.345 -10.481  14.139  0.00  0.00    +0.085 C 
BRANCH  15   6
ATOM      6  N   UNL     1      -6.412 -10.479  15.139  0.00  0.00    -0.302 NA
ATOM     17  C   UNL     1      -7.697 -11.283  17.642  0.00  0.00    +0.095 C 
ATOM     19  C   UNL     1      -6.984 -11.826  15.281  0.00  0.00    +0.086 C 
ATOM     20  C   UNL     1      -5.912  -9.975  16.425  0.00  0.00    +0.086 C 
ATOM     21  C   UNL     1      -8.138 -11.832  16.285  0.00  0.00    +0.040 C 
ATOM     22  C   UNL     1      -7.030  -9.917  17.467  0.00  0.00    +0.040 C 
BRANCH  17   8
ATOM      4  O   UNL     1      -8.050 -12.550  20.356  0.00  0.00    -0.247 OA
ATOM      8  N   UNL     1      -8.813 -11.203  18.551  0.00  0.00    -0.289 N 
ATOM      9  N   UNL     1     -10.160 -11.481  20.350  0.00  0.00    -0.306 N 
ATOM     25  C   UNL     1      -9.994 -10.485  18.323  0.00  0.00    +0.070 A 
ATOM     26  C   UNL     1      -8.890 -11.839  19.817  0.00  0.00    +0.328 A 
ATOM     28  C   UNL     1     -10.818 -10.660  19.433  0.00  0.00    +0.067 A 
ATOM     29  C   UNL     1     -10.386  -9.714  17.248  0.00  0.00    +0.028 A 
ATOM     31  C   UNL     1     -12.063 -10.081  19.527  0.00  0.00    +0.028 A 
ATOM     32  C   UNL     1     -11.649  -9.114  17.320  0.00  0.00    +0.002 A 
ATOM     33  C   UNL     1     -12.478  -9.296  18.447  0.00  0.00    +0.002 A 
ATOM     40  H   UNL     1     -10.537 -11.766  21.245  0.00  0.00    +0.170 HD
ENDBRANCH  17   8
ENDBRANCH  15   6
ENDBRANCH  12  15
ENDBRANCH  10  12
BRANCH  11  18
ATOM     18  C   UNL     1      -8.974 -10.311  12.573  0.00  0.00    +0.124 C 
BRANCH  18  24
ATOM      3  O   UNL     1     -10.895  -9.283  13.667  0.00  0.00    -0.251 OA
ATOM     24  C   UNL     1      -9.687  -9.447  13.576  0.00  0.00    +0.305 C 
BRANCH  24   2
ATOM      2  O   UNL     1      -8.781  -8.856  14.397  0.00  0.00    -0.481 OA
ATOM     41  H   UNL     1      -8.374  -8.066  13.983  0.00  0.00    +0.295 HD
ENDBRANCH  24   2
ENDBRANCH  18  24
ENDBRANCH  11  18
BRANCH  23  27
ATOM     27  C   UNL     1      -3.218  -9.314  10.095  0.00  0.00    +0.131 C 
BRANCH  27  30
ATOM     30  C   UNL     1      -2.918 -10.482  10.983  0.00  0.00    -0.038 A 
ATOM     34  C   UNL     1      -2.151 -10.305  12.134  0.00  0.00    +0.007 A 
ATOM     35  C   UNL     1      -3.405 -11.749  10.657  0.00  0.00    +0.007 A 
ATOM     36  C   UNL     1      -1.872 -11.393  12.960  0.00  0.00    +0.046 A 
ATOM     37  C   UNL     1      -3.125 -12.837  11.483  0.00  0.00    +0.046 A 
ATOM     38  C   UNL     1      -2.359 -12.660  12.634  0.00  0.00    +0.120 A 
BRANCH  38   5
ATOM      5  O   UNL     1      -2.087 -13.721  13.441  0.00  0.00    -0.495 OA
ATOM     39  C   UNL     1      -3.141 -14.185  14.283  0.00  0.00    +0.277 C 
ENDBRANCH  38   5
ENDBRANCH  27  30
ENDBRANCH  23  27
TORSDOF 10
ENDMDL
MODEL 3
REMARK VINA RESULT:      -6.4     25.412     30.110
REMARK  Name = 45360516
REMARK  11 active torsions:
REMARK  status: ('A' for Active; 'I' for Inactive)
REMARK    1  A    between atoms: O_2  and  C_24
REMARK    2  A    between atoms: O_5  and  C_38
REMARK    3  A    between atoms: O_5  and  C_39
REMARK    4  A    between atoms: N_6  and  C_15
REMARK    5  A    between atoms: N_8  and  C_17
REMARK    6  A    between atoms: C_10  and  C_12
REMARK    7  A    between atoms: C_11  and  C_18
REMARK    8  A    between atoms: C_12  and  C_15
REMARK    9  A    between atoms: C_18  and  C_24
REMARK   10  A    between atoms: C_23  and  C_27
REMARK   11  A    between atoms: C_27  and  C_30
REMARK                            x       y       z     vdW  Elec       q    Type
REMARK                         _______ _______ _______ _____ _____    ______ ____
ROOT
ATOM      1  O   UNL     1      10.966   3.991   3.331  0.00  0.00    -0.275 OA
ATOM      7  N   UNL     1       9.986   5.288   4.989  0.00  0.00    -0.301 N 
ATOM     10  C   UNL     1      10.136   6.758   6.987  0.00  0.00    +0.011 C 
ATOM     11  C   UNL     1       9.689   5.557   7.858  0.00  0.00    +0.006 C 
ATOM     13  C   UNL     1       9.604   6.590   5.552  0.00  0.00    +0.111 C 
ATOM     14  C   UNL     1      10.065   4.215   7.207  0.00  0.00    +0.023 C 
ATOM     16  C   UNL     1       9.550   4.132   5.772  0.00  0.00    +0.108 C 
ATOM     23  C   UNL     1      10.680   5.097   3.796  0.00  0.00    +0.220 C 
ENDROOT
BRANCH  10  12
ATOM     12  C   UNL     1      11.653   6.985   6.969  0.00  0.00    +0.020 C 
BRANCH  12  15
ATOM     15  C   UNL     1      11.982   8.435   6.644  0.00  0.00    +0.085 C 
BRANCH  15   6
ATOM      6  N   UNL     1      13.266   8.511   5.950  0.00  0.00    -0.302 NA
ATOM     17  C   UNL     1      16.186   8.459   5.770  0.00  0.00    +0.095 C 
ATOM     19  C   UNL     1      14.062   9.635   6.462  0.00  0.00    +0.086 C 
ATOM     20  C   UNL     1      13.996   7.241   6.077  0.00  0.00    +0.086 C 
ATOM     21  C   UNL     1      15.388   9.761   5.710  0.00  0.00    +0.040 C 
ATOM     22  C   UNL     1      15.318   7.286   5.310  0.00  0.00    +0.040 C 
BRANCH  17   8
ATOM      4  O   UNL     1      16.494   8.716   2.781  0.00  0.00    -0.247 OA
ATOM      8  N   UNL     1      17.387   8.557   4.979  0.00  0.00    -0.289 N 
ATOM      9  N   UNL     1      18.816   8.739   3.231  0.00  0.00    -0.306 N 
ATOM     25  C   UNL     1      18.694   8.548   5.484  0.00  0.00    +0.070 A 
ATOM     26  C   UNL     1      17.434   8.675   3.564  0.00  0.00    +0.328 A 
ATOM     28  C   UNL     1      19.567   8.661   4.404  0.00  0.00    +0.067 A 
ATOM     29  C   UNL     1      19.158   8.454   6.779  0.00  0.00    +0.028 A 
ATOM     31  C   UNL     1      20.935   8.684   4.559  0.00  0.00    +0.028 A 
ATOM     32  C   UNL     1      20.545   8.474   6.964  0.00  0.00    +0.002 A 
ATOM     33  C   UNL     1      21.423   8.588   5.866  0.00  0.00    +0.002 A 
ATOM     40  H   UNL     1      19.205   8.827   2.300  0.00  0.00    +0.170 HD
ENDBRANCH  17   8
ENDBRANCH  15   6
ENDBRANCH  12  15
ENDBRANCH  10  12
BRANCH  11  18
ATOM     18  C   UNL     1      10.216   5.626   9.292  0.00  0.00    +0.124 C 
BRANCH  18  24
ATOM      3  O   UNL     1       8.213   4.707  10.334  0.00  0.00    -0.251 OA
ATOM     24  C   UNL     1       9.429   4.738  10.216  0.00  0.00    +0.305 C 
BRANCH  24   2
ATOM      2  O   UNL     1      10.276   3.948  10.924  0.00  0.00    -0.481 OA
ATOM     41  H   UNL     1      11.028   3.637  10.378  0.00  0.00    +0.295 HD
ENDBRANCH  24   2
ENDBRANCH  18  24
ENDBRANCH  11  18
BRANCH  23  27
ATOM     27  C   UNL     1      11.096   6.340   3.049  0.00  0.00    +0.131 C 
BRANCH  27  30
ATOM     30  C   UNL     1      12.221   6.037   2.108  0.00  0.00    -0.038 A 
ATOM     34  C   UNL     1      13.539   6.274   2.498  0.00  0.00    +0.007 A 
ATOM     35  C   UNL     1      11.950   5.520   0.841  0.00  0.00    +0.007 A 
ATOM     36  C   UNL     1      14.587   5.992   1.621  0.00  0.00    +0.046 A 
ATOM     37  C   UNL     1      12.998   5.239  -0.036  0.00  0.00    +0.046 A 
ATOM     38  C   UNL     1      14.316   5.475   0.354  0.00  0.00    +0.120 A 
BRANCH  38   5
ATOM      5  O   UNL     1      15.338   5.200  -0.501  0.00  0.00    -0.495 OA
ATOM     39  C   UNL     1      16.015   3.956  -0.325  0.00  0.00    +0.277 C 
ENDBRANCH  38   5
ENDBRANCH  27  30
ENDBRANCH  23  27
TORSDOF 10
ENDMDL
MODEL 4
REMARK VINA RESULT:      -6.3      1.500      2.089
REMARK  Name = 45360516
REMARK  11 active torsions:
REMARK  status: ('A' for Active; 'I' for Inactive)
REMARK    1  A    between atoms: O_2  and  C_24
REMARK    2  A    between atoms: O_5  and  C_38
REMARK    3  A    between atoms: O_5  and  C_39
REMARK    4  A    between atoms: N_6  and  C_15
REMARK    5  A    between atoms: N_8  and  C_17
REMARK    6  A    between atoms: C_10  and  C_12
REMARK    7  A    between atoms: C_11  and  C_18
REMARK    8  A    between atoms: C_12  and  C_15
REMARK    9  A    between atoms: C_18  and  C_24
REMARK   10  A    between atoms: C_23  and  C_27
REMARK   11  A    between atoms: C_27  and  C_30
REMARK                            x       y       z     vdW  Elec       q    Type
REMARK                         _______ _______ _______ _____ _____    ______ ____
ROOT
ATOM      1  O   UNL     1      -1.456  -9.875  12.329  0.00  0.00    -0.275 OA
ATOM      7  N   UNL     1      -2.257 -11.336  13.947  0.00  0.00    -0.301 N 
ATOM     10  C   UNL     1      -4.029 -12.106  15.509  0.00  0.00    +0.011 C 
ATOM     11  C   UNL     1      -3.223 -11.480  16.674  0.00  0.00    +0.006 C 
ATOM     13  C   UNL     1      -3.079 -12.481  14.357  0.00  0.00    +0.111 C 
ATOM     14  C   UNL     1      -2.340 -10.317  16.190  0.00  0.00    +0.023 C 
ATOM     16  C   UNL     1      -1.458 -10.742  15.019  0.00  0.00    +0.108 C 
ATOM     23  C   UNL     1      -2.175 -10.823  12.653  0.00  0.00    +0.220 C 
ENDROOT
BRANCH  10  12
ATOM     12  C   UNL     1      -5.168 -11.218  14.991  0.00  0.00    +0.020 C 
BRANCH  12  15
ATOM     15  C   UNL     1      -6.359 -12.060  14.554  0.00  0.00    +0.085 C 
BRANCH  15   6
ATOM      6  N   UNL     1      -7.559 -11.635  15.272  0.00  0.00    -0.302 NA
ATOM     17  C   UNL     1      -9.990 -10.054  15.663  0.00  0.00    +0.095 C 
ATOM     19  C   UNL     1      -7.470 -10.211  15.623  0.00  0.00    +0.086 C 
ATOM     20  C   UNL     1      -8.761 -11.912  14.473  0.00  0.00    +0.086 C 
ATOM     21  C   UNL     1      -8.695  -9.762  16.421  0.00  0.00    +0.040 C 
ATOM     22  C   UNL     1     -10.030 -11.522  15.233  0.00  0.00    +0.040 C 
BRANCH  17   8
ATOM      4  O   UNL     1     -12.587  -8.767  14.831  0.00  0.00    -0.247 OA
ATOM      8  N   UNL     1     -11.141  -9.716  16.462  0.00  0.00    -0.289 N 
ATOM      9  N   UNL     1     -13.176  -8.966  17.113  0.00  0.00    -0.306 N 
ATOM     25  C   UNL     1     -11.263  -9.936  17.840  0.00  0.00    +0.070 A 
ATOM     26  C   UNL     1     -12.328  -9.106  15.979  0.00  0.00    +0.328 A 
ATOM     28  C   UNL     1     -12.517  -9.473  18.234  0.00  0.00    +0.067 A 
ATOM     29  C   UNL     1     -10.385 -10.496  18.744  0.00  0.00    +0.028 A 
ATOM     31  C   UNL     1     -12.955  -9.543  19.538  0.00  0.00    +0.028 A 
ATOM     32  C   UNL     1     -10.806 -10.578  20.076  0.00  0.00    +0.002 A 
ATOM     33  C   UNL     1     -12.077 -10.106  20.468  0.00  0.00    +0.002 A 
ATOM     40  H   UNL     1     -14.106  -8.566  17.121  0.00  0.00    +0.170 HD
ENDBRANCH  17   8
ENDBRANCH  15   6
ENDBRANCH  12  15
ENDBRANCH  10  12
BRANCH  11  18
ATOM     18  C   UNL     1      -4.103 -11.037  17.844  0.00  0.00    +0.124 C 
BRANCH  18  24
ATOM      3  O   UNL     1      -3.333 -12.171  19.861  0.00  0.00    -0.251 OA
ATOM     24  C   UNL     1      -4.129 -12.068  18.939  0.00  0.00    +0.305 C 
BRANCH  24   2
ATOM      2  O   UNL     1      -5.192 -12.895  18.764  0.00  0.00    -0.481 OA
ATOM     41  H   UNL     1      -5.894 -12.477  18.222  0.00  0.00    +0.295 HD
ENDBRANCH  24   2
ENDBRANCH  18  24
ENDBRANCH  11  18
BRANCH  23  27
ATOM     27  C   UNL     1      -3.032 -11.489  11.606  0.00  0.00    +0.131 C 
BRANCH  27  30
ATOM     30  C   UNL     1      -3.945 -10.493  10.961  0.00  0.00    -0.038 A 
ATOM     34  C   UNL     1      -3.709 -10.076   9.651  0.00  0.00    +0.007 A 
ATOM     35  C   UNL     1      -5.033  -9.982  11.671  0.00  0.00    +0.007 A 
ATOM     36  C   UNL     1      -4.560  -9.149   9.050  0.00  0.00    +0.046 A 
ATOM     37  C   UNL     1      -5.883  -9.053  11.070  0.00  0.00    +0.046 A 
ATOM     38  C   UNL     1      -5.647  -8.637   9.760  0.00  0.00    +0.120 A 
BRANCH  38   5
ATOM      5  O   UNL     1      -6.477  -7.733   9.174  0.00  0.00    -0.495 OA
ATOM     39  C   UNL     1      -7.867  -8.055   9.136  0.00  0.00    +0.277 C 
ENDBRANCH  38   5
ENDBRANCH  27  30
ENDBRANCH  23  27
TORSDOF 10
ENDMDL
MODEL 5
REMARK VINA RESULT:      -6.3      3.477      7.582
REMARK  Name = 45360516
REMARK  11 active torsions:
REMARK  status: ('A' for Active; 'I' for Inactive)
REMARK    1  A    between atoms: O_2  and  C_24
REMARK    2  A    between atoms: O_5  and  C_38
REMARK    3  A    between atoms: O_5  and  C_39
REMARK    4  A    between atoms: N_6  and  C_15
REMARK    5  A    between atoms: N_8  and  C_17
REMARK    6  A    between atoms: C_10  and  C_12
REMARK    7  A    between atoms: C_11  and  C_18
REMARK    8  A    between atoms: C_12  and  C_15
REMARK    9  A    between atoms: C_18  and  C_24
REMARK   10  A    between atoms: C_23  and  C_27
REMARK   11  A    between atoms: C_27  and  C_30
REMARK                            x       y       z     vdW  Elec       q    Type
REMARK                         _______ _______ _______ _____ _____    ______ ____
ROOT
ATOM      1  O   UNL     1      -1.419 -10.104  15.123  0.00  0.00    -0.275 OA
ATOM      7  N   UNL     1      -3.412 -11.220  15.546  0.00  0.00    -0.301 N 
ATOM     10  C   UNL     1      -5.757 -11.797  14.964  0.00  0.00    +0.011 C 
ATOM     11  C   UNL     1      -6.233 -10.819  16.068  0.00  0.00    +0.006 C 
ATOM     13  C   UNL     1      -4.350 -12.322  15.301  0.00  0.00    +0.111 C 
ATOM     14  C   UNL     1      -5.199  -9.711  16.326  0.00  0.00    +0.023 C 
ATOM     16  C   UNL     1      -3.817 -10.296  16.606  0.00  0.00    +0.108 C 
ATOM     23  C   UNL     1      -2.203 -11.026  14.881  0.00  0.00    +0.220 C 
ENDROOT
BRANCH  10  12
ATOM     12  C   UNL     1      -5.778 -11.199  13.551  0.00  0.00    +0.020 C 
BRANCH  12  15
ATOM     15  C   UNL     1      -6.751 -11.953  12.656  0.00  0.00    +0.085 C 
BRANCH  15   6
ATOM      6  N   UNL     1      -7.094 -11.135  11.494  0.00  0.00    -0.302 NA
ATOM     17  C   UNL     1      -8.511  -8.997  10.086  0.00  0.00    +0.095 C 
ATOM     19  C   UNL     1      -8.520 -11.279  11.167  0.00  0.00    +0.086 C 
ATOM     20  C   UNL     1      -6.742  -9.729  11.733  0.00  0.00    +0.086 C 
ATOM     21  C   UNL     1      -8.885 -10.471   9.921  0.00  0.00    +0.040 C 
ATOM     22  C   UNL     1      -7.046  -8.868  10.505  0.00  0.00    +0.040 C 
BRANCH  17   8
ATOM      4  O   UNL     1     -10.457  -6.748   9.588  0.00  0.00    -0.247 OA
ATOM      8  N   UNL     1      -8.770  -8.263   8.873  0.00  0.00    -0.289 N 
ATOM      9  N   UNL     1      -9.623  -6.794   7.375  0.00  0.00    -0.306 N 
ATOM     25  C   UNL     1      -8.131  -8.476   7.644  0.00  0.00    +0.070 A 
ATOM     26  C   UNL     1      -9.714  -7.212   8.733  0.00  0.00    +0.328 A 
ATOM     28  C   UNL     1      -8.660  -7.569   6.728  0.00  0.00    +0.067 A 
ATOM     29  C   UNL     1      -7.151  -9.377   7.284  0.00  0.00    +0.028 A 
ATOM     31  C   UNL     1      -8.243  -7.515   5.417  0.00  0.00    +0.028 A 
ATOM     32  C   UNL     1      -6.709  -9.342   5.956  0.00  0.00    +0.002 A 
ATOM     33  C   UNL     1      -7.250  -8.421   5.033  0.00  0.00    +0.002 A 
ATOM     40  H   UNL     1     -10.162  -6.057   6.937  0.00  0.00    +0.170 HD
ENDBRANCH  17   8
ENDBRANCH  15   6
ENDBRANCH  12  15
ENDBRANCH  10  12
BRANCH  11  18
ATOM     18  C   UNL     1      -7.609 -10.217  15.785  0.00  0.00    +0.124 C 
BRANCH  18  24
ATOM      3  O   UNL     1      -8.619  -8.422  17.090  0.00  0.00    -0.251 OA
ATOM     24  C   UNL     1      -8.192  -9.564  17.008  0.00  0.00    +0.305 C 
BRANCH  24   2
ATOM      2  O   UNL     1      -8.182 -10.443  18.043  0.00  0.00    -0.481 OA
ATOM     41  H   UNL     1      -8.971 -10.341  18.616  0.00  0.00    +0.295 HD
ENDBRANCH  24   2
ENDBRANCH  18  24
ENDBRANCH  11  18
BRANCH  23  27
ATOM     27  C   UNL     1      -1.859 -12.019  13.799  0.00  0.00    +0.131 C 
BRANCH  27  30
ATOM     30  C   UNL     1      -2.498 -11.629  12.502  0.00  0.00    -0.038 A 
ATOM     34  C   UNL     1      -2.482 -10.297  12.089  0.00  0.00    +0.007 A 
ATOM     35  C   UNL     1      -3.111 -12.599  11.708  0.00  0.00    +0.007 A 
ATOM     36  C   UNL     1      -3.077  -9.934  10.881  0.00  0.00    +0.046 A 
ATOM     37  C   UNL     1      -3.708 -12.235  10.500  0.00  0.00    +0.046 A 
ATOM     38  C   UNL     1      -3.690 -10.904  10.087  0.00  0.00    +0.120 A 
BRANCH  38   5
ATOM      5  O   UNL     1      -4.271 -10.550   8.908  0.00  0.00    -0.495 OA
ATOM     39  C   UNL     1      -4.457 -11.582   7.940  0.00  0.00    +0.277 C 
ENDBRANCH  38   5
ENDBRANCH  27  30
ENDBRANCH  23  27
TORSDOF 10
ENDMDL
MODEL 6
REMARK VINA RESULT:      -6.3      3.032      8.901
REMARK  Name = 45360516
REMARK  11 active torsions:
REMARK  status: ('A' for Active; 'I' for Inactive)
REMARK    1  A    between atoms: O_2  and  C_24
REMARK    2  A    between atoms: O_5  and  C_38
REMARK    3  A    between atoms: O_5  and  C_39
REMARK    4  A    between atoms: N_6  and  C_15
REMARK    5  A    between atoms: N_8  and  C_17
REMARK    6  A    between atoms: C_10  and  C_12
REMARK    7  A    between atoms: C_11  and  C_18
REMARK    8  A    between atoms: C_12  and  C_15
REMARK    9  A    between atoms: C_18  and  C_24
REMARK   10  A    between atoms: C_23  and  C_27
REMARK   11  A    between atoms: C_27  and  C_30
REMARK                            x       y       z     vdW  Elec       q    Type
REMARK                         _______ _______ _______ _____ _____    ______ ____
ROOT
ATOM      1  O   UNL     1      -7.636 -11.026  19.908  0.00  0.00    -0.275 OA
ATOM      7  N   UNL     1      -8.912 -10.987  17.968  0.00  0.00    -0.301 N 
ATOM     10  C   UNL     1      -9.243 -10.368  15.584  0.00  0.00    +0.011 C 
ATOM     11  C   UNL     1     -10.171  -9.218  16.050  0.00  0.00    +0.006 C 
ATOM     13  C   UNL     1      -9.242 -11.497  16.631  0.00  0.00    +0.111 C 
ATOM     14  C   UNL     1      -9.821  -8.750  17.472  0.00  0.00    +0.023 C 
ATOM     16  C   UNL     1      -9.790  -9.922  18.450  0.00  0.00    +0.108 C 
ATOM     23  C   UNL     1      -7.878 -11.455  18.777  0.00  0.00    +0.220 C 
ENDROOT
BRANCH  10  12
ATOM     12  C   UNL     1      -7.806  -9.925  15.279  0.00  0.00    +0.020 C 
BRANCH  12  15
ATOM     15  C   UNL     1      -7.164 -10.838  14.244  0.00  0.00    +0.085 C 
BRANCH  15   6
ATOM      6  N   UNL     1      -7.298 -10.251  12.912  0.00  0.00    -0.302 NA
ATOM     17  C   UNL     1      -6.683  -9.980  10.064  0.00  0.00    +0.095 C 
ATOM     19  C   UNL     1      -6.023  -9.660  12.480  0.00  0.00    +0.086 C 
ATOM     20  C   UNL     1      -7.769 -11.259  11.951  0.00  0.00    +0.086 C 
ATOM     21  C   UNL     1      -6.160  -8.995  11.109  0.00  0.00    +0.040 C 
ATOM     22  C   UNL     1      -7.966 -10.647  10.563  0.00  0.00    +0.040 C 
BRANCH  17   8
ATOM      4  O   UNL     1      -5.170 -10.267   7.471  0.00  0.00    -0.247 OA
ATOM      8  N   UNL     1      -6.900  -9.321   8.801  0.00  0.00    -0.289 N 
ATOM      9  N   UNL     1      -6.702  -8.668   6.641  0.00  0.00    -0.306 N 
ATOM     25  C   UNL     1      -7.903  -8.379   8.539  0.00  0.00    +0.070 A 
ATOM     26  C   UNL     1      -6.128  -9.521   7.625  0.00  0.00    +0.328 A 
ATOM     28  C   UNL     1      -7.777  -7.982   7.209  0.00  0.00    +0.067 A 
ATOM     29  C   UNL     1      -8.888  -7.863   9.354  0.00  0.00    +0.028 A 
ATOM     31  C   UNL     1      -8.617  -7.058   6.630  0.00  0.00    +0.028 A 
ATOM     32  C   UNL     1      -9.756  -6.921   8.789  0.00  0.00    +0.002 A 
ATOM     33  C   UNL     1      -9.621  -6.523   7.443  0.00  0.00    +0.002 A 
ATOM     40  H   UNL     1      -6.392  -8.565   5.683  0.00  0.00    +0.170 HD
ENDBRANCH  17   8
ENDBRANCH  15   6
ENDBRANCH  12  15
ENDBRANCH  10  12
BRANCH  11  18
ATOM     18  C   UNL     1     -10.192  -8.034  15.083  0.00  0.00    +0.124 C 
BRANCH  18  24
ATOM      3  O   UNL     1     -12.310  -7.071  15.811  0.00  0.00    -0.251 OA
ATOM     24  C   UNL     1     -11.122  -6.950  15.554  0.00  0.00    +0.305 C 
BRANCH  24   2
ATOM      2  O   UNL     1     -10.442  -5.779  15.661  0.00  0.00    -0.481 OA
ATOM     41  H   UNL     1     -10.069  -5.494  14.801  0.00  0.00    +0.295 HD
ENDBRANCH  24   2
ENDBRANCH  18  24
ENDBRANCH  11  18
BRANCH  23  27
ATOM     27  C   UNL     1      -7.015 -12.552  18.206  0.00  0.00    +0.131 C 
BRANCH  27  30
ATOM     30  C   UNL     1      -5.842 -11.975  17.475  0.00  0.00    -0.038 A 
ATOM     34  C   UNL     1      -5.415 -10.677  17.756  0.00  0.00    +0.007 A 
ATOM     35  C   UNL     1      -5.177 -12.735  16.512  0.00  0.00    +0.007 A 
ATOM     36  C   UNL     1      -4.323 -10.140  17.075  0.00  0.00    +0.046 A 
ATOM     37  C   UNL     1      -4.086 -12.197  15.831  0.00  0.00    +0.046 A 
ATOM     38  C   UNL     1      -3.658 -10.901  16.112  0.00  0.00    +0.120 A 
BRANCH  38   5
ATOM      5  O   UNL     1      -2.592 -10.376  15.449  0.00  0.00    -0.495 OA
ATOM     39  C   UNL     1      -1.346 -11.060  15.577  0.00  0.00    +0.277 C 
ENDBRANCH  38   5
ENDBRANCH  27  30
ENDBRANCH  23  27
TORSDOF 10
ENDMDL
MODEL 7
REMARK VINA RESULT:      -6.3      2.522      9.024
REMARK  Name = 45360516
REMARK  11 active torsions:
REMARK  status: ('A' for Active; 'I' for Inactive)
REMARK    1  A    between atoms: O_2  and  C_24
REMARK    2  A    between atoms: O_5  and  C_38
REMARK    3  A    between atoms: O_5  and  C_39
REMARK    4  A    between atoms: N_6  and  C_15
REMARK    5  A    between atoms: N_8  and  C_17
REMARK    6  A    between atoms: C_10  and  C_12
REMARK    7  A    between atoms: C_11  and  C_18
REMARK    8  A    between atoms: C_12  and  C_15
REMARK    9  A    between atoms: C_18  and  C_24
REMARK   10  A    between atoms: C_23  and  C_27
REMARK   11  A    between atoms: C_27  and  C_30
REMARK                            x       y       z     vdW  Elec       q    Type
REMARK                         _______ _______ _______ _____ _____    ______ ____
ROOT
ATOM      1  O   UNL     1      -7.394 -10.754  20.088  0.00  0.00    -0.275 OA
ATOM      7  N   UNL     1      -9.282 -11.409  18.905  0.00  0.00    -0.301 N 
ATOM     10  C   UNL     1     -10.660 -11.447  16.838  0.00  0.00    +0.011 C 
ATOM     11  C   UNL     1     -11.602 -10.405  17.490  0.00  0.00    +0.006 C 
ATOM     13  C   UNL     1      -9.958 -12.275  17.930  0.00  0.00    +0.111 C 
ATOM     14  C   UNL     1     -10.865  -9.555  18.539  0.00  0.00    +0.023 C 
ATOM     16  C   UNL     1     -10.152 -10.435  19.564  0.00  0.00    +0.108 C 
ATOM     23  C   UNL     1      -7.933 -11.477  19.246  0.00  0.00    +0.220 C 
ENDROOT
BRANCH  10  12
ATOM     12  C   UNL     1      -9.624 -10.840  15.883  0.00  0.00    +0.020 C 
BRANCH  12  15
ATOM     15  C   UNL     1      -9.629 -11.564  14.544  0.00  0.00    +0.085 C 
BRANCH  15   6
ATOM      6  N   UNL     1      -8.494 -11.122  13.735  0.00  0.00    -0.302 NA
ATOM     17  C   UNL     1      -7.207  -9.636  11.568  0.00  0.00    +0.095 C 
ATOM     19  C   UNL     1      -8.660 -11.551  12.339  0.00  0.00    +0.086 C 
ATOM     20  C   UNL     1      -8.334  -9.664  13.827  0.00  0.00    +0.086 C 
ATOM     21  C   UNL     1      -7.456 -11.142  11.489  0.00  0.00    +0.040 C 
ATOM     22  C   UNL     1      -7.118  -9.192  13.028  0.00  0.00    +0.040 C 
BRANCH  17   8
ATOM      4  O   UNL     1      -6.928  -8.084   8.997  0.00  0.00    -0.247 OA
ATOM      8  N   UNL     1      -6.015  -9.274  10.842  0.00  0.00    -0.289 N 
ATOM      9  N   UNL     1      -4.605  -8.422   9.287  0.00  0.00    -0.306 N 
ATOM     25  C   UNL     1      -4.706  -9.597  11.221  0.00  0.00    +0.070 A 
ATOM     26  C   UNL     1      -5.982  -8.536   9.629  0.00  0.00    +0.328 A 
ATOM     28  C   UNL     1      -3.844  -9.069  10.262  0.00  0.00    +0.067 A 
ATOM     29  C   UNL     1      -4.230 -10.295  12.311  0.00  0.00    +0.028 A 
ATOM     31  C   UNL     1      -2.477  -9.211  10.339  0.00  0.00    +0.028 A 
ATOM     32  C   UNL     1      -2.843 -10.453  12.413  0.00  0.00    +0.002 A 
ATOM     33  C   UNL     1      -1.977  -9.917  11.437  0.00  0.00    +0.002 A 
ATOM     40  H   UNL     1      -4.226  -7.952   8.475  0.00  0.00    +0.170 HD
ENDBRANCH  17   8
ENDBRANCH  15   6
ENDBRANCH  12  15
ENDBRANCH  10  12
BRANCH  11  18
ATOM     18  C   UNL     1     -12.306  -9.510  16.470  0.00  0.00    +0.124 C 
BRANCH  18  24
ATOM      3  O   UNL     1     -14.227  -8.027  16.710  0.00  0.00    -0.251 OA
ATOM     24  C   UNL     1     -13.668  -9.088  16.949  0.00  0.00    +0.305 C 
BRANCH  24   2
ATOM      2  O   UNL     1     -14.214 -10.075  17.704  0.00  0.00    -0.481 OA
ATOM     41  H   UNL     1     -15.043 -10.420  17.311  0.00  0.00    +0.295 HD
ENDBRANCH  24   2
ENDBRANCH  18  24
ENDBRANCH  11  18
BRANCH  23  27
ATOM     27  C   UNL     1      -7.103 -12.506  18.520  0.00  0.00    +0.131 C 
BRANCH  27  30
ATOM     30  C   UNL     1      -5.956 -11.854  17.811  0.00  0.00    -0.038 A 
ATOM     34  C   UNL     1      -6.192 -11.042  16.702  0.00  0.00    +0.007 A 
ATOM     35  C   UNL     1      -4.651 -12.061  18.260  0.00  0.00    +0.007 A 
ATOM     36  C   UNL     1      -5.124 -10.436  16.042  0.00  0.00    +0.046 A 
ATOM     37  C   UNL     1      -3.583 -11.454  17.599  0.00  0.00    +0.046 A 
ATOM     38  C   UNL     1      -3.819 -10.642  16.491  0.00  0.00    +0.120 A 
BRANCH  38   5
ATOM      5  O   UNL     1      -2.777 -10.050  15.847  0.00  0.00    -0.495 OA
ATOM     39  C   UNL     1      -1.499 -10.673  15.968  0.00  0.00    +0.277 C 
ENDBRANCH  38   5
ENDBRANCH  27  30
ENDBRANCH  23  27
TORSDOF 10
ENDMDL
MODEL 8
REMARK VINA RESULT:      -6.3      3.219      8.285
REMARK  Name = 45360516
REMARK  11 active torsions:
REMARK  status: ('A' for Active; 'I' for Inactive)
REMARK    1  A    between atoms: O_2  and  C_24
REMARK    2  A    between atoms: O_5  and  C_38
REMARK    3  A    between atoms: O_5  and  C_39
REMARK    4  A    between atoms: N_6  and  C_15
REMARK    5  A    between atoms: N_8  and  C_17
REMARK    6  A    between atoms: C_10  and  C_12
REMARK    7  A    between atoms: C_11  and  C_18
REMARK    8  A    between atoms: C_12  and  C_15
REMARK    9  A    between atoms: C_18  and  C_24
REMARK   10  A    between atoms: C_23  and  C_27
REMARK   11  A    between atoms: C_27  and  C_30
REMARK                            x       y       z     vdW  Elec       q    Type
REMARK                         _______ _______ _______ _____ _____    ______ ____
ROOT
ATOM      1  O   UNL     1      -1.794 -10.456  15.823  0.00  0.00    -0.275 OA
ATOM      7  N   UNL     1      -3.881 -11.444  16.076  0.00  0.00    -0.301 N 
ATOM     10  C   UNL     1      -6.363 -11.341  16.048  0.00  0.00    +0.011 C 
ATOM     11  C   UNL     1      -6.344 -11.314  17.597  0.00  0.00    +0.006 C 
ATOM     13  C   UNL     1      -5.100 -12.045  15.520  0.00  0.00    +0.111 C 
ATOM     14  C   UNL     1      -5.030 -10.723  18.135  0.00  0.00    +0.023 C 
ATOM     16  C   UNL     1      -3.817 -11.432  17.538  0.00  0.00    +0.108 C 
ATOM     23  C   UNL     1      -2.820 -10.933  15.331  0.00  0.00    +0.220 C 
ENDROOT
BRANCH  10  12
ATOM     12  C   UNL     1      -6.511  -9.958  15.402  0.00  0.00    +0.020 C 
BRANCH  12  15
ATOM     15  C   UNL     1      -7.793  -9.872  14.586  0.00  0.00    +0.085 C 
BRANCH  15   6
ATOM      6  N   UNL     1      -7.472  -9.772  13.163  0.00  0.00    -0.302 NA
ATOM     17  C   UNL     1      -6.128 -10.571  10.690  0.00  0.00    +0.095 C 
ATOM     19  C   UNL     1      -6.038  -9.506  12.978  0.00  0.00    +0.086 C 
ATOM     20  C   UNL     1      -7.882 -10.993  12.457  0.00  0.00    +0.086 C 
ATOM     21  C   UNL     1      -5.694  -9.347  11.496  0.00  0.00    +0.040 C 
ATOM     22  C   UNL     1      -7.602 -10.883  10.957  0.00  0.00    +0.040 C 
BRANCH  17   8
ATOM      4  O   UNL     1      -6.882  -8.240   8.931  0.00  0.00    -0.247 OA
ATOM      8  N   UNL     1      -5.887 -10.370   9.283  0.00  0.00    -0.289 N 
ATOM      9  N   UNL     1      -5.837  -9.472   7.204  0.00  0.00    -0.306 N 
ATOM     25  C   UNL     1      -5.226 -11.271   8.438  0.00  0.00    +0.070 A 
ATOM     26  C   UNL     1      -6.284  -9.231   8.534  0.00  0.00    +0.328 A 
ATOM     28  C   UNL     1      -5.198 -10.712   7.162  0.00  0.00    +0.067 A 
ATOM     29  C   UNL     1      -4.664 -12.503   8.698  0.00  0.00    +0.028 A 
ATOM     31  C   UNL     1      -4.615 -11.349   6.089  0.00  0.00    +0.028 A 
ATOM     32  C   UNL     1      -4.065 -13.171   7.624  0.00  0.00    +0.002 A 
ATOM     33  C   UNL     1      -4.041 -12.600   6.334  0.00  0.00    +0.002 A 
ATOM     40  H   UNL     1      -5.956  -8.856   6.411  0.00  0.00    +0.170 HD
ENDBRANCH  17   8
ENDBRANCH  15   6
ENDBRANCH  12  15
ENDBRANCH  10  12
BRANCH  11  18
ATOM     18  C   UNL     1      -7.547 -10.590  18.201  0.00  0.00    +0.124 C 
BRANCH  18  24
ATOM      3  O   UNL     1      -7.488 -12.199  20.032  0.00  0.00    -0.251 OA
ATOM     24  C   UNL     1      -7.957 -11.195  19.516  0.00  0.00    +0.305 C 
BRANCH  24   2
ATOM      2  O   UNL     1      -8.948 -10.453  20.072  0.00  0.00    -0.481 OA
ATOM     41  H   UNL     1      -9.294  -9.780  19.449  0.00  0.00    +0.295 HD
ENDBRANCH  24   2
ENDBRANCH  18  24
ENDBRANCH  11  18
BRANCH  23  27
ATOM     27  C   UNL     1      -2.965 -10.979  13.830  0.00  0.00    +0.131 C 
BRANCH  27  30
ATOM     30  C   UNL     1      -2.664 -12.351  13.313  0.00  0.00    -0.038 A 
ATOM     34  C   UNL     1      -3.379 -12.861  12.229  0.00  0.00    +0.007 A 
ATOM     35  C   UNL     1      -1.668 -13.121  13.916  0.00  0.00    +0.007 A 
ATOM     36  C   UNL     1      -3.098 -14.139  11.747  0.00  0.00    +0.046 A 
ATOM     37  C   UNL     1      -1.389 -14.400  13.434  0.00  0.00    +0.046 A 
ATOM     38  C   UNL     1      -2.103 -14.909  12.351  0.00  0.00    +0.120 A 
BRANCH  38   5
ATOM      5  O   UNL     1      -1.829 -16.156  11.880  0.00  0.00    -0.495 OA
ATOM     39  C   UNL     1      -2.772 -17.185  12.180  0.00  0.00    +0.277 C 
ENDBRANCH  38   5
ENDBRANCH  27  30
ENDBRANCH  23  27
TORSDOF 10
ENDMDL
MODEL 9
REMARK VINA RESULT:      -6.3      3.219      9.143
REMARK  Name = 45360516
REMARK  11 active torsions:
REMARK  status: ('A' for Active; 'I' for Inactive)
REMARK    1  A    between atoms: O_2  and  C_24
REMARK    2  A    between atoms: O_5  and  C_38
REMARK    3  A    between atoms: O_5  and  C_39
REMARK    4  A    between atoms: N_6  and  C_15
REMARK    5  A    between atoms: N_8  and  C_17
REMARK    6  A    between atoms: C_10  and  C_12
REMARK    7  A    between atoms: C_11  and  C_18
REMARK    8  A    between atoms: C_12  and  C_15
REMARK    9  A    between atoms: C_18  and  C_24
REMARK   10  A    between atoms: C_23  and  C_27
REMARK   11  A    between atoms: C_27  and  C_30
REMARK                            x       y       z     vdW  Elec       q    Type
REMARK                         _______ _______ _______ _____ _____    ______ ____
ROOT
ATOM      1  O   UNL     1      -9.844 -11.288  16.475  0.00  0.00    -0.275 OA
ATOM      7  N   UNL     1      -7.803 -10.260  16.889  0.00  0.00    -0.301 N 
ATOM     10  C   UNL     1      -5.357 -10.031  16.515  0.00  0.00    +0.011 C 
ATOM     11  C   UNL     1      -5.120 -10.734  17.875  0.00  0.00    +0.006 C 
ATOM     13  C   UNL     1      -6.728  -9.330  16.520  0.00  0.00    +0.111 C 
ATOM     14  C   UNL     1      -6.292 -11.659  18.245  0.00  0.00    +0.023 C 
ATOM     16  C   UNL     1      -7.625 -10.917  18.185  0.00  0.00    +0.108 C 
ATOM     23  C   UNL     1      -8.942 -10.521  16.129  0.00  0.00    +0.220 C 
ENDROOT
BRANCH  10  12
ATOM     12  C   UNL     1      -5.241 -10.964  15.302  0.00  0.00    +0.020 C 
BRANCH  12  15
ATOM     15  C   UNL     1      -3.974 -10.671  14.511  0.00  0.00    +0.085 C 
BRANCH  15   6
ATOM      6  N   UNL     1      -4.311 -10.394  13.116  0.00  0.00    -0.302 NA
ATOM     17  C   UNL     1      -4.554 -11.040  10.273  0.00  0.00    +0.095 C 
ATOM     19  C   UNL     1      -3.112 -10.486  12.270  0.00  0.00    +0.086 C 
ATOM     20  C   UNL     1      -5.362 -11.308  12.650  0.00  0.00    +0.086 C 
ATOM     21  C   UNL     1      -3.437 -10.148  10.814  0.00  0.00    +0.040 C 
ATOM     22  C   UNL     1      -5.764 -10.997  11.207  0.00  0.00    +0.040 C 
BRANCH  17   8
ATOM      4  O   UNL     1      -5.774  -8.461   9.294  0.00  0.00    -0.247 OA
ATOM      8  N   UNL     1      -4.919 -10.650   8.934  0.00  0.00    -0.289 N 
ATOM      9  N   UNL     1      -5.679  -9.469   7.157  0.00  0.00    -0.306 N 
ATOM     25  C   UNL     1      -4.764 -11.442   7.788  0.00  0.00    +0.070 A 
ATOM     26  C   UNL     1      -5.493  -9.405   8.567  0.00  0.00    +0.328 A 
ATOM     28  C   UNL     1      -5.233 -10.710   6.700  0.00  0.00    +0.067 A 
ATOM     29  C   UNL     1      -4.257 -12.715   7.636  0.00  0.00    +0.028 A 
ATOM     31  C   UNL     1      -5.222 -11.206   5.415  0.00  0.00    +0.028 A 
ATOM     32  C   UNL     1      -4.234 -13.242   6.339  0.00  0.00    +0.002 A 
ATOM     33  C   UNL     1      -4.712 -12.496   5.242  0.00  0.00    +0.002 A 
ATOM     40  H   UNL     1      -6.070  -8.743   6.570  0.00  0.00    +0.170 HD
ENDBRANCH  17   8
ENDBRANCH  15   6
ENDBRANCH  12  15
ENDBRANCH  10  12
BRANCH  11  18
ATOM     18  C   UNL     1      -3.795 -11.494  17.936  0.00  0.00    +0.124 C 
BRANCH  18  24
ATOM      3  O   UNL     1      -3.539 -12.302  20.222  0.00  0.00    -0.251 OA
ATOM     24  C   UNL     1      -3.788 -12.511  19.044  0.00  0.00    +0.305 C 
BRANCH  24   2
ATOM      2  O   UNL     1      -4.109 -13.733  18.545  0.00  0.00    -0.481 OA
ATOM     41  H   UNL     1      -4.977 -14.045  18.877  0.00  0.00    +0.295 HD
ENDBRANCH  24   2
ENDBRANCH  18  24
ENDBRANCH  11  18
BRANCH  23  27
ATOM     27  C   UNL     1      -9.049  -9.807  14.805  0.00  0.00    +0.131 C 
BRANCH  27  30
ATOM     30  C   UNL     1     -10.142  -8.784  14.845  0.00  0.00    -0.038 A 
ATOM     34  C   UNL     1     -11.324  -8.997  14.136  0.00  0.00    +0.007 A 
ATOM     35  C   UNL     1      -9.977  -7.616  15.591  0.00  0.00    +0.007 A 
ATOM     36  C   UNL     1     -12.341  -8.044  14.173  0.00  0.00    +0.046 A 
ATOM     37  C   UNL     1     -10.994  -6.663  15.627  0.00  0.00    +0.046 A 
ATOM     38  C   UNL     1     -12.176  -6.876  14.919  0.00  0.00    +0.120 A 
BRANCH  38   5
ATOM      5  O   UNL     1     -13.169  -5.947  14.956  0.00  0.00    -0.495 OA
ATOM     39  C   UNL     1     -13.211  -4.998  13.890  0.00  0.00    +0.277 C 
ENDBRANCH  38   5
ENDBRANCH  27  30
ENDBRANCH  23  27
TORSDOF 10
ENDMDL
MODEL 10
REMARK VINA RESULT:      -6.2     25.483     29.324
REMARK  Name = 45360516
REMARK  11 active torsions:
REMARK  status: ('A' for Active; 'I' for Inactive)
REMARK    1  A    between atoms: O_2  and  C_24
REMARK    2  A    between atoms: O_5  and  C_38
REMARK    3  A    between atoms: O_5  and  C_39
REMARK    4  A    between atoms: N_6  and  C_15
REMARK    5  A    between atoms: N_8  and  C_17
REMARK    6  A    between atoms: C_10  and  C_12
REMARK    7  A    between atoms: C_11  and  C_18
REMARK    8  A    between atoms: C_12  and  C_15
REMARK    9  A    between atoms: C_18  and  C_24
REMARK   10  A    between atoms: C_23  and  C_27
REMARK   11  A    between atoms: C_27  and  C_30
REMARK                            x       y       z     vdW  Elec       q    Type
REMARK                         _______ _______ _______ _____ _____    ______ ____
ROOT
ATOM      1  O   UNL     1       1.795   4.642  -3.911  0.00  0.00    -0.275 OA
ATOM      7  N   UNL     1       3.474   5.730  -5.090  0.00  0.00    -0.301 N 
ATOM     10  C   UNL     1       5.850   6.386  -5.404  0.00  0.00    +0.011 C 
ATOM     11  C   UNL     1       5.490   7.801  -4.886  0.00  0.00    +0.006 C 
ATOM     13  C   UNL     1       4.607   5.723  -6.025  0.00  0.00    +0.111 C 
ATOM     14  C   UNL     1       4.269   7.767  -3.951  0.00  0.00    +0.023 C 
ATOM     16  C   UNL     1       3.088   7.056  -4.608  0.00  0.00    +0.108 C 
ATOM     23  C   UNL     1       2.761   4.606  -4.678  0.00  0.00    +0.220 C 
ENDROOT
BRANCH  10  12
ATOM     12  C   UNL     1       6.464   5.470  -4.337  0.00  0.00    +0.020 C 
BRANCH  12  15
ATOM     15  C   UNL     1       7.887   5.078  -4.712  0.00  0.00    +0.085 C 
BRANCH  15   6
ATOM      6  N   UNL     1       8.644   4.742  -3.507  0.00  0.00    -0.302 NA
ATOM     17  C   UNL     1      11.025   4.681  -1.807  0.00  0.00    +0.095 C 
ATOM     19  C   UNL     1       9.771   3.858  -3.837  0.00  0.00    +0.086 C 
ATOM     20  C   UNL     1       9.107   5.964  -2.833  0.00  0.00    +0.086 C 
ATOM     21  C   UNL     1      10.543   3.454  -2.580  0.00  0.00    +0.040 C 
ATOM     22  C   UNL     1       9.855   5.631  -1.542  0.00  0.00    +0.040 C 
BRANCH  17   8
ATOM      4  O   UNL     1       9.793   3.953   0.848  0.00  0.00    -0.247 OA
ATOM      8  N   UNL     1      11.667   4.293  -0.576  0.00  0.00    -0.289 N 
ATOM      9  N   UNL     1      12.026   3.649   1.566  0.00  0.00    -0.306 N 
ATOM     25  C   UNL     1      13.050   4.179  -0.384  0.00  0.00    +0.070 A 
ATOM     26  C   UNL     1      10.998   3.966   0.633  0.00  0.00    +0.328 A 
ATOM     28  C   UNL     1      13.264   3.782   0.934  0.00  0.00    +0.067 A 
ATOM     29  C   UNL     1      14.100   4.390  -1.253  0.00  0.00    +0.028 A 
ATOM     31  C   UNL     1      14.524   3.579   1.450  0.00  0.00    +0.028 A 
ATOM     32  C   UNL     1      15.392   4.189  -0.753  0.00  0.00    +0.002 A 
ATOM     33  C   UNL     1      15.601   3.789   0.583  0.00  0.00    +0.002 A 
ATOM     40  H   UNL     1      11.896   3.371   2.530  0.00  0.00    +0.170 HD
ENDBRANCH  17   8
ENDBRANCH  15   6
ENDBRANCH  12  15
ENDBRANCH  10  12
BRANCH  11  18
ATOM     18  C   UNL     1       6.664   8.512  -4.212  0.00  0.00    +0.124 C 
BRANCH  18  24
ATOM      3  O   UNL     1       8.763   8.426  -5.450  0.00  0.00    -0.251 OA
ATOM     24  C   UNL     1       7.690   8.962  -5.216  0.00  0.00    +0.305 C 
BRANCH  24   2
ATOM      2  O   UNL     1       7.250  10.078  -5.851  0.00  0.00    -0.481 OA
ATOM     41  H   UNL     1       6.913  10.748  -5.219  0.00  0.00    +0.295 HD
ENDBRANCH  24   2
ENDBRANCH  18  24
ENDBRANCH  11  18
BRANCH  23  27
ATOM     27  C   UNL     1       3.224   3.276  -5.217  0.00  0.00    +0.131 C 
BRANCH  27  30
ATOM     30  C   UNL     1       2.062   2.480  -5.725  0.00  0.00    -0.038 A 
ATOM     34  C   UNL     1       1.406   2.869  -6.893  0.00  0.00    +0.007 A 
ATOM     35  C   UNL     1       1.635   1.348  -5.029  0.00  0.00    +0.007 A 
ATOM     36  C   UNL     1       0.324   2.127  -7.365  0.00  0.00    +0.046 A 
ATOM     37  C   UNL     1       0.552   0.606  -5.502  0.00  0.00    +0.046 A 
ATOM     38  C   UNL     1      -0.103   0.995  -6.669  0.00  0.00    +0.120 A 
BRANCH  38   5
ATOM      5  O   UNL     1      -1.159   0.271  -7.131  0.00  0.00    -0.495 OA
ATOM     39  C   UNL     1      -1.379  -1.008  -6.537  0.00  0.00    +0.277 C 
ENDBRANCH  38   5
ENDBRANCH  27  30
ENDBRANCH  23  27
TORSDOF 10
ENDMDL
