MODEL 1
REMARK VINA RESULT:      -7.9      0.000      0.000
REMARK  Name = 45360653
REMARK  8 active torsions:
REMARK  status: ('A' for Active; 'I' for Inactive)
REMARK    1  A    between atoms: N_7  and  C_10
REMARK    2  A    between atoms: N_7  and  C_18
REMARK    3  A    between atoms: N_8  and  C_23
REMARK    4  A    between atoms: C_11  and  C_16
REMARK    5  A    between atoms: C_16  and  C_17
REMARK    6  A    between atoms: C_17  and  C_19
REMARK    7  A    between atoms: C_18  and  C_20
REMARK    8  A    between atoms: C_23  and  C_27
REMARK                            x       y       z     vdW  Elec       q    Type
REMARK                         _______ _______ _______ _____ _____    ______ ____
ROOT
ATOM      3  O   UNL     1     -17.510   1.384  22.127  0.00  0.00    -0.274 OA
ATOM      5  N   UNL     1     -17.535   3.215  25.284  0.00  0.00    -0.286 NA
ATOM      6  N   UNL     1     -17.481   0.603  24.262  0.00  0.00    -0.313 N 
ATOM      9  C   UNL     1     -17.769   3.040  23.845  0.00  0.00    +0.145 C 
ATOM     10  C   UNL     1     -16.012   4.644  24.332  0.00  0.00    +0.070 C 
ATOM     11  C   UNL     1     -18.028   2.119  26.111  0.00  0.00    +0.075 C 
ATOM     12  C   UNL     1     -16.784   4.009  23.174  0.00  0.00    +0.048 C 
ATOM     13  C   UNL     1     -16.140   3.618  25.448  0.00  0.00    +0.104 C 
ATOM     14  C   UNL     1     -17.399   0.800  25.691  0.00  0.00    +0.123 C 
ATOM     15  C   UNL     1     -17.554   1.616  23.339  0.00  0.00    +0.230 C 
ATOM     33  H   UNL     1     -17.359  -0.343  23.913  0.00  0.00    +0.149 HD
ENDROOT
BRANCH  10   7
ATOM      7  N   UNL     1     -14.635   4.963  23.992  0.00  0.00    -0.308 NA
ATOM     34  H   UNL     1     -14.431   5.918  24.289  0.00  0.00    +0.123 HD
BRANCH   7  18
ATOM     18  C   UNL     1     -14.412   4.861  22.555  0.00  0.00    +0.116 C 
BRANCH  18  20
ATOM      1  F   UNL     1     -11.802   9.404  20.495  0.00  0.00    -0.205 F 
ATOM     20  C   UNL     1     -13.717   6.072  22.006  0.00  0.00    -0.033 A 
ATOM     21  C   UNL     1     -12.454   5.948  21.426  0.00  0.00    +0.008 A 
ATOM     22  C   UNL     1     -14.333   7.322  22.075  0.00  0.00    +0.008 A 
ATOM     24  C   UNL     1     -11.807   7.073  20.917  0.00  0.00    +0.038 A 
ATOM     25  C   UNL     1     -13.686   8.447  21.564  0.00  0.00    +0.038 A 
ATOM     26  C   UNL     1     -12.423   8.323  20.986  0.00  0.00    +0.123 A 
ENDBRANCH  18  20
ENDBRANCH   7  18
ENDBRANCH  10   7
BRANCH  11  16
ATOM     16  C   UNL     1     -17.831   2.370  27.607  0.00  0.00    +0.029 C 
BRANCH  16  17
ATOM     17  C   UNL     1     -17.012   1.259  28.249  0.00  0.00    +0.097 C 
BRANCH  17  19
ATOM      4  O   UNL     1     -15.295   2.916  28.654  0.00  0.00    -0.276 OA
ATOM      8  N   UNL     1     -15.052   0.793  29.561  0.00  0.00    -0.311 N 
ATOM     19  C   UNL     1     -15.706   1.773  28.827  0.00  0.00    +0.213 C 
ATOM     35  H   UNL     1     -15.449  -0.139  29.631  0.00  0.00    +0.149 HD
BRANCH   8  23
ATOM     23  C   UNL     1     -13.787   1.034  30.213  0.00  0.00    +0.139 C 
BRANCH  23  27
ATOM      2  F   UNL     1     -14.363   4.221  34.818  0.00  0.00    -0.205 F 
ATOM     27  C   UNL     1     -13.940   1.884  31.441  0.00  0.00    -0.030 A 
ATOM     28  C   UNL     1     -13.360   3.151  31.490  0.00  0.00    +0.008 A 
ATOM     29  C   UNL     1     -14.665   1.407  32.534  0.00  0.00    +0.008 A 
ATOM     30  C   UNL     1     -13.501   3.941  32.631  0.00  0.00    +0.038 A 
ATOM     31  C   UNL     1     -14.806   2.196  33.675  0.00  0.00    +0.038 A 
ATOM     32  C   UNL     1     -14.225   3.463  33.724  0.00  0.00    +0.123 A 
ENDBRANCH  23  27
ENDBRANCH   8  23
ENDBRANCH  17  19
ENDBRANCH  16  17
ENDBRANCH  11  16
TORSDOF 8
ENDMDL
MODEL 2
REMARK VINA RESULT:      -7.5     18.838     21.860
REMARK  Name = 45360653
REMARK  8 active torsions:
REMARK  status: ('A' for Active; 'I' for Inactive)
REMARK    1  A    between atoms: N_7  and  C_10
REMARK    2  A    between atoms: N_7  and  C_18
REMARK    3  A    between atoms: N_8  and  C_23
REMARK    4  A    between atoms: C_11  and  C_16
REMARK    5  A    between atoms: C_16  and  C_17
REMARK    6  A    between atoms: C_17  and  C_19
REMARK    7  A    between atoms: C_18  and  C_20
REMARK    8  A    between atoms: C_23  and  C_27
REMARK                            x       y       z     vdW  Elec       q    Type
REMARK                         _______ _______ _______ _____ _____    ______ ____
ROOT
ATOM      3  O   UNL     1      -7.266 -14.260  16.681  0.00  0.00    -0.274 OA
ATOM      5  N   UNL     1      -4.822 -11.742  17.690  0.00  0.00    -0.286 NA
ATOM      6  N   UNL     1      -5.980 -12.886  15.404  0.00  0.00    -0.313 N 
ATOM      9  C   UNL     1      -5.650 -12.942  17.871  0.00  0.00    +0.145 C 
ATOM     10  C   UNL     1      -6.325 -11.100  19.301  0.00  0.00    +0.070 C 
ATOM     11  C   UNL     1      -4.092 -11.701  16.429  0.00  0.00    +0.075 C 
ATOM     12  C   UNL     1      -6.652 -12.557  18.970  0.00  0.00    +0.048 C 
ATOM     13  C   UNL     1      -5.652 -10.591  18.035  0.00  0.00    +0.104 C 
ATOM     14  C   UNL     1      -5.046 -11.795  15.248  0.00  0.00    +0.123 C 
ATOM     15  C   UNL     1      -6.381 -13.401  16.612  0.00  0.00    +0.230 C 
ATOM     33  H   UNL     1      -6.459 -13.215  14.571  0.00  0.00    +0.149 HD
ENDROOT
BRANCH  10   7
ATOM      7  N   UNL     1      -7.495 -10.327  19.687  0.00  0.00    -0.308 NA
ATOM     34  H   UNL     1      -7.558 -10.304  20.705  0.00  0.00    +0.123 HD
BRANCH   7  18
ATOM     18  C   UNL     1      -8.715 -10.920  19.154  0.00  0.00    +0.116 C 
BRANCH  18  20
ATOM      1  F   UNL     1     -11.850  -7.158  16.375  0.00  0.00    -0.205 F 
ATOM     20  C   UNL     1      -9.551  -9.917  18.413  0.00  0.00    -0.033 A 
ATOM     21  C   UNL     1     -10.938  -9.922  18.558  0.00  0.00    +0.008 A 
ATOM     22  C   UNL     1      -8.940  -8.980  17.579  0.00  0.00    +0.008 A 
ATOM     24  C   UNL     1     -11.715  -8.991  17.869  0.00  0.00    +0.038 A 
ATOM     25  C   UNL     1      -9.716  -8.048  16.892  0.00  0.00    +0.038 A 
ATOM     26  C   UNL     1     -11.104  -8.054  17.036  0.00  0.00    +0.123 A 
ENDBRANCH  18  20
ENDBRANCH   7  18
ENDBRANCH  10   7
BRANCH  11  16
ATOM     16  C   UNL     1      -3.187 -10.475  16.307  0.00  0.00    +0.029 C 
BRANCH  16  17
ATOM     17  C   UNL     1      -1.777 -10.869  15.891  0.00  0.00    +0.097 C 
BRANCH  17  19
ATOM      4  O   UNL     1      -1.500 -12.572  14.194  0.00  0.00    -0.276 OA
ATOM      8  N   UNL     1      -1.965 -10.394  13.541  0.00  0.00    -0.311 N 
ATOM     19  C   UNL     1      -1.727 -11.398  14.469  0.00  0.00    +0.213 C 
ATOM     35  H   UNL     1      -2.116  -9.440  13.853  0.00  0.00    +0.149 HD
BRANCH   8  23
ATOM     23  C   UNL     1      -1.970 -10.644  12.119  0.00  0.00    +0.139 C 
BRANCH  23  27
ATOM      2  F   UNL     1      -6.400  -8.271   9.580  0.00  0.00    -0.205 F 
ATOM     27  C   UNL     1      -3.151 -10.011  11.442  0.00  0.00    -0.030 A 
ATOM     28  C   UNL     1      -4.402 -10.029  12.060  0.00  0.00    +0.008 A 
ATOM     29  C   UNL     1      -2.999  -9.404  10.195  0.00  0.00    +0.008 A 
ATOM     30  C   UNL     1      -5.500  -9.442  11.431  0.00  0.00    +0.038 A 
ATOM     31  C   UNL     1      -4.096  -8.818   9.566  0.00  0.00    +0.038 A 
ATOM     32  C   UNL     1      -5.346  -8.836  10.183  0.00  0.00    +0.123 A 
ENDBRANCH  23  27
ENDBRANCH   8  23
ENDBRANCH  17  19
ENDBRANCH  16  17
ENDBRANCH  11  16
TORSDOF 8
ENDMDL
MODEL 3
REMARK VINA RESULT:      -7.2     19.357     21.627
REMARK  Name = 45360653
REMARK  8 active torsions:
REMARK  status: ('A' for Active; 'I' for Inactive)
REMARK    1  A    between atoms: N_7  and  C_10
REMARK    2  A    between atoms: N_7  and  C_18
REMARK    3  A    between atoms: N_8  and  C_23
REMARK    4  A    between atoms: C_11  and  C_16
REMARK    5  A    between atoms: C_16  and  C_17
REMARK    6  A    between atoms: C_17  and  C_19
REMARK    7  A    between atoms: C_18  and  C_20
REMARK    8  A    between atoms: C_23  and  C_27
REMARK                            x       y       z     vdW  Elec       q    Type
REMARK                         _______ _______ _______ _____ _____    ______ ____
ROOT
ATOM      3  O   UNL     1      -6.762  -8.989   8.441  0.00  0.00    -0.274 OA
ATOM      5  N   UNL     1      -4.968 -10.593  11.186  0.00  0.00    -0.286 NA
ATOM      6  N   UNL     1      -4.579  -8.812   9.053  0.00  0.00    -0.313 N 
ATOM      9  C   UNL     1      -6.053 -10.454  10.206  0.00  0.00    +0.145 C 
ATOM     10  C   UNL     1      -6.795 -10.129  12.494  0.00  0.00    +0.070 C 
ATOM     11  C   UNL     1      -3.630 -10.436  10.627  0.00  0.00    +0.075 C 
ATOM     12  C   UNL     1      -7.303 -10.173  11.053  0.00  0.00    +0.048 C 
ATOM     13  C   UNL     1      -5.324  -9.773  12.342  0.00  0.00    +0.104 C 
ATOM     14  C   UNL     1      -3.481  -9.081   9.952  0.00  0.00    +0.123 C 
ATOM     15  C   UNL     1      -5.838  -9.346   9.179  0.00  0.00    +0.230 C 
ATOM     33  H   UNL     1      -4.443  -8.090   8.351  0.00  0.00    +0.149 HD
ENDROOT
BRANCH  10   7
ATOM      7  N   UNL     1      -7.535  -9.198  13.332  0.00  0.00    -0.308 NA
ATOM     34  H   UNL     1      -7.084  -9.141  14.245  0.00  0.00    +0.123 HD
BRANCH   7  18
ATOM     18  C   UNL     1      -8.912  -9.637  13.514  0.00  0.00    +0.116 C 
BRANCH  18  20
ATOM      1  F   UNL     1     -10.514  -9.369  18.905  0.00  0.00    -0.205 F 
ATOM     20  C   UNL     1      -9.339  -9.566  14.951  0.00  0.00    -0.033 A 
ATOM     21  C   UNL     1      -9.371  -8.336  15.609  0.00  0.00    +0.008 A 
ATOM     22  C   UNL     1      -9.704 -10.729  15.629  0.00  0.00    +0.008 A 
ATOM     24  C   UNL     1      -9.767  -8.270  16.944  0.00  0.00    +0.038 A 
ATOM     25  C   UNL     1     -10.101 -10.662  16.964  0.00  0.00    +0.038 A 
ATOM     26  C   UNL     1     -10.132  -9.433  17.622  0.00  0.00    +0.123 A 
ENDBRANCH  18  20
ENDBRANCH   7  18
ENDBRANCH  10   7
BRANCH  11  16
ATOM     16  C   UNL     1      -2.526 -10.658  11.662  0.00  0.00    +0.029 C 
BRANCH  16  17
ATOM     17  C   UNL     1      -2.578 -12.070  12.229  0.00  0.00    +0.097 C 
BRANCH  17  19
ATOM      4  O   UNL     1      -1.694 -13.055  14.256  0.00  0.00    -0.276 OA
ATOM      8  N   UNL     1      -2.646 -10.940  14.351  0.00  0.00    -0.311 N 
ATOM     19  C   UNL     1      -2.246 -12.104  13.710  0.00  0.00    +0.213 C 
ATOM     35  H   UNL     1      -3.124 -10.211  13.830  0.00  0.00    +0.149 HD
BRANCH   8  23
ATOM     23  C   UNL     1      -2.442 -10.729  15.764  0.00  0.00    +0.139 C 
BRANCH  23  27
ATOM      2  F   UNL     1      -7.308 -10.578  18.593  0.00  0.00    -0.205 F 
ATOM     27  C   UNL     1      -3.740 -10.689  16.519  0.00  0.00    -0.030 A 
ATOM     28  C   UNL     1      -3.842 -11.307  17.765  0.00  0.00    +0.008 A 
ATOM     29  C   UNL     1      -4.844 -10.033  15.974  0.00  0.00    +0.008 A 
ATOM     30  C   UNL     1      -5.047 -11.271  18.466  0.00  0.00    +0.038 A 
ATOM     31  C   UNL     1      -6.049  -9.996  16.674  0.00  0.00    +0.038 A 
ATOM     32  C   UNL     1      -6.151 -10.614  17.920  0.00  0.00    +0.123 A 
ENDBRANCH  23  27
ENDBRANCH   8  23
ENDBRANCH  17  19
ENDBRANCH  16  17
ENDBRANCH  11  16
TORSDOF 8
ENDMDL
MODEL 4
REMARK VINA RESULT:      -7.1      2.449     10.313
REMARK  Name = 45360653
REMARK  8 active torsions:
REMARK  status: ('A' for Active; 'I' for Inactive)
REMARK    1  A    between atoms: N_7  and  C_10
REMARK    2  A    between atoms: N_7  and  C_18
REMARK    3  A    between atoms: N_8  and  C_23
REMARK    4  A    between atoms: C_11  and  C_16
REMARK    5  A    between atoms: C_16  and  C_17
REMARK    6  A    between atoms: C_17  and  C_19
REMARK    7  A    between atoms: C_18  and  C_20
REMARK    8  A    between atoms: C_23  and  C_27
REMARK                            x       y       z     vdW  Elec       q    Type
REMARK                         _______ _______ _______ _____ _____    ______ ____
ROOT
ATOM      3  O   UNL     1     -18.581   1.230  23.372  0.00  0.00    -0.274 OA
ATOM      5  N   UNL     1     -16.185   3.934  23.889  0.00  0.00    -0.286 NA
ATOM      6  N   UNL     1     -18.598   3.360  22.576  0.00  0.00    -0.313 N 
ATOM      9  C   UNL     1     -16.622   2.533  23.845  0.00  0.00    +0.145 C 
ATOM     10  C   UNL     1     -16.125   3.301  26.094  0.00  0.00    +0.070 C 
ATOM     11  C   UNL     1     -16.559   4.717  22.717  0.00  0.00    +0.075 C 
ATOM     12  C   UNL     1     -16.563   2.065  25.307  0.00  0.00    +0.048 C 
ATOM     13  C   UNL     1     -16.551   4.458  25.203  0.00  0.00    +0.104 C 
ATOM     14  C   UNL     1     -18.066   4.702  22.515  0.00  0.00    +0.123 C 
ATOM     15  C   UNL     1     -18.019   2.324  23.268  0.00  0.00    +0.230 C 
ATOM     33  H   UNL     1     -19.519   3.202  22.179  0.00  0.00    +0.149 HD
ENDROOT
BRANCH  10   7
ATOM      7  N   UNL     1     -16.694   3.356  27.431  0.00  0.00    -0.308 NA
ATOM     34  H   UNL     1     -16.164   4.024  27.991  0.00  0.00    +0.123 HD
BRANCH   7  18
ATOM     18  C   UNL     1     -16.640   2.052  28.079  0.00  0.00    +0.116 C 
BRANCH  18  20
ATOM      1  F   UNL     1     -13.129   2.028  32.481  0.00  0.00    -0.205 F 
ATOM     20  C   UNL     1     -15.704   2.046  29.252  0.00  0.00    -0.033 A 
ATOM     21  C   UNL     1     -15.624   0.922  30.075  0.00  0.00    +0.008 A 
ATOM     22  C   UNL     1     -14.914   3.164  29.521  0.00  0.00    +0.008 A 
ATOM     24  C   UNL     1     -14.756   0.916  31.165  0.00  0.00    +0.038 A 
ATOM     25  C   UNL     1     -14.044   3.157  30.611  0.00  0.00    +0.038 A 
ATOM     26  C   UNL     1     -13.966   2.034  31.434  0.00  0.00    +0.123 A 
ENDBRANCH  18  20
ENDBRANCH   7  18
ENDBRANCH  10   7
BRANCH  11  16
ATOM     16  C   UNL     1     -16.026   6.150  22.766  0.00  0.00    +0.029 C 
BRANCH  16  17
ATOM     17  C   UNL     1     -15.328   6.523  21.467  0.00  0.00    +0.097 C 
BRANCH  17  19
ATOM      4  O   UNL     1     -13.342   5.263  22.041  0.00  0.00    -0.276 OA
ATOM      8  N   UNL     1     -13.112   7.288  20.930  0.00  0.00    -0.311 N 
ATOM     19  C   UNL     1     -13.833   6.263  21.525  0.00  0.00    +0.213 C 
ATOM     35  H   UNL     1     -13.596   8.096  20.551  0.00  0.00    +0.149 HD
BRANCH   8  23
ATOM     23  C   UNL     1     -11.670   7.275  20.858  0.00  0.00    +0.139 C 
BRANCH  23  27
ATOM      2  F   UNL     1      -9.765   9.950  16.285  0.00  0.00    -0.205 F 
ATOM     27  C   UNL     1     -11.162   7.989  19.638  0.00  0.00    -0.030 A 
ATOM     28  C   UNL     1     -10.653   9.282  19.748  0.00  0.00    +0.008 A 
ATOM     29  C   UNL     1     -11.199   7.358  18.395  0.00  0.00    +0.008 A 
ATOM     30  C   UNL     1     -10.181   9.946  18.616  0.00  0.00    +0.038 A 
ATOM     31  C   UNL     1     -10.729   8.021  17.262  0.00  0.00    +0.038 A 
ATOM     32  C   UNL     1     -10.219   9.314  17.372  0.00  0.00    +0.123 A 
ENDBRANCH  23  27
ENDBRANCH   8  23
ENDBRANCH  17  19
ENDBRANCH  16  17
ENDBRANCH  11  16
TORSDOF 8
ENDMDL
MODEL 5
REMARK VINA RESULT:      -7.1     18.664     21.731
REMARK  Name = 45360653
REMARK  8 active torsions:
REMARK  status: ('A' for Active; 'I' for Inactive)
REMARK    1  A    between atoms: N_7  and  C_10
REMARK    2  A    between atoms: N_7  and  C_18
REMARK    3  A    between atoms: N_8  and  C_23
REMARK    4  A    between atoms: C_11  and  C_16
REMARK    5  A    between atoms: C_16  and  C_17
REMARK    6  A    between atoms: C_17  and  C_19
REMARK    7  A    between atoms: C_18  and  C_20
REMARK    8  A    between atoms: C_23  and  C_27
REMARK                            x       y       z     vdW  Elec       q    Type
REMARK                         _______ _______ _______ _____ _____    ______ ____
ROOT
ATOM      3  O   UNL     1      -7.563 -12.676  19.532  0.00  0.00    -0.274 OA
ATOM      5  N   UNL     1      -5.419 -10.579  17.451  0.00  0.00    -0.286 NA
ATOM      6  N   UNL     1      -6.047 -13.269  17.945  0.00  0.00    -0.313 N 
ATOM      9  C   UNL     1      -6.254 -10.882  18.621  0.00  0.00    +0.145 C 
ATOM     10  C   UNL     1      -7.240  -9.213  17.159  0.00  0.00    +0.070 C 
ATOM     11  C   UNL     1      -4.435 -11.607  17.133  0.00  0.00    +0.075 C 
ATOM     12  C   UNL     1      -7.473  -9.958  18.473  0.00  0.00    +0.048 C 
ATOM     13  C   UNL     1      -6.316 -10.140  16.384  0.00  0.00    +0.104 C 
ATOM     14  C   UNL     1      -5.112 -12.947  16.891  0.00  0.00    +0.123 C 
ATOM     15  C   UNL     1      -6.693 -12.340  18.723  0.00  0.00    +0.230 C 
ATOM     33  H   UNL     1      -6.333 -14.239  18.036  0.00  0.00    +0.149 HD
ENDROOT
BRANCH  10   7
ATOM      7  N   UNL     1      -8.473  -8.901  16.454  0.00  0.00    -0.308 NA
ATOM     34  H   UNL     1      -8.287  -8.173  15.763  0.00  0.00    +0.123 HD
BRANCH   7  18
ATOM     18  C   UNL     1      -9.497  -8.424  17.375  0.00  0.00    +0.116 C 
BRANCH  18  20
ATOM      1  F   UNL     1     -13.767  -5.935  14.678  0.00  0.00    -0.205 F 
ATOM     20  C   UNL     1     -10.635  -7.760  16.656  0.00  0.00    -0.033 A 
ATOM     21  C   UNL     1     -11.897  -8.356  16.648  0.00  0.00    +0.008 A 
ATOM     22  C   UNL     1     -10.431  -6.549  15.995  0.00  0.00    +0.008 A 
ATOM     24  C   UNL     1     -12.954  -7.740  15.979  0.00  0.00    +0.038 A 
ATOM     25  C   UNL     1     -11.489  -5.933  15.327  0.00  0.00    +0.038 A 
ATOM     26  C   UNL     1     -12.750  -6.528  15.319  0.00  0.00    +0.123 A 
ENDBRANCH  18  20
ENDBRANCH   7  18
ENDBRANCH  10   7
BRANCH  11  16
ATOM     16  C   UNL     1      -3.537 -11.225  15.956  0.00  0.00    +0.029 C 
BRANCH  16  17
ATOM     17  C   UNL     1      -3.344 -12.398  15.006  0.00  0.00    +0.097 C 
BRANCH  17  19
ATOM      4  O   UNL     1      -1.425 -12.701  13.562  0.00  0.00    -0.276 OA
ATOM      8  N   UNL     1      -2.867 -10.924  13.167  0.00  0.00    -0.311 N 
ATOM     19  C   UNL     1      -2.428 -12.052  13.846  0.00  0.00    +0.213 C 
ATOM     35  H   UNL     1      -3.692 -10.428  13.487  0.00  0.00    +0.149 HD
BRANCH   8  23
ATOM     23  C   UNL     1      -2.164 -10.391  12.024  0.00  0.00    +0.139 C 
BRANCH  23  27
ATOM      2  F   UNL     1      -5.560  -9.736   7.582  0.00  0.00    -0.205 F 
ATOM     27  C   UNL     1      -3.070 -10.216  10.840  0.00  0.00    -0.030 A 
ATOM     28  C   UNL     1      -3.731 -11.319  10.298  0.00  0.00    +0.008 A 
ATOM     29  C   UNL     1      -3.251  -8.951  10.280  0.00  0.00    +0.008 A 
ATOM     30  C   UNL     1      -4.572 -11.157   9.197  0.00  0.00    +0.038 A 
ATOM     31  C   UNL     1      -4.091  -8.789   9.179  0.00  0.00    +0.038 A 
ATOM     32  C   UNL     1      -4.752  -9.891   8.638  0.00  0.00    +0.123 A 
ENDBRANCH  23  27
ENDBRANCH   8  23
ENDBRANCH  17  19
ENDBRANCH  16  17
ENDBRANCH  11  16
TORSDOF 8
ENDMDL
MODEL 6
REMARK VINA RESULT:      -7.0     31.860     35.808
REMARK  Name = 45360653
REMARK  8 active torsions:
REMARK  status: ('A' for Active; 'I' for Inactive)
REMARK    1  A    between atoms: N_7  and  C_10
REMARK    2  A    between atoms: N_7  and  C_18
REMARK    3  A    between atoms: N_8  and  C_23
REMARK    4  A    between atoms: C_11  and  C_16
REMARK    5  A    between atoms: C_16  and  C_17
REMARK    6  A    between atoms: C_17  and  C_19
REMARK    7  A    between atoms: C_18  and  C_20
REMARK    8  A    between atoms: C_23  and  C_27
REMARK                            x       y       z     vdW  Elec       q    Type
REMARK                         _______ _______ _______ _____ _____    ______ ____
ROOT
ATOM      3  O   UNL     1      16.253   9.361   6.358  0.00  0.00    -0.274 OA
ATOM      5  N   UNL     1      12.643   8.823   6.285  0.00  0.00    -0.286 NA
ATOM      6  N   UNL     1      14.559  10.784   6.881  0.00  0.00    -0.313 N 
ATOM      9  C   UNL     1      14.050   8.407   6.348  0.00  0.00    +0.145 C 
ATOM     10  C   UNL     1      12.962   7.758   4.278  0.00  0.00    +0.070 C 
ATOM     11  C   UNL     1      12.294   9.900   7.204  0.00  0.00    +0.075 C 
ATOM     12  C   UNL     1      14.290   7.660   5.028  0.00  0.00    +0.048 C 
ATOM     13  C   UNL     1      12.308   8.996   4.874  0.00  0.00    +0.104 C 
ATOM     14  C   UNL     1      13.157  11.127   6.953  0.00  0.00    +0.123 C 
ATOM     15  C   UNL     1      15.042   9.556   6.506  0.00  0.00    +0.230 C 
ATOM     33  H   UNL     1      15.231  11.536   7.003  0.00  0.00    +0.149 HD
ENDROOT
BRANCH  10   7
ATOM      7  N   UNL     1      13.125   7.826   2.834  0.00  0.00    -0.308 NA
ATOM     34  H   UNL     1      12.298   7.432   2.386  0.00  0.00    +0.123 HD
BRANCH   7  18
ATOM     18  C   UNL     1      14.297   7.073   2.403  0.00  0.00    +0.116 C 
BRANCH  18  20
ATOM      1  F   UNL     1      12.899   2.614  -0.737  0.00  0.00    -0.205 F 
ATOM     20  C   UNL     1      13.925   5.884   1.566  0.00  0.00    -0.033 A 
ATOM     21  C   UNL     1      13.008   6.025   0.524  0.00  0.00    +0.008 A 
ATOM     22  C   UNL     1      14.495   4.638   1.831  0.00  0.00    +0.008 A 
ATOM     24  C   UNL     1      12.661   4.920  -0.253  0.00  0.00    +0.038 A 
ATOM     25  C   UNL     1      14.148   3.534   1.053  0.00  0.00    +0.038 A 
ATOM     26  C   UNL     1      13.231   3.675   0.012  0.00  0.00    +0.123 A 
ENDBRANCH  18  20
ENDBRANCH   7  18
ENDBRANCH  10   7
BRANCH  11  16
ATOM     16  C   UNL     1      10.807  10.257   7.161  0.00  0.00    +0.029 C 
BRANCH  16  17
ATOM     17  C   UNL     1      10.022   9.473   8.203  0.00  0.00    +0.097 C 
BRANCH  17  19
ATOM      4  O   UNL     1       8.553   7.549   8.214  0.00  0.00    -0.276 OA
ATOM      8  N   UNL     1       9.021   8.600   6.198  0.00  0.00    -0.311 N 
ATOM     19  C   UNL     1       9.118   8.429   7.571  0.00  0.00    +0.213 C 
ATOM     35  H   UNL     1       9.546   9.338   5.739  0.00  0.00    +0.149 HD
BRANCH   8  23
ATOM     23  C   UNL     1       8.219   7.732   5.368  0.00  0.00    +0.139 C 
BRANCH  23  27
ATOM      2  F   UNL     1      11.342   3.841   2.759  0.00  0.00    -0.205 F 
ATOM     27  C   UNL     1       9.052   6.695   4.672  0.00  0.00    -0.030 A 
ATOM     28  C   UNL     1       9.479   5.563   5.366  0.00  0.00    +0.008 A 
ATOM     29  C   UNL     1       9.398   6.861   3.331  0.00  0.00    +0.008 A 
ATOM     30  C   UNL     1      10.254   4.599   4.721  0.00  0.00    +0.038 A 
ATOM     31  C   UNL     1      10.172   5.899   2.685  0.00  0.00    +0.038 A 
ATOM     32  C   UNL     1      10.600   4.767   3.379  0.00  0.00    +0.123 A 
ENDBRANCH  23  27
ENDBRANCH   8  23
ENDBRANCH  17  19
ENDBRANCH  16  17
ENDBRANCH  11  16
TORSDOF 8
ENDMDL
MODEL 7
REMARK VINA RESULT:      -6.9     20.102     22.053
REMARK  Name = 45360653
REMARK  8 active torsions:
REMARK  status: ('A' for Active; 'I' for Inactive)
REMARK    1  A    between atoms: N_7  and  C_10
REMARK    2  A    between atoms: N_7  and  C_18
REMARK    3  A    between atoms: N_8  and  C_23
REMARK    4  A    between atoms: C_11  and  C_16
REMARK    5  A    between atoms: C_16  and  C_17
REMARK    6  A    between atoms: C_17  and  C_19
REMARK    7  A    between atoms: C_18  and  C_20
REMARK    8  A    between atoms: C_23  and  C_27
REMARK                            x       y       z     vdW  Elec       q    Type
REMARK                         _______ _______ _______ _____ _____    ______ ____
ROOT
ATOM      3  O   UNL     1      -7.024 -12.507  10.825  0.00  0.00    -0.274 OA
ATOM      5  N   UNL     1      -4.283 -10.298  11.789  0.00  0.00    -0.286 NA
ATOM      6  N   UNL     1      -4.786 -12.905  10.881  0.00  0.00    -0.313 N 
ATOM      9  C   UNL     1      -5.678 -10.755  11.764  0.00  0.00    +0.145 C 
ATOM     10  C   UNL     1      -5.348  -8.651  10.599  0.00  0.00    +0.070 C 
ATOM     11  C   UNL     1      -3.312 -11.349  12.073  0.00  0.00    +0.075 C 
ATOM     12  C   UNL     1      -6.429  -9.655  10.998  0.00  0.00    +0.048 C 
ATOM     13  C   UNL     1      -4.074  -9.483  10.595  0.00  0.00    +0.104 C 
ATOM     14  C   UNL     1      -3.418 -12.474  11.055  0.00  0.00    +0.123 C 
ATOM     15  C   UNL     1      -5.886 -12.113  11.099  0.00  0.00    +0.230 C 
ATOM     33  H   UNL     1      -4.939 -13.815  10.457  0.00  0.00    +0.149 HD
ENDROOT
BRANCH  10   7
ATOM      7  N   UNL     1      -5.618  -7.997   9.328  0.00  0.00    -0.308 NA
ATOM     34  H   UNL     1      -6.109  -7.120   9.502  0.00  0.00    +0.123 HD
BRANCH   7  18
ATOM     18  C   UNL     1      -6.445  -8.838   8.471  0.00  0.00    +0.116 C 
BRANCH  18  20
ATOM      1  F   UNL     1     -11.168  -6.220   6.875  0.00  0.00    -0.205 F 
ATOM     20  C   UNL     1      -7.704  -8.139   8.046  0.00  0.00    -0.033 A 
ATOM     21  C   UNL     1      -8.707  -8.851   7.388  0.00  0.00    +0.008 A 
ATOM     22  C   UNL     1      -7.870  -6.779   8.308  0.00  0.00    +0.008 A 
ATOM     24  C   UNL     1      -9.877  -8.203   6.992  0.00  0.00    +0.038 A 
ATOM     25  C   UNL     1      -9.040  -6.132   7.913  0.00  0.00    +0.038 A 
ATOM     26  C   UNL     1     -10.043  -6.843   7.254  0.00  0.00    +0.123 A 
ENDBRANCH  18  20
ENDBRANCH   7  18
ENDBRANCH  10   7
BRANCH  11  16
ATOM     16  C   UNL     1      -1.878 -10.824  12.163  0.00  0.00    +0.029 C 
BRANCH  16  17
ATOM     17  C   UNL     1      -1.678  -9.978  13.413  0.00  0.00    +0.097 C 
BRANCH  17  19
ATOM      4  O   UNL     1      -1.234 -11.763  14.986  0.00  0.00    -0.276 OA
ATOM      8  N   UNL     1      -2.934 -10.251  15.445  0.00  0.00    -0.311 N 
ATOM     19  C   UNL     1      -1.899 -10.777  14.685  0.00  0.00    +0.213 C 
ATOM     35  H   UNL     1      -3.454  -9.447  15.108  0.00  0.00    +0.149 HD
BRANCH   8  23
ATOM     23  C   UNL     1      -3.340 -10.834  16.702  0.00  0.00    +0.139 C 
BRANCH  23  27
ATOM      2  F   UNL     1      -8.622  -9.439  18.063  0.00  0.00    -0.205 F 
ATOM     27  C   UNL     1      -4.749 -10.462  17.065  0.00  0.00    -0.030 A 
ATOM     28  C   UNL     1      -5.564  -9.822  16.132  0.00  0.00    +0.008 A 
ATOM     29  C   UNL     1      -5.243 -10.757  18.336  0.00  0.00    +0.008 A 
ATOM     30  C   UNL     1      -6.872  -9.476  16.468  0.00  0.00    +0.038 A 
ATOM     31  C   UNL     1      -6.551 -10.410  18.673  0.00  0.00    +0.038 A 
ATOM     32  C   UNL     1      -7.366  -9.770  17.740  0.00  0.00    +0.123 A 
ENDBRANCH  23  27
ENDBRANCH   8  23
ENDBRANCH  17  19
ENDBRANCH  16  17
ENDBRANCH  11  16
TORSDOF 8
ENDMDL
MODEL 8
REMARK VINA RESULT:      -6.8     20.747     24.297
REMARK  Name = 45360653
REMARK  8 active torsions:
REMARK  status: ('A' for Active; 'I' for Inactive)
REMARK    1  A    between atoms: N_7  and  C_10
REMARK    2  A    between atoms: N_7  and  C_18
REMARK    3  A    between atoms: N_8  and  C_23
REMARK    4  A    between atoms: C_11  and  C_16
REMARK    5  A    between atoms: C_16  and  C_17
REMARK    6  A    between atoms: C_17  and  C_19
REMARK    7  A    between atoms: C_18  and  C_20
REMARK    8  A    between atoms: C_23  and  C_27
REMARK                            x       y       z     vdW  Elec       q    Type
REMARK                         _______ _______ _______ _____ _____    ______ ____
ROOT
ATOM      3  O   UNL     1      -3.615 -14.450  13.441  0.00  0.00    -0.274 OA
ATOM      5  N   UNL     1      -2.559 -11.290  11.949  0.00  0.00    -0.286 NA
ATOM      6  N   UNL     1      -4.605 -13.206  11.816  0.00  0.00    -0.313 N 
ATOM      9  C   UNL     1      -2.361 -12.554  12.672  0.00  0.00    +0.145 C 
ATOM     10  C   UNL     1      -2.038 -10.598  14.074  0.00  0.00    +0.070 C 
ATOM     11  C   UNL     1      -3.333 -11.417  10.720  0.00  0.00    +0.075 C 
ATOM     12  C   UNL     1      -1.978 -12.125  14.097  0.00  0.00    +0.048 C 
ATOM     13  C   UNL     1      -2.993 -10.297  12.929  0.00  0.00    +0.104 C 
ATOM     14  C   UNL     1      -4.702 -12.015  11.002  0.00  0.00    +0.123 C 
ATOM     15  C   UNL     1      -3.583 -13.467  12.694  0.00  0.00    +0.230 C 
ATOM     33  H   UNL     1      -5.404 -13.833  11.825  0.00  0.00    +0.149 HD
ENDROOT
BRANCH  10   7
ATOM      7  N   UNL     1      -2.455 -10.024  15.344  0.00  0.00    -0.308 NA
ATOM     34  H   UNL     1      -1.763  -9.338  15.643  0.00  0.00    +0.123 HD
BRANCH   7  18
ATOM     18  C   UNL     1      -2.573 -11.053  16.370  0.00  0.00    +0.116 C 
BRANCH  18  20
ATOM      1  F   UNL     1      -7.452 -10.703  19.158  0.00  0.00    -0.205 F 
ATOM     20  C   UNL     1      -3.874 -10.959  17.113  0.00  0.00    -0.033 A 
ATOM     21  C   UNL     1      -4.024 -11.606  18.340  0.00  0.00    +0.008 A 
ATOM     22  C   UNL     1      -4.933 -10.226  16.576  0.00  0.00    +0.008 A 
ATOM     24  C   UNL     1      -5.233 -11.520  19.030  0.00  0.00    +0.038 A 
ATOM     25  C   UNL     1      -6.141 -10.139  17.267  0.00  0.00    +0.038 A 
ATOM     26  C   UNL     1      -6.291 -10.787  18.493  0.00  0.00    +0.123 A 
ENDBRANCH  18  20
ENDBRANCH   7  18
ENDBRANCH  10   7
BRANCH  11  16
ATOM     16  C   UNL     1      -3.457 -10.097   9.959  0.00  0.00    +0.029 C 
BRANCH  16  17
ATOM     17  C   UNL     1      -4.780 -10.014   9.210  0.00  0.00    +0.097 C 
BRANCH  17  19
ATOM      4  O   UNL     1      -5.350  -8.072  10.537  0.00  0.00    -0.276 OA
ATOM      8  N   UNL     1      -6.440  -8.419   8.517  0.00  0.00    -0.311 N 
ATOM     19  C   UNL     1      -5.533  -8.733   9.519  0.00  0.00    +0.213 C 
ATOM     35  H   UNL     1      -6.550  -9.037   7.719  0.00  0.00    +0.149 HD
BRANCH   8  23
ATOM     23  C   UNL     1      -7.280  -7.246   8.578  0.00  0.00    +0.139 C 
BRANCH  23  27
ATOM      2  F   UNL     1     -10.999  -7.100   4.354  0.00  0.00    -0.205 F 
ATOM     27  C   UNL     1      -8.272  -7.207   7.451  0.00  0.00    -0.030 A 
ATOM     28  C   UNL     1      -7.917  -7.691   6.192  0.00  0.00    +0.008 A 
ATOM     29  C   UNL     1      -9.549  -6.687   7.663  0.00  0.00    +0.008 A 
ATOM     30  C   UNL     1      -8.838  -7.655   5.145  0.00  0.00    +0.038 A 
ATOM     31  C   UNL     1     -10.470  -6.650   6.617  0.00  0.00    +0.038 A 
ATOM     32  C   UNL     1     -10.115  -7.134   5.358  0.00  0.00    +0.123 A 
ENDBRANCH  23  27
ENDBRANCH   8  23
ENDBRANCH  17  19
ENDBRANCH  16  17
ENDBRANCH  11  16
TORSDOF 8
ENDMDL
MODEL 9
REMARK VINA RESULT:      -6.8     22.286     25.771
REMARK  Name = 45360653
REMARK  8 active torsions:
REMARK  status: ('A' for Active; 'I' for Inactive)
REMARK    1  A    between atoms: N_7  and  C_10
REMARK    2  A    between atoms: N_7  and  C_18
REMARK    3  A    between atoms: N_8  and  C_23
REMARK    4  A    between atoms: C_11  and  C_16
REMARK    5  A    between atoms: C_16  and  C_17
REMARK    6  A    between atoms: C_17  and  C_19
REMARK    7  A    between atoms: C_18  and  C_20
REMARK    8  A    between atoms: C_23  and  C_27
REMARK                            x       y       z     vdW  Elec       q    Type
REMARK                         _______ _______ _______ _____ _____    ______ ____
ROOT
ATOM      3  O   UNL     1      -3.117 -14.913  12.540  0.00  0.00    -0.274 OA
ATOM      5  N   UNL     1      -2.522 -11.314  12.419  0.00  0.00    -0.286 NA
ATOM      6  N   UNL     1      -4.352 -13.266  11.575  0.00  0.00    -0.313 N 
ATOM      9  C   UNL     1      -2.135 -12.723  12.569  0.00  0.00    +0.145 C 
ATOM     10  C   UNL     1      -1.926 -11.458  14.630  0.00  0.00    +0.070 C 
ATOM     11  C   UNL     1      -3.365 -11.042  11.261  0.00  0.00    +0.075 C 
ATOM     12  C   UNL     1      -1.699 -12.848  14.036  0.00  0.00    +0.048 C 
ATOM     13  C   UNL     1      -2.989 -10.854  13.725  0.00  0.00    +0.104 C 
ATOM     14  C   UNL     1      -4.637 -11.874  11.310  0.00  0.00    +0.123 C 
ATOM     15  C   UNL     1      -3.246 -13.720  12.250  0.00  0.00    +0.230 C 
ATOM     33  H   UNL     1      -5.075 -13.942  11.349  0.00  0.00    +0.149 HD
ENDROOT
BRANCH  10   7
ATOM      7  N   UNL     1      -2.310 -11.492  16.033  0.00  0.00    -0.308 NA
ATOM     34  H   UNL     1      -2.777 -12.377  16.229  0.00  0.00    +0.123 HD
BRANCH   7  18
ATOM     18  C   UNL     1      -3.219 -10.399  16.355  0.00  0.00    +0.116 C 
BRANCH  18  20
ATOM      1  F   UNL     1      -7.103 -11.932  20.132  0.00  0.00    -0.205 F 
ATOM     20  C   UNL     1      -4.255 -10.808  17.362  0.00  0.00    -0.033 A 
ATOM     21  C   UNL     1      -3.903 -11.637  18.426  0.00  0.00    +0.008 A 
ATOM     22  C   UNL     1      -5.569 -10.358  17.232  0.00  0.00    +0.008 A 
ATOM     24  C   UNL     1      -4.865 -12.018  19.361  0.00  0.00    +0.038 A 
ATOM     25  C   UNL     1      -6.530 -10.738  18.168  0.00  0.00    +0.038 A 
ATOM     26  C   UNL     1      -6.179 -11.568  19.232  0.00  0.00    +0.123 A 
ENDBRANCH  18  20
ENDBRANCH   7  18
ENDBRANCH  10   7
BRANCH  11  16
ATOM     16  C   UNL     1      -3.687  -9.556  11.097  0.00  0.00    +0.029 C 
BRANCH  16  17
ATOM     17  C   UNL     1      -3.600  -9.131   9.638  0.00  0.00    +0.097 C 
BRANCH  17  19
ATOM      4  O   UNL     1      -5.934  -8.543   9.388  0.00  0.00    -0.276 OA
ATOM      8  N   UNL     1      -4.940  -9.914   7.802  0.00  0.00    -0.311 N 
ATOM     19  C   UNL     1      -4.956  -9.144   8.956  0.00  0.00    +0.213 C 
ATOM     35  H   UNL     1      -4.093 -10.404   7.530  0.00  0.00    +0.149 HD
BRANCH   8  23
ATOM     23  C   UNL     1      -6.110 -10.086   6.974  0.00  0.00    +0.139 C 
BRANCH  23  27
ATOM      2  F   UNL     1      -4.972 -13.020   2.305  0.00  0.00    -0.205 F 
ATOM     27  C   UNL     1      -5.806 -10.868   5.728  0.00  0.00    -0.030 A 
ATOM     28  C   UNL     1      -4.607 -11.573   5.622  0.00  0.00    +0.008 A 
ATOM     29  C   UNL     1      -6.724 -10.892   4.678  0.00  0.00    +0.008 A 
ATOM     30  C   UNL     1      -4.325 -12.300   4.466  0.00  0.00    +0.038 A 
ATOM     31  C   UNL     1      -6.442 -11.617   3.521  0.00  0.00    +0.038 A 
ATOM     32  C   UNL     1      -5.243 -12.322   3.415  0.00  0.00    +0.123 A 
ENDBRANCH  23  27
ENDBRANCH   8  23
ENDBRANCH  17  19
ENDBRANCH  16  17
ENDBRANCH  11  16
TORSDOF 8
ENDMDL
MODEL 10
REMARK VINA RESULT:      -6.7     18.108     21.411
REMARK  Name = 45360653
REMARK  8 active torsions:
REMARK  status: ('A' for Active; 'I' for Inactive)
REMARK    1  A    between atoms: N_7  and  C_10
REMARK    2  A    between atoms: N_7  and  C_18
REMARK    3  A    between atoms: N_8  and  C_23
REMARK    4  A    between atoms: C_11  and  C_16
REMARK    5  A    between atoms: C_16  and  C_17
REMARK    6  A    between atoms: C_17  and  C_19
REMARK    7  A    between atoms: C_18  and  C_20
REMARK    8  A    between atoms: C_23  and  C_27
REMARK                            x       y       z     vdW  Elec       q    Type
REMARK                         _______ _______ _______ _____ _____    ______ ____
ROOT
ATOM      3  O   UNL     1      -9.868 -12.089  15.310  0.00  0.00    -0.274 OA
ATOM      5  N   UNL     1      -6.891 -11.388  17.303  0.00  0.00    -0.286 NA
ATOM      6  N   UNL     1      -8.129 -10.688  14.884  0.00  0.00    -0.313 N 
ATOM      9  C   UNL     1      -8.047 -12.185  16.871  0.00  0.00    +0.145 C 
ATOM     10  C   UNL     1      -8.274 -11.332  19.133  0.00  0.00    +0.070 C 
ATOM     11  C   UNL     1      -6.073 -10.876  16.209  0.00  0.00    +0.075 C 
ATOM     12  C   UNL     1      -8.984 -12.195  18.089  0.00  0.00    +0.048 C 
ATOM     13  C   UNL     1      -7.373 -10.434  18.298  0.00  0.00    +0.104 C 
ATOM     14  C   UNL     1      -6.905 -10.021  15.266  0.00  0.00    +0.123 C 
ATOM     15  C   UNL     1      -8.767 -11.638  15.642  0.00  0.00    +0.230 C 
ATOM     33  H   UNL     1      -8.609 -10.347  14.056  0.00  0.00    +0.149 HD
ENDROOT
BRANCH  10   7
ATOM      7  N   UNL     1      -9.194 -10.598  19.987  0.00  0.00    -0.308 NA
ATOM     34  H   UNL     1      -9.450 -11.184  20.782  0.00  0.00    +0.123 HD
BRANCH   7  18
ATOM     18  C   UNL     1     -10.405 -10.235  19.263  0.00  0.00    +0.116 C 
BRANCH  18  20
ATOM      1  F   UNL     1     -15.060 -11.722  22.059  0.00  0.00    -0.205 F 
ATOM     20  C   UNL     1     -11.647 -10.631  20.008  0.00  0.00    -0.033 A 
ATOM     21  C   UNL     1     -11.765 -11.919  20.529  0.00  0.00    +0.008 A 
ATOM     22  C   UNL     1     -12.681  -9.711  20.179  0.00  0.00    +0.008 A 
ATOM     24  C   UNL     1     -12.918 -12.289  21.221  0.00  0.00    +0.038 A 
ATOM     25  C   UNL     1     -13.834 -10.080  20.872  0.00  0.00    +0.038 A 
ATOM     26  C   UNL     1     -13.953 -11.368  21.392  0.00  0.00    +0.123 A 
ENDBRANCH  18  20
ENDBRANCH   7  18
ENDBRANCH  10   7
BRANCH  11  16
ATOM     16  C   UNL     1      -4.840 -10.114  16.698  0.00  0.00    +0.029 C 
BRANCH  16  17
ATOM     17  C   UNL     1      -3.668 -11.055  16.932  0.00  0.00    +0.097 C 
BRANCH  17  19
ATOM      4  O   UNL     1      -1.398 -10.850  16.117  0.00  0.00    -0.276 OA
ATOM      8  N   UNL     1      -3.148 -10.860  14.592  0.00  0.00    -0.311 N 
ATOM     19  C   UNL     1      -2.597 -10.912  15.865  0.00  0.00    +0.213 C 
ATOM     35  H   UNL     1      -4.155 -10.889  14.473  0.00  0.00    +0.149 HD
BRANCH   8  23
ATOM     23  C   UNL     1      -2.335 -10.725  13.406  0.00  0.00    +0.139 C 
BRANCH  23  27
ATOM      2  F   UNL     1      -5.284  -8.711   9.053  0.00  0.00    -0.205 F 
ATOM     27  C   UNL     1      -3.122 -10.188  12.245  0.00  0.00    -0.030 A 
ATOM     28  C   UNL     1      -2.463  -9.774  11.088  0.00  0.00    +0.008 A 
ATOM     29  C   UNL     1      -4.512 -10.103  12.323  0.00  0.00    +0.008 A 
ATOM     30  C   UNL     1      -3.192  -9.274  10.009  0.00  0.00    +0.038 A 
ATOM     31  C   UNL     1      -5.242  -9.603  11.246  0.00  0.00    +0.038 A 
ATOM     32  C   UNL     1      -4.583  -9.189  10.088  0.00  0.00    +0.123 A 
ENDBRANCH  23  27
ENDBRANCH   8  23
ENDBRANCH  17  19
ENDBRANCH  16  17
ENDBRANCH  11  16
TORSDOF 8
ENDMDL
