MODEL 1
REMARK VINA RESULT:      -6.6      0.000      0.000
REMARK  Name = 44716888
REMARK  14 active torsions:
REMARK  status: ('A' for Active; 'I' for Inactive)
REMARK    1  A    between atoms: O_1  and  C_14
REMARK    2  A    between atoms: O_1  and  C_23
REMARK    3  A    between atoms: O_2  and  C_15
REMARK    4  A    between atoms: O_3  and  C_19
REMARK    5  A    between atoms: N_6  and  C_24
REMARK    6  A    between atoms: N_7  and  C_25
REMARK    7  A    between atoms: C_8  and  C_18
REMARK    8  A    between atoms: C_10  and  C_19
REMARK    9  A    between atoms: C_10  and  C_20
REMARK   10  A    between atoms: C_11  and  C_21
REMARK   11  A    between atoms: C_21  and  C_22
REMARK   12  A    between atoms: C_24  and  C_26
REMARK   13  A    between atoms: C_25  and  C_27
REMARK   14  A    between atoms: C_25  and  C_28
REMARK                            x       y       z     vdW  Elec       q    Type
REMARK                         _______ _______ _______ _____ _____    ______ ____
ROOT
ATOM      8  C   UNL     1      14.086   9.347  19.791  0.00  0.00    -0.023 C 
ATOM      9  C   UNL     1      12.899   9.077  18.788  0.00  0.00    +0.007 C 
ATOM     10  C   UNL     1      13.194   9.326  17.259  0.00  0.00    +0.031 C 
ATOM     11  C   UNL     1      13.468   9.343  21.251  0.00  0.00    +0.032 C 
ATOM     12  C   UNL     1      14.676  10.751  19.489  0.00  0.00    +0.011 C 
ATOM     13  C   UNL     1      12.207   7.732  19.100  0.00  0.00    +0.007 C 
ATOM     14  C   UNL     1      13.855  10.728  17.094  0.00  0.00    +0.186 C 
ATOM     15  C   UNL     1      12.686   8.052  21.585  0.00  0.00    +0.119 C 
ATOM     16  C   UNL     1      15.041  10.963  18.025  0.00  0.00    +0.046 C 
ATOM     17  C   UNL     1      11.645   7.713  20.521  0.00  0.00    +0.032 C 
ATOM     18  C   UNL     1      15.233   8.312  19.685  0.00  0.00    +0.012 C 
ATOM     20  C   UNL     1      11.848   9.352  16.478  0.00  0.00    +0.017 C 
ENDROOT
BRANCH  15   2
ATOM      2  O   UNL     1      13.573   6.951  21.758  0.00  0.00    -0.391 OA
ATOM     34  H   UNL     1      14.359   7.276  22.229  0.00  0.00    +0.210 HD
ENDBRANCH  15   2
BRANCH  14   1
ATOM      1  O   UNL     1      14.318  10.944  15.762  0.00  0.00    -0.446 OA
BRANCH   1  23
ATOM      5  O   UNL     1      14.165  13.219  15.484  0.00  0.00    -0.226 OA
ATOM      7  N   UNL     1      13.032  11.743  14.099  0.00  0.00    -0.279 N 
ATOM     23  C   UNL     1      13.864  12.079  15.145  0.00  0.00    +0.401 C 
ATOM     37  H   UNL     1      12.904  10.755  13.896  0.00  0.00    +0.152 HD
BRANCH   7  25
ATOM     25  C   UNL     1      12.386  12.711  13.244  0.00  0.00    +0.070 C 
ATOM     27  C   UNL     1      13.320  13.138  12.119  0.00  0.00    +0.027 C 
ATOM     28  C   UNL     1      11.081  12.148  12.696  0.00  0.00    +0.027 C 
ENDBRANCH   7  25
ENDBRANCH   1  23
ENDBRANCH  14   1
BRANCH  10  19
ATOM     19  C   UNL     1      14.042   8.223  16.593  0.00  0.00    +0.166 C 
BRANCH  19   3
ATOM      3  O   UNL     1      13.874   8.329  15.197  0.00  0.00    -0.394 OA
ATOM     35  H   UNL     1      14.609   8.866  14.856  0.00  0.00    +0.209 HD
ENDBRANCH  19   3
ENDBRANCH  10  19
BRANCH  11  21
ATOM     21  C   UNL     1      14.467   9.655  22.376  0.00  0.00    +0.102 C 
BRANCH  21  22
ATOM      4  O   UNL     1      14.833  11.858  23.309  0.00  0.00    -0.276 OA
ATOM      6  N   UNL     1      12.786  10.803  23.624  0.00  0.00    -0.311 N 
ATOM     22  C   UNL     1      14.084  10.900  23.143  0.00  0.00    +0.214 C 
ATOM     36  H   UNL     1      12.254   9.953  23.463  0.00  0.00    +0.149 HD
BRANCH   6  24
ATOM     24  C   UNL     1      12.152  11.846  24.396  0.00  0.00    +0.139 C 
BRANCH  24  26
ATOM     26  C   UNL     1      11.311  12.749  23.539  0.00  0.00    -0.030 A 
ATOM     29  C   UNL     1      11.537  12.812  22.164  0.00  0.00    +0.005 A 
ATOM     30  C   UNL     1      10.305  13.521  24.118  0.00  0.00    +0.005 A 
ATOM     31  C   UNL     1      10.756  13.650  21.367  0.00  0.00    +0.000 A 
ATOM     32  C   UNL     1       9.524  14.359  23.322  0.00  0.00    +0.000 A 
ATOM     33  C   UNL     1       9.750  14.423  21.946  0.00  0.00    +0.000 A 
ENDBRANCH  24  26
ENDBRANCH   6  24
ENDBRANCH  21  22
ENDBRANCH  11  21
TORSDOF 10
ENDMDL
MODEL 2
REMARK VINA RESULT:      -6.5      3.702      8.317
REMARK  Name = 44716888
REMARK  14 active torsions:
REMARK  status: ('A' for Active; 'I' for Inactive)
REMARK    1  A    between atoms: O_1  and  C_14
REMARK    2  A    between atoms: O_1  and  C_23
REMARK    3  A    between atoms: O_2  and  C_15
REMARK    4  A    between atoms: O_3  and  C_19
REMARK    5  A    between atoms: N_6  and  C_24
REMARK    6  A    between atoms: N_7  and  C_25
REMARK    7  A    between atoms: C_8  and  C_18
REMARK    8  A    between atoms: C_10  and  C_19
REMARK    9  A    between atoms: C_10  and  C_20
REMARK   10  A    between atoms: C_11  and  C_21
REMARK   11  A    between atoms: C_21  and  C_22
REMARK   12  A    between atoms: C_24  and  C_26
REMARK   13  A    between atoms: C_25  and  C_27
REMARK   14  A    between atoms: C_25  and  C_28
REMARK                            x       y       z     vdW  Elec       q    Type
REMARK                         _______ _______ _______ _____ _____    ______ ____
ROOT
ATOM      8  C   UNL     1      13.456   9.343  20.407  0.00  0.00    -0.023 C 
ATOM      9  C   UNL     1      12.377   9.335  21.557  0.00  0.00    +0.007 C 
ATOM     10  C   UNL     1      12.124  10.703  22.299  0.00  0.00    +0.031 C 
ATOM     11  C   UNL     1      13.760   7.829  20.047  0.00  0.00    +0.032 C 
ATOM     12  C   UNL     1      14.750  10.008  20.949  0.00  0.00    +0.011 C 
ATOM     13  C   UNL     1      11.096   8.598  21.107  0.00  0.00    +0.007 C 
ATOM     14  C   UNL     1      13.496  11.309  22.723  0.00  0.00    +0.186 C 
ATOM     15  C   UNL     1      12.496   7.019  19.674  0.00  0.00    +0.119 C 
ATOM     16  C   UNL     1      14.518  11.370  21.592  0.00  0.00    +0.046 C 
ATOM     17  C   UNL     1      11.394   7.149  20.722  0.00  0.00    +0.032 C 
ATOM     18  C   UNL     1      13.011  10.121  19.145  0.00  0.00    +0.012 C 
ATOM     20  C   UNL     1      11.313  10.434  23.600  0.00  0.00    +0.017 C 
ENDROOT
BRANCH  15   2
ATOM      2  O   UNL     1      11.996   7.415  18.400  0.00  0.00    -0.391 OA
ATOM     34  H   UNL     1      12.652   7.153  17.731  0.00  0.00    +0.210 HD
ENDBRANCH  15   2
BRANCH  14   1
ATOM      1  O   UNL     1      13.356  12.633  23.234  0.00  0.00    -0.446 OA
BRANCH   1  23
ATOM      5  O   UNL     1      14.161  12.039  25.302  0.00  0.00    -0.226 OA
ATOM      7  N   UNL     1      12.726  13.840  25.024  0.00  0.00    -0.279 N 
ATOM     23  C   UNL     1      13.478  12.769  24.591  0.00  0.00    +0.401 C 
ATOM     37  H   UNL     1      12.242  14.392  24.321  0.00  0.00    +0.152 HD
BRANCH   7  25
ATOM     25  C   UNL     1      12.637  14.253  26.405  0.00  0.00    +0.070 C 
ATOM     27  C   UNL     1      13.775  15.206  26.752  0.00  0.00    +0.027 C 
ATOM     28  C   UNL     1      11.281  14.887  26.683  0.00  0.00    +0.027 C 
ENDBRANCH   7  25
ENDBRANCH   1  23
ENDBRANCH  14   1
BRANCH  10  19
ATOM     19  C   UNL     1      11.290  11.714  21.487  0.00  0.00    +0.166 C 
BRANCH  19   3
ATOM      3  O   UNL     1      10.526  12.476  22.396  0.00  0.00    -0.394 OA
ATOM     35  H   UNL     1      10.616  13.410  22.140  0.00  0.00    +0.209 HD
ENDBRANCH  19   3
ENDBRANCH  10  19
BRANCH  11  21
ATOM     21  C   UNL     1      14.845   7.623  18.978  0.00  0.00    +0.102 C 
BRANCH  21  22
ATOM      4  O   UNL     1      16.413   5.789  18.794  0.00  0.00    -0.276 OA
ATOM      6  N   UNL     1      16.347   7.053  20.743  0.00  0.00    -0.311 N 
ATOM     22  C   UNL     1      15.947   6.709  19.460  0.00  0.00    +0.214 C 
ATOM     36  H   UNL     1      15.877   7.811  21.228  0.00  0.00    +0.149 HD
BRANCH   6  24
ATOM     24  C   UNL     1      17.384   6.348  21.461  0.00  0.00    +0.139 C 
BRANCH  24  26
ATOM     26  C   UNL     1      18.732   6.981  21.266  0.00  0.00    -0.030 A 
ATOM     29  C   UNL     1      18.930   8.319  21.609  0.00  0.00    +0.005 A 
ATOM     30  C   UNL     1      19.786   6.232  20.744  0.00  0.00    +0.005 A 
ATOM     31  C   UNL     1      20.182   8.908  21.429  0.00  0.00    +0.000 A 
ATOM     32  C   UNL     1      21.038   6.820  20.563  0.00  0.00    +0.000 A 
ATOM     33  C   UNL     1      21.235   8.159  20.906  0.00  0.00    +0.000 A 
ENDBRANCH  24  26
ENDBRANCH   6  24
ENDBRANCH  21  22
ENDBRANCH  11  21
TORSDOF 10
ENDMDL
MODEL 3
REMARK VINA RESULT:      -6.4     22.808     24.760
REMARK  Name = 44716888
REMARK  14 active torsions:
REMARK  status: ('A' for Active; 'I' for Inactive)
REMARK    1  A    between atoms: O_1  and  C_14
REMARK    2  A    between atoms: O_1  and  C_23
REMARK    3  A    between atoms: O_2  and  C_15
REMARK    4  A    between atoms: O_3  and  C_19
REMARK    5  A    between atoms: N_6  and  C_24
REMARK    6  A    between atoms: N_7  and  C_25
REMARK    7  A    between atoms: C_8  and  C_18
REMARK    8  A    between atoms: C_10  and  C_19
REMARK    9  A    between atoms: C_10  and  C_20
REMARK   10  A    between atoms: C_11  and  C_21
REMARK   11  A    between atoms: C_21  and  C_22
REMARK   12  A    between atoms: C_24  and  C_26
REMARK   13  A    between atoms: C_25  and  C_27
REMARK   14  A    between atoms: C_25  and  C_28
REMARK                            x       y       z     vdW  Elec       q    Type
REMARK                         _______ _______ _______ _____ _____    ______ ____
ROOT
ATOM      8  C   UNL     1     -12.254   8.978  19.660  0.00  0.00    -0.023 C 
ATOM      9  C   UNL     1     -12.834   9.191  18.209  0.00  0.00    +0.007 C 
ATOM     10  C   UNL     1     -11.790   9.502  17.069  0.00  0.00    +0.031 C 
ATOM     11  C   UNL     1     -13.486   9.005  20.658  0.00  0.00    +0.032 C 
ATOM     12  C   UNL     1     -11.303  10.160  19.989  0.00  0.00    +0.011 C 
ATOM     13  C   UNL     1     -13.864   8.094  17.859  0.00  0.00    +0.007 C 
ATOM     14  C   UNL     1     -10.846  10.645  17.547  0.00  0.00    +0.186 C 
ATOM     15  C   UNL     1     -14.591   7.985  20.301  0.00  0.00    +0.119 C 
ATOM     16  C   UNL     1     -10.239  10.407  18.926  0.00  0.00    +0.046 C 
ATOM     17  C   UNL     1     -15.032   8.094  18.845  0.00  0.00    +0.032 C 
ATOM     18  C   UNL     1     -11.455   7.661  19.820  0.00  0.00    +0.012 C 
ATOM     20  C   UNL     1     -12.548  10.020  15.812  0.00  0.00    +0.017 C 
ENDROOT
BRANCH  15   2
ATOM      2  O   UNL     1     -14.162   6.654  20.575  0.00  0.00    -0.391 OA
ATOM     34  H   UNL     1     -14.938   6.149  20.872  0.00  0.00    +0.210 HD
ENDBRANCH  15   2
BRANCH  14   1
ATOM      1  O   UNL     1      -9.762  10.853  16.642  0.00  0.00    -0.446 OA
BRANCH   1  23
ATOM      5  O   UNL     1     -10.343  12.804  15.579  0.00  0.00    -0.226 OA
ATOM      7  N   UNL     1      -8.325  12.581  16.701  0.00  0.00    -0.279 N 
ATOM     23  C   UNL     1      -9.550  12.145  16.244  0.00  0.00    +0.401 C 
ATOM     37  H   UNL     1      -7.785  11.947  17.282  0.00  0.00    +0.152 HD
BRANCH   7  25
ATOM     25  C   UNL     1      -7.800  13.903  16.451  0.00  0.00    +0.070 C 
ATOM     27  C   UNL     1      -8.286  14.881  17.514  0.00  0.00    +0.027 C 
ATOM     28  C   UNL     1      -6.278  13.866  16.389  0.00  0.00    +0.027 C 
ENDBRANCH   7  25
ENDBRANCH   1  23
ENDBRANCH  14   1
BRANCH  10  19
ATOM     19  C   UNL     1     -10.989   8.272  16.596  0.00  0.00    +0.166 C 
BRANCH  19   3
ATOM      3  O   UNL     1     -10.541   8.523  15.282  0.00  0.00    -0.394 OA
ATOM     35  H   UNL     1      -9.611   8.803  15.341  0.00  0.00    +0.209 HD
ENDBRANCH  19   3
ENDBRANCH  10  19
BRANCH  11  21
ATOM     21  C   UNL     1     -13.116   8.875  22.145  0.00  0.00    +0.102 C 
BRANCH  21  22
ATOM      4  O   UNL     1     -14.657  10.527  23.012  0.00  0.00    -0.276 OA
ATOM      6  N   UNL     1     -12.399  10.672  23.543  0.00  0.00    -0.311 N 
ATOM     22  C   UNL     1     -13.508  10.103  22.934  0.00  0.00    +0.214 C 
ATOM     36  H   UNL     1     -11.481  10.267  23.392  0.00  0.00    +0.149 HD
BRANCH   6  24
ATOM     24  C   UNL     1     -12.473  11.860  24.362  0.00  0.00    +0.139 C 
BRANCH  24  26
ATOM     26  C   UNL     1     -11.988  11.610  25.762  0.00  0.00    -0.030 A 
ATOM     29  C   UNL     1     -11.188  10.501  26.034  0.00  0.00    +0.005 A 
ATOM     30  C   UNL     1     -12.337  12.488  26.788  0.00  0.00    +0.005 A 
ATOM     31  C   UNL     1     -10.737  10.268  27.333  0.00  0.00    +0.000 A 
ATOM     32  C   UNL     1     -11.887  12.255  28.087  0.00  0.00    +0.000 A 
ATOM     33  C   UNL     1     -11.086  11.145  28.360  0.00  0.00    +0.000 A 
ENDBRANCH  24  26
ENDBRANCH   6  24
ENDBRANCH  21  22
ENDBRANCH  11  21
TORSDOF 10
ENDMDL
MODEL 4
REMARK VINA RESULT:      -6.4     26.972     29.654
REMARK  Name = 44716888
REMARK  14 active torsions:
REMARK  status: ('A' for Active; 'I' for Inactive)
REMARK    1  A    between atoms: O_1  and  C_14
REMARK    2  A    between atoms: O_1  and  C_23
REMARK    3  A    between atoms: O_2  and  C_15
REMARK    4  A    between atoms: O_3  and  C_19
REMARK    5  A    between atoms: N_6  and  C_24
REMARK    6  A    between atoms: N_7  and  C_25
REMARK    7  A    between atoms: C_8  and  C_18
REMARK    8  A    between atoms: C_10  and  C_19
REMARK    9  A    between atoms: C_10  and  C_20
REMARK   10  A    between atoms: C_11  and  C_21
REMARK   11  A    between atoms: C_21  and  C_22
REMARK   12  A    between atoms: C_24  and  C_26
REMARK   13  A    between atoms: C_25  and  C_27
REMARK   14  A    between atoms: C_25  and  C_28
REMARK                            x       y       z     vdW  Elec       q    Type
REMARK                         _______ _______ _______ _____ _____    ______ ____
ROOT
ATOM      8  C   UNL     1      -7.133 -10.566  17.246  0.00  0.00    -0.023 C 
ATOM      9  C   UNL     1      -6.560 -12.033  17.337  0.00  0.00    +0.007 C 
ATOM     10  C   UNL     1      -5.020 -12.173  17.646  0.00  0.00    +0.031 C 
ATOM     11  C   UNL     1      -8.585 -10.675  16.620  0.00  0.00    +0.032 C 
ATOM     12  C   UNL     1      -6.226  -9.741  16.293  0.00  0.00    +0.011 C 
ATOM     13  C   UNL     1      -7.475 -12.931  18.198  0.00  0.00    +0.007 C 
ATOM     14  C   UNL     1      -4.224 -11.241  16.683  0.00  0.00    +0.186 C 
ATOM     15  C   UNL     1      -9.519 -11.634  17.394  0.00  0.00    +0.119 C 
ATOM     16  C   UNL     1      -4.745  -9.808  16.643  0.00  0.00    +0.046 C 
ATOM     17  C   UNL     1      -8.887 -13.005  17.617  0.00  0.00    +0.032 C 
ATOM     18  C   UNL     1      -7.183  -9.836  18.611  0.00  0.00    +0.012 C 
ATOM     20  C   UNL     1      -4.573 -13.635  17.354  0.00  0.00    +0.017 C 
ENDROOT
BRANCH  15   2
ATOM      2  O   UNL     1      -9.900 -11.071  18.646  0.00  0.00    -0.391 OA
ATOM     34  H   UNL     1     -10.559 -11.663  19.048  0.00  0.00    +0.210 HD
ENDBRANCH  15   2
BRANCH  14   1
ATOM      1  O   UNL     1      -2.841 -11.177  17.028  0.00  0.00    -0.446 OA
BRANCH   1  23
ATOM      5  O   UNL     1      -1.029 -10.359  15.878  0.00  0.00    -0.226 OA
ATOM      7  N   UNL     1      -2.282 -12.138  15.074  0.00  0.00    -0.279 N 
ATOM     23  C   UNL     1      -1.961 -11.150  15.980  0.00  0.00    +0.401 C 
ATOM     37  H   UNL     1      -3.054 -12.757  15.304  0.00  0.00    +0.152 HD
BRANCH   7  25
ATOM     25  C   UNL     1      -1.548 -12.377  13.854  0.00  0.00    +0.070 C 
ATOM     27  C   UNL     1      -1.546 -13.863  13.514  0.00  0.00    +0.027 C 
ATOM     28  C   UNL     1      -2.128 -11.551  12.714  0.00  0.00    +0.027 C 
ENDBRANCH   7  25
ENDBRANCH   1  23
ENDBRANCH  14   1
BRANCH  10  19
ATOM     19  C   UNL     1      -4.647 -11.908  19.119  0.00  0.00    +0.166 C 
BRANCH  19   3
ATOM      3  O   UNL     1      -3.387 -12.494  19.361  0.00  0.00    -0.394 OA
ATOM     35  H   UNL     1      -2.861 -11.853  19.867  0.00  0.00    +0.209 HD
ENDBRANCH  19   3
ENDBRANCH  10  19
BRANCH  11  21
ATOM     21  C   UNL     1      -9.293  -9.329  16.390  0.00  0.00    +0.102 C 
BRANCH  21  22
ATOM      4  O   UNL     1     -10.536  -8.357  14.556  0.00  0.00    -0.276 OA
ATOM      6  N   UNL     1      -8.866  -9.913  14.116  0.00  0.00    -0.311 N 
ATOM     22  C   UNL     1      -9.656  -9.123  14.938  0.00  0.00    +0.214 C 
ATOM     36  H   UNL     1      -8.185 -10.542  14.528  0.00  0.00    +0.149 HD
BRANCH   6  24
ATOM     24  C   UNL     1      -8.993  -9.924  12.676  0.00  0.00    +0.139 C 
BRANCH  24  26
ATOM     26  C   UNL     1      -7.689  -9.621  11.994  0.00  0.00    -0.030 A 
ATOM     29  C   UNL     1      -7.685  -9.107  10.697  0.00  0.00    +0.005 A 
ATOM     30  C   UNL     1      -6.485  -9.851  12.658  0.00  0.00    +0.005 A 
ATOM     31  C   UNL     1      -6.475  -8.825  10.063  0.00  0.00    +0.000 A 
ATOM     32  C   UNL     1      -5.274  -9.569  12.024  0.00  0.00    +0.000 A 
ATOM     33  C   UNL     1      -5.270  -9.056  10.726  0.00  0.00    +0.000 A 
ENDBRANCH  24  26
ENDBRANCH   6  24
ENDBRANCH  21  22
ENDBRANCH  11  21
TORSDOF 10
ENDMDL
MODEL 5
REMARK VINA RESULT:      -6.4     26.634     29.680
REMARK  Name = 44716888
REMARK  14 active torsions:
REMARK  status: ('A' for Active; 'I' for Inactive)
REMARK    1  A    between atoms: O_1  and  C_14
REMARK    2  A    between atoms: O_1  and  C_23
REMARK    3  A    between atoms: O_2  and  C_15
REMARK    4  A    between atoms: O_3  and  C_19
REMARK    5  A    between atoms: N_6  and  C_24
REMARK    6  A    between atoms: N_7  and  C_25
REMARK    7  A    between atoms: C_8  and  C_18
REMARK    8  A    between atoms: C_10  and  C_19
REMARK    9  A    between atoms: C_10  and  C_20
REMARK   10  A    between atoms: C_11  and  C_21
REMARK   11  A    between atoms: C_21  and  C_22
REMARK   12  A    between atoms: C_24  and  C_26
REMARK   13  A    between atoms: C_25  and  C_27
REMARK   14  A    between atoms: C_25  and  C_28
REMARK                            x       y       z     vdW  Elec       q    Type
REMARK                         _______ _______ _______ _____ _____    ______ ____
ROOT
ATOM      8  C   UNL     1      -4.361 -11.628  14.733  0.00  0.00    -0.023 C 
ATOM      9  C   UNL     1      -4.271 -11.017  16.185  0.00  0.00    +0.007 C 
ATOM     10  C   UNL     1      -5.421 -11.411  17.190  0.00  0.00    +0.031 C 
ATOM     11  C   UNL     1      -3.309 -10.850  13.838  0.00  0.00    +0.032 C 
ATOM     12  C   UNL     1      -5.789 -11.376  14.179  0.00  0.00    +0.011 C 
ATOM     13  C   UNL     1      -2.842 -11.153  16.754  0.00  0.00    +0.007 C 
ATOM     14  C   UNL     1      -6.798 -11.190  16.494  0.00  0.00    +0.186 C 
ATOM     15  C   UNL     1      -1.873 -10.878  14.410  0.00  0.00    +0.119 C 
ATOM     16  C   UNL     1      -6.901 -11.834  15.115  0.00  0.00    +0.046 C 
ATOM     17  C   UNL     1      -1.822 -10.436  15.870  0.00  0.00    +0.032 C 
ATOM     18  C   UNL     1      -4.091 -13.152  14.685  0.00  0.00    +0.012 C 
ATOM     20  C   UNL     1      -5.366 -10.463  18.423  0.00  0.00    +0.017 C 
ENDROOT
BRANCH  15   2
ATOM      2  O   UNL     1      -1.299 -12.176  14.281  0.00  0.00    -0.391 OA
ATOM     34  H   UNL     1      -1.912 -12.811  14.689  0.00  0.00    +0.210 HD
ENDBRANCH  15   2
BRANCH  14   1
ATOM      1  O   UNL     1      -7.876 -11.700  17.277  0.00  0.00    -0.446 OA
BRANCH   1  23
ATOM      5  O   UNL     1      -8.772 -10.746  19.165  0.00  0.00    -0.226 OA
ATOM      7  N   UNL     1      -9.174  -9.878  17.052  0.00  0.00    -0.279 N 
ATOM     23  C   UNL     1      -8.624 -10.770  17.948  0.00  0.00    +0.401 C 
ATOM     37  H   UNL     1      -8.933  -9.985  16.071  0.00  0.00    +0.152 HD
BRANCH   7  25
ATOM     25  C   UNL     1     -10.020  -8.773  17.438  0.00  0.00    +0.070 C 
ATOM     27  C   UNL     1      -9.871  -7.618  16.454  0.00  0.00    +0.027 C 
ATOM     28  C   UNL     1     -11.471  -9.225  17.542  0.00  0.00    +0.027 C 
ENDBRANCH   7  25
ENDBRANCH   1  23
ENDBRANCH  14   1
BRANCH  10  19
ATOM     19  C   UNL     1      -5.300 -12.841  17.756  0.00  0.00    +0.166 C 
BRANCH  19   3
ATOM      3  O   UNL     1      -6.025 -12.892  18.964  0.00  0.00    -0.394 OA
ATOM     35  H   UNL     1      -6.968 -12.949  18.735  0.00  0.00    +0.209 HD
ENDBRANCH  19   3
ENDBRANCH  10  19
BRANCH  11  21
ATOM     21  C   UNL     1      -3.289 -11.262  12.358  0.00  0.00    +0.102 C 
BRANCH  21  22
ATOM      4  O   UNL     1      -2.267  -9.638  10.884  0.00  0.00    -0.276 OA
ATOM      6  N   UNL     1      -4.548  -9.523  11.314  0.00  0.00    -0.311 N 
ATOM     22  C   UNL     1      -3.276 -10.064  11.438  0.00  0.00    +0.214 C 
ATOM     36  H   UNL     1      -5.317  -9.926  11.840  0.00  0.00    +0.149 HD
BRANCH   6  24
ATOM     24  C   UNL     1      -4.836  -8.366  10.497  0.00  0.00    +0.139 C 
BRANCH  24  26
ATOM     26  C   UNL     1      -5.565  -8.735   9.237  0.00  0.00    -0.030 A 
ATOM     29  C   UNL     1      -6.842  -8.227   8.997  0.00  0.00    +0.005 A 
ATOM     30  C   UNL     1      -4.965  -9.583   8.307  0.00  0.00    +0.005 A 
ATOM     31  C   UNL     1      -7.520  -8.568   7.826  0.00  0.00    +0.000 A 
ATOM     32  C   UNL     1      -5.642  -9.925   7.136  0.00  0.00    +0.000 A 
ATOM     33  C   UNL     1      -6.920  -9.417   6.896  0.00  0.00    +0.000 A 
ENDBRANCH  24  26
ENDBRANCH   6  24
ENDBRANCH  21  22
ENDBRANCH  11  21
TORSDOF 10
ENDMDL
MODEL 6
REMARK VINA RESULT:      -6.3     27.963     31.304
REMARK  Name = 44716888
REMARK  14 active torsions:
REMARK  status: ('A' for Active; 'I' for Inactive)
REMARK    1  A    between atoms: O_1  and  C_14
REMARK    2  A    between atoms: O_1  and  C_23
REMARK    3  A    between atoms: O_2  and  C_15
REMARK    4  A    between atoms: O_3  and  C_19
REMARK    5  A    between atoms: N_6  and  C_24
REMARK    6  A    between atoms: N_7  and  C_25
REMARK    7  A    between atoms: C_8  and  C_18
REMARK    8  A    between atoms: C_10  and  C_19
REMARK    9  A    between atoms: C_10  and  C_20
REMARK   10  A    between atoms: C_11  and  C_21
REMARK   11  A    between atoms: C_21  and  C_22
REMARK   12  A    between atoms: C_24  and  C_26
REMARK   13  A    between atoms: C_25  and  C_27
REMARK   14  A    between atoms: C_25  and  C_28
REMARK                            x       y       z     vdW  Elec       q    Type
REMARK                         _______ _______ _______ _____ _____    ______ ____
ROOT
ATOM      8  C   UNL     1     -16.355   4.150  29.878  0.00  0.00    -0.023 C 
ATOM      9  C   UNL     1     -15.255   3.659  30.896  0.00  0.00    +0.007 C 
ATOM     10  C   UNL     1     -15.198   4.400  32.287  0.00  0.00    +0.031 C 
ATOM     11  C   UNL     1     -16.009   3.498  28.475  0.00  0.00    +0.032 C 
ATOM     12  C   UNL     1     -16.261   5.695  29.760  0.00  0.00    +0.011 C 
ATOM     13  C   UNL     1     -15.234   2.117  30.986  0.00  0.00    +0.007 C 
ATOM     14  C   UNL     1     -15.189   5.939  32.040  0.00  0.00    +0.186 C 
ATOM     15  C   UNL     1     -15.888   1.957  28.526  0.00  0.00    +0.119 C 
ATOM     16  C   UNL     1     -16.292   6.418  31.101  0.00  0.00    +0.046 C 
ATOM     17  C   UNL     1     -14.940   1.486  29.625  0.00  0.00    +0.032 C 
ATOM     18  C   UNL     1     -17.799   3.788  30.304  0.00  0.00    +0.012 C 
ATOM     20  C   UNL     1     -13.864   4.037  33.003  0.00  0.00    +0.017 C 
ENDROOT
BRANCH  15   2
ATOM      2  O   UNL     1     -17.166   1.352  28.700  0.00  0.00    -0.391 OA
ATOM     34  H   UNL     1     -17.126   0.461  28.313  0.00  0.00    +0.210 HD
ENDBRANCH  15   2
BRANCH  14   1
ATOM      1  O   UNL     1     -15.325   6.673  33.256  0.00  0.00    -0.446 OA
BRANCH   1  23
ATOM      5  O   UNL     1     -15.356   8.958  33.488  0.00  0.00    -0.226 OA
ATOM      7  N   UNL     1     -13.396   7.806  33.025  0.00  0.00    -0.279 N 
ATOM     23  C   UNL     1     -14.747   7.914  33.276  0.00  0.00    +0.401 C 
ATOM     37  H   UNL     1     -13.010   6.873  32.912  0.00  0.00    +0.152 HD
BRANCH   7  25
ATOM     25  C   UNL     1     -12.496   8.935  32.976  0.00  0.00    +0.070 C 
ATOM     27  C   UNL     1     -11.849   9.162  34.337  0.00  0.00    +0.027 C 
ATOM     28  C   UNL     1     -11.446   8.729  31.892  0.00  0.00    +0.027 C 
ENDBRANCH   7  25
ENDBRANCH   1  23
ENDBRANCH  14   1
BRANCH  10  19
ATOM     19  C   UNL     1     -16.321   3.994  33.263  0.00  0.00    +0.166 C 
BRANCH  19   3
ATOM      3  O   UNL     1     -15.848   4.196  34.577  0.00  0.00    -0.394 OA
ATOM     35  H   UNL     1     -16.326   4.959  34.944  0.00  0.00    +0.209 HD
ENDBRANCH  19   3
ENDBRANCH  10  19
BRANCH  11  21
ATOM     21  C   UNL     1     -16.941   3.910  27.324  0.00  0.00    +0.102 C 
BRANCH  21  22
ATOM      4  O   UNL     1     -16.898   2.218  25.595  0.00  0.00    -0.276 OA
ATOM      6  N   UNL     1     -15.631   4.149  25.343  0.00  0.00    -0.311 N 
ATOM     22  C   UNL     1     -16.511   3.307  26.006  0.00  0.00    +0.214 C 
ATOM     36  H   UNL     1     -15.343   5.019  25.780  0.00  0.00    +0.149 HD
BRANCH   6  24
ATOM     24  C   UNL     1     -15.053   3.830  24.057  0.00  0.00    +0.139 C 
BRANCH  24  26
ATOM     26  C   UNL     1     -14.734   5.064  23.262  0.00  0.00    -0.030 A 
ATOM     29  C   UNL     1     -13.629   5.077  22.410  0.00  0.00    +0.005 A 
ATOM     30  C   UNL     1     -15.542   6.194  23.374  0.00  0.00    +0.005 A 
ATOM     31  C   UNL     1     -13.332   6.222  21.670  0.00  0.00    +0.000 A 
ATOM     32  C   UNL     1     -15.246   7.340  22.635  0.00  0.00    +0.000 A 
ATOM     33  C   UNL     1     -14.141   7.353  21.783  0.00  0.00    +0.000 A 
ENDBRANCH  24  26
ENDBRANCH   6  24
ENDBRANCH  21  22
ENDBRANCH  11  21
TORSDOF 10
ENDMDL
MODEL 7
REMARK VINA RESULT:      -6.3     25.116     27.866
REMARK  Name = 44716888
REMARK  14 active torsions:
REMARK  status: ('A' for Active; 'I' for Inactive)
REMARK    1  A    between atoms: O_1  and  C_14
REMARK    2  A    between atoms: O_1  and  C_23
REMARK    3  A    between atoms: O_2  and  C_15
REMARK    4  A    between atoms: O_3  and  C_19
REMARK    5  A    between atoms: N_6  and  C_24
REMARK    6  A    between atoms: N_7  and  C_25
REMARK    7  A    between atoms: C_8  and  C_18
REMARK    8  A    between atoms: C_10  and  C_19
REMARK    9  A    between atoms: C_10  and  C_20
REMARK   10  A    between atoms: C_11  and  C_21
REMARK   11  A    between atoms: C_21  and  C_22
REMARK   12  A    between atoms: C_24  and  C_26
REMARK   13  A    between atoms: C_25  and  C_27
REMARK   14  A    between atoms: C_25  and  C_28
REMARK                            x       y       z     vdW  Elec       q    Type
REMARK                         _______ _______ _______ _____ _____    ______ ____
ROOT
ATOM      8  C   UNL     1     -12.429   7.958  19.691  0.00  0.00    -0.023 C 
ATOM      9  C   UNL     1     -13.994   7.935  19.881  0.00  0.00    +0.007 C 
ATOM     10  C   UNL     1     -14.528   7.484  21.294  0.00  0.00    +0.031 C 
ATOM     11  C   UNL     1     -12.154   8.120  18.137  0.00  0.00    +0.032 C 
ATOM     12  C   UNL     1     -11.854   6.598  20.171  0.00  0.00    +0.011 C 
ATOM     13  C   UNL     1     -14.637   9.227  19.331  0.00  0.00    +0.007 C 
ATOM     14  C   UNL     1     -13.822   6.156  21.701  0.00  0.00    +0.186 C 
ATOM     15  C   UNL     1     -12.850   9.353  17.515  0.00  0.00    +0.119 C 
ATOM     16  C   UNL     1     -12.302   6.202  21.573  0.00  0.00    +0.046 C 
ATOM     17  C   UNL     1     -14.339   9.405  17.842  0.00  0.00    +0.032 C 
ATOM     18  C   UNL     1     -11.725   9.084  20.486  0.00  0.00    +0.012 C 
ATOM     20  C   UNL     1     -16.053   7.187  21.192  0.00  0.00    +0.017 C 
ENDROOT
BRANCH  15   2
ATOM      2  O   UNL     1     -12.222  10.559  17.940  0.00  0.00    -0.391 OA
ATOM     34  H   UNL     1     -11.287  10.513  17.679  0.00  0.00    +0.210 HD
ENDBRANCH  15   2
BRANCH  14   1
ATOM      1  O   UNL     1     -14.118   5.787  23.048  0.00  0.00    -0.446 OA
BRANCH   1  23
ATOM      5  O   UNL     1     -15.315   3.973  22.306  0.00  0.00    -0.226 OA
ATOM      7  N   UNL     1     -15.394   4.664  24.519  0.00  0.00    -0.279 N 
ATOM     23  C   UNL     1     -14.977   4.734  23.207  0.00  0.00    +0.401 C 
ATOM     37  H   UNL     1     -14.999   5.331  25.176  0.00  0.00    +0.152 HD
BRANCH   7  25
ATOM     25  C   UNL     1     -16.308   3.663  25.019  0.00  0.00    +0.070 C 
ATOM     27  C   UNL     1     -16.063   3.408  26.501  0.00  0.00    +0.027 C 
ATOM     28  C   UNL     1     -17.749   4.084  24.762  0.00  0.00    +0.027 C 
ENDBRANCH   7  25
ENDBRANCH   1  23
ENDBRANCH  14   1
BRANCH  10  19
ATOM     19  C   UNL     1     -14.384   8.557  22.393  0.00  0.00    +0.166 C 
BRANCH  19   3
ATOM      3  O   UNL     1     -15.243   8.208  23.457  0.00  0.00    -0.394 OA
ATOM     35  H   UNL     1     -15.874   8.938  23.572  0.00  0.00    +0.209 HD
ENDBRANCH  19   3
ENDBRANCH  10  19
BRANCH  11  21
ATOM     21  C   UNL     1     -10.670   8.101  17.738  0.00  0.00    +0.102 C 
BRANCH  21  22
ATOM      4  O   UNL     1     -10.237   9.702  15.975  0.00  0.00    -0.276 OA
ATOM      6  N   UNL     1     -10.572   7.465  15.439  0.00  0.00    -0.311 N 
ATOM     22  C   UNL     1     -10.465   8.542  16.307  0.00  0.00    +0.214 C 
ATOM     36  H   UNL     1     -10.796   6.546  15.806  0.00  0.00    +0.149 HD
BRANCH   6  24
ATOM     24  C   UNL     1     -10.423   7.590  14.007  0.00  0.00    +0.139 C 
BRANCH  24  26
ATOM     26  C   UNL     1     -11.689   8.057  13.349  0.00  0.00    -0.030 A 
ATOM     29  C   UNL     1     -11.687   9.225  12.586  0.00  0.00    +0.005 A 
ATOM     30  C   UNL     1     -12.866   7.324  13.498  0.00  0.00    +0.005 A 
ATOM     31  C   UNL     1     -12.863   9.661  11.973  0.00  0.00    +0.000 A 
ATOM     32  C   UNL     1     -14.042   7.759  12.887  0.00  0.00    +0.000 A 
ATOM     33  C   UNL     1     -14.039   8.928  12.124  0.00  0.00    +0.000 A 
ENDBRANCH  24  26
ENDBRANCH   6  24
ENDBRANCH  21  22
ENDBRANCH  11  21
TORSDOF 10
ENDMDL
MODEL 8
REMARK VINA RESULT:      -6.1     14.955     21.189
REMARK  Name = 44716888
REMARK  14 active torsions:
REMARK  status: ('A' for Active; 'I' for Inactive)
REMARK    1  A    between atoms: O_1  and  C_14
REMARK    2  A    between atoms: O_1  and  C_23
REMARK    3  A    between atoms: O_2  and  C_15
REMARK    4  A    between atoms: O_3  and  C_19
REMARK    5  A    between atoms: N_6  and  C_24
REMARK    6  A    between atoms: N_7  and  C_25
REMARK    7  A    between atoms: C_8  and  C_18
REMARK    8  A    between atoms: C_10  and  C_19
REMARK    9  A    between atoms: C_10  and  C_20
REMARK   10  A    between atoms: C_11  and  C_21
REMARK   11  A    between atoms: C_21  and  C_22
REMARK   12  A    between atoms: C_24  and  C_26
REMARK   13  A    between atoms: C_25  and  C_27
REMARK   14  A    between atoms: C_25  and  C_28
REMARK                            x       y       z     vdW  Elec       q    Type
REMARK                         _______ _______ _______ _____ _____    ______ ____
ROOT
ATOM      8  C   UNL     1      12.685   4.294   0.025  0.00  0.00    -0.023 C 
ATOM      9  C   UNL     1      12.805   5.843   0.294  0.00  0.00    +0.007 C 
ATOM     10  C   UNL     1      12.833   6.299   1.803  0.00  0.00    +0.031 C 
ATOM     11  C   UNL     1      12.354   4.116  -1.516  0.00  0.00    +0.032 C 
ATOM     12  C   UNL     1      11.506   3.737   0.868  0.00  0.00    +0.011 C 
ATOM     13  C   UNL     1      13.902   6.474  -0.591  0.00  0.00    +0.007 C 
ATOM     14  C   UNL     1      11.655   5.615   2.559  0.00  0.00    +0.186 C 
ATOM     15  C   UNL     1      13.376   4.806  -2.448  0.00  0.00    +0.119 C 
ATOM     16  C   UNL     1      11.578   4.107   2.345  0.00  0.00    +0.046 C 
ATOM     17  C   UNL     1      13.605   6.269  -2.076  0.00  0.00    +0.032 C 
ATOM     18  C   UNL     1      13.960   3.499   0.401  0.00  0.00    +0.012 C 
ATOM     20  C   UNL     1      12.602   7.836   1.875  0.00  0.00    +0.017 C 
ENDROOT
BRANCH  15   2
ATOM      2  O   UNL     1      14.619   4.110  -2.445  0.00  0.00    -0.391 OA
ATOM     34  H   UNL     1      15.206   4.556  -1.812  0.00  0.00    +0.210 HD
ENDBRANCH  15   2
BRANCH  14   1
ATOM      1  O   UNL     1      11.728   5.835   3.967  0.00  0.00    -0.446 OA
BRANCH   1  23
ATOM      5  O   UNL     1       9.464   6.193   4.114  0.00  0.00    -0.226 OA
ATOM      7  N   UNL     1      10.714   5.529   5.951  0.00  0.00    -0.279 N 
ATOM     23  C   UNL     1      10.532   5.882   4.631  0.00  0.00    +0.401 C 
ATOM     37  H   UNL     1      11.647   5.247   6.240  0.00  0.00    +0.152 HD
BRANCH   7  25
ATOM     25  C   UNL     1       9.648   5.479   6.924  0.00  0.00    +0.070 C 
ATOM     27  C   UNL     1       9.905   4.375   7.942  0.00  0.00    +0.027 C 
ATOM     28  C   UNL     1       9.487   6.832   7.605  0.00  0.00    +0.027 C 
ENDBRANCH   7  25
ENDBRANCH   1  23
ENDBRANCH  14   1
BRANCH  10  19
ATOM     19  C   UNL     1      14.179   6.045   2.512  0.00  0.00    +0.166 C 
BRANCH  19   3
ATOM      3  O   UNL     1      14.217   6.847   3.672  0.00  0.00    -0.394 OA
ATOM     35  H   UNL     1      15.144   6.897   3.961  0.00  0.00    +0.209 HD
ENDBRANCH  19   3
ENDBRANCH  10  19
BRANCH  11  21
ATOM     21  C   UNL     1      12.135   2.663  -1.966  0.00  0.00    +0.102 C 
BRANCH  21  22
ATOM      4  O   UNL     1      10.164   1.428  -2.634  0.00  0.00    -0.276 OA
ATOM      6  N   UNL     1      10.401   3.648  -3.278  0.00  0.00    -0.311 N 
ATOM     22  C   UNL     1      10.798   2.479  -2.647  0.00  0.00    +0.214 C 
ATOM     36  H   UNL     1      11.011   4.459  -3.261  0.00  0.00    +0.149 HD
BRANCH   6  24
ATOM     24  C   UNL     1       9.162   3.766  -4.012  0.00  0.00    +0.139 C 
BRANCH  24  26
ATOM     26  C   UNL     1       8.437   5.042  -3.693  0.00  0.00    -0.030 A 
ATOM     29  C   UNL     1       8.912   5.878  -2.682  0.00  0.00    +0.005 A 
ATOM     30  C   UNL     1       7.292   5.392  -4.407  0.00  0.00    +0.005 A 
ATOM     31  C   UNL     1       8.240   7.064  -2.384  0.00  0.00    +0.000 A 
ATOM     32  C   UNL     1       6.620   6.577  -4.110  0.00  0.00    +0.000 A 
ATOM     33  C   UNL     1       7.094   7.413  -3.098  0.00  0.00    +0.000 A 
ENDBRANCH  24  26
ENDBRANCH   6  24
ENDBRANCH  21  22
ENDBRANCH  11  21
TORSDOF 10
ENDMDL
MODEL 9
REMARK VINA RESULT:      -6.1     27.012     30.357
REMARK  Name = 44716888
REMARK  14 active torsions:
REMARK  status: ('A' for Active; 'I' for Inactive)
REMARK    1  A    between atoms: O_1  and  C_14
REMARK    2  A    between atoms: O_1  and  C_23
REMARK    3  A    between atoms: O_2  and  C_15
REMARK    4  A    between atoms: O_3  and  C_19
REMARK    5  A    between atoms: N_6  and  C_24
REMARK    6  A    between atoms: N_7  and  C_25
REMARK    7  A    between atoms: C_8  and  C_18
REMARK    8  A    between atoms: C_10  and  C_19
REMARK    9  A    between atoms: C_10  and  C_20
REMARK   10  A    between atoms: C_11  and  C_21
REMARK   11  A    between atoms: C_21  and  C_22
REMARK   12  A    between atoms: C_24  and  C_26
REMARK   13  A    between atoms: C_25  and  C_27
REMARK   14  A    between atoms: C_25  and  C_28
REMARK                            x       y       z     vdW  Elec       q    Type
REMARK                         _______ _______ _______ _____ _____    ______ ____
ROOT
ATOM      8  C   UNL     1     -15.194   8.133  31.853  0.00  0.00    -0.023 C 
ATOM      9  C   UNL     1     -13.644   8.031  32.124  0.00  0.00    +0.007 C 
ATOM     10  C   UNL     1     -12.816   9.368  32.010  0.00  0.00    +0.031 C 
ATOM     11  C   UNL     1     -15.737   6.650  31.707  0.00  0.00    +0.032 C 
ATOM     12  C   UNL     1     -15.412   8.891  30.515  0.00  0.00    +0.011 C 
ATOM     13  C   UNL     1     -13.358   7.202  33.395  0.00  0.00    +0.007 C 
ATOM     14  C   UNL     1     -13.179  10.074  30.669  0.00  0.00    +0.186 C 
ATOM     15  C   UNL     1     -15.400   5.749  32.918  0.00  0.00    +0.119 C 
ATOM     16  C   UNL     1     -14.680  10.225  30.439  0.00  0.00    +0.046 C 
ATOM     17  C   UNL     1     -13.916   5.784  33.271  0.00  0.00    +0.032 C 
ATOM     18  C   UNL     1     -15.968   8.887  32.962  0.00  0.00    +0.012 C 
ATOM     20  C   UNL     1     -11.299   9.026  31.959  0.00  0.00    +0.017 C 
ENDROOT
BRANCH  15   2
ATOM      2  O   UNL     1     -16.174   6.117  34.056  0.00  0.00    -0.391 OA
ATOM     34  H   UNL     1     -15.568   6.494  34.716  0.00  0.00    +0.210 HD
ENDBRANCH  15   2
BRANCH  14   1
ATOM      1  O   UNL     1     -12.608  11.379  30.584  0.00  0.00    -0.446 OA
BRANCH   1  23
ATOM      5  O   UNL     1     -12.518  12.974  28.933  0.00  0.00    -0.226 OA
ATOM      7  N   UNL     1     -11.777  10.805  28.576  0.00  0.00    -0.279 N 
ATOM     23  C   UNL     1     -12.319  11.828  29.324  0.00  0.00    +0.401 C 
ATOM     37  H   UNL     1     -11.623   9.913  29.037  0.00  0.00    +0.152 HD
BRANCH   7  25
ATOM     25  C   UNL     1     -11.363  10.949  27.199  0.00  0.00    +0.070 C 
ATOM     27  C   UNL     1     -10.091  10.151  26.938  0.00  0.00    +0.027 C 
ATOM     28  C   UNL     1     -12.484  10.525  26.260  0.00  0.00    +0.027 C 
ENDBRANCH   7  25
ENDBRANCH   1  23
ENDBRANCH  14   1
BRANCH  10  19
ATOM     19  C   UNL     1     -12.990  10.320  33.211  0.00  0.00    +0.166 C 
BRANCH  19   3
ATOM      3  O   UNL     1     -11.803  11.072  33.345  0.00  0.00    -0.394 OA
ATOM     35  H   UNL     1     -11.059  10.472  33.172  0.00  0.00    +0.209 HD
ENDBRANCH  19   3
ENDBRANCH  10  19
BRANCH  11  21
ATOM     21  C   UNL     1     -17.233   6.539  31.374  0.00  0.00    +0.102 C 
BRANCH  21  22
ATOM      4  O   UNL     1     -18.536   4.552  30.917  0.00  0.00    -0.276 OA
ATOM      6  N   UNL     1     -16.608   4.969  29.688  0.00  0.00    -0.311 N 
ATOM     22  C   UNL     1     -17.558   5.248  30.659  0.00  0.00    +0.214 C 
ATOM     36  H   UNL     1     -15.813   5.590  29.572  0.00  0.00    +0.149 HD
BRANCH   6  24
ATOM     24  C   UNL     1     -16.661   3.795  28.848  0.00  0.00    +0.139 C 
BRANCH  24  26
ATOM     26  C   UNL     1     -15.698   2.735  29.301  0.00  0.00    -0.030 A 
ATOM     29  C   UNL     1     -15.953   1.394  29.013  0.00  0.00    +0.005 A 
ATOM     30  C   UNL     1     -14.550   3.091  30.008  0.00  0.00    +0.005 A 
ATOM     31  C   UNL     1     -15.060   0.408  29.433  0.00  0.00    +0.000 A 
ATOM     32  C   UNL     1     -13.656   2.106  30.428  0.00  0.00    +0.000 A 
ATOM     33  C   UNL     1     -13.912   0.764  30.141  0.00  0.00    +0.000 A 
ENDBRANCH  24  26
ENDBRANCH   6  24
ENDBRANCH  21  22
ENDBRANCH  11  21
TORSDOF 10
ENDMDL
MODEL 10
REMARK VINA RESULT:      -6.1     27.411     29.968
REMARK  Name = 44716888
REMARK  14 active torsions:
REMARK  status: ('A' for Active; 'I' for Inactive)
REMARK    1  A    between atoms: O_1  and  C_14
REMARK    2  A    between atoms: O_1  and  C_23
REMARK    3  A    between atoms: O_2  and  C_15
REMARK    4  A    between atoms: O_3  and  C_19
REMARK    5  A    between atoms: N_6  and  C_24
REMARK    6  A    between atoms: N_7  and  C_25
REMARK    7  A    between atoms: C_8  and  C_18
REMARK    8  A    between atoms: C_10  and  C_19
REMARK    9  A    between atoms: C_10  and  C_20
REMARK   10  A    between atoms: C_11  and  C_21
REMARK   11  A    between atoms: C_21  and  C_22
REMARK   12  A    between atoms: C_24  and  C_26
REMARK   13  A    between atoms: C_25  and  C_27
REMARK   14  A    between atoms: C_25  and  C_28
REMARK                            x       y       z     vdW  Elec       q    Type
REMARK                         _______ _______ _______ _____ _____    ______ ____
ROOT
ATOM      8  C   UNL     1      -5.908 -10.559  11.133  0.00  0.00    -0.023 C 
ATOM      9  C   UNL     1      -4.448 -10.233  11.636  0.00  0.00    +0.007 C 
ATOM     10  C   UNL     1      -3.968 -10.976  12.941  0.00  0.00    +0.031 C 
ATOM     11  C   UNL     1      -6.269  -9.478  10.031  0.00  0.00    +0.032 C 
ATOM     12  C   UNL     1      -6.885 -10.414  12.331  0.00  0.00    +0.011 C 
ATOM     13  C   UNL     1      -3.441 -10.268  10.466  0.00  0.00    +0.007 C 
ATOM     14  C   UNL     1      -5.064 -10.827  14.040  0.00  0.00    +0.186 C 
ATOM     15  C   UNL     1      -5.241  -9.409   8.877  0.00  0.00    +0.119 C 
ATOM     16  C   UNL     1      -6.465 -11.201  13.566  0.00  0.00    +0.046 C 
ATOM     17  C   UNL     1      -3.810  -9.254   9.384  0.00  0.00    +0.032 C 
ATOM     18  C   UNL     1      -6.060 -11.990  10.561  0.00  0.00    +0.012 C 
ATOM     20  C   UNL     1      -2.679 -10.286  13.474  0.00  0.00    +0.017 C 
ENDROOT
BRANCH  15   2
ATOM      2  O   UNL     1      -5.334 -10.560   8.043  0.00  0.00    -0.391 OA
ATOM     34  H   UNL     1      -5.423 -10.253   7.125  0.00  0.00    +0.210 HD
ENDBRANCH  15   2
BRANCH  14   1
ATOM      1  O   UNL     1      -4.780 -11.629  15.185  0.00  0.00    -0.446 OA
BRANCH   1  23
ATOM      5  O   UNL     1      -4.835  -9.756  16.513  0.00  0.00    -0.226 OA
ATOM      7  N   UNL     1      -4.634 -11.884  17.414  0.00  0.00    -0.279 N 
ATOM     23  C   UNL     1      -4.757 -10.973  16.387  0.00  0.00    +0.401 C 
ATOM     37  H   UNL     1      -4.626 -12.871  17.173  0.00  0.00    +0.152 HD
BRANCH   7  25
ATOM     25  C   UNL     1      -4.578 -11.516  18.810  0.00  0.00    +0.070 C 
ATOM     27  C   UNL     1      -5.951 -11.659  19.456  0.00  0.00    +0.027 C 
ATOM     28  C   UNL     1      -3.535 -12.353  19.539  0.00  0.00    +0.027 C 
ENDBRANCH   7  25
ENDBRANCH   1  23
ENDBRANCH  14   1
BRANCH  10  19
ATOM     19  C   UNL     1      -3.591 -12.455  12.721  0.00  0.00    +0.166 C 
BRANCH  19   3
ATOM      3  O   UNL     1      -2.631 -12.808  13.693  0.00  0.00    -0.394 OA
ATOM     35  H   UNL     1      -2.700 -12.163  14.417  0.00  0.00    +0.209 HD
ENDBRANCH  19   3
ENDBRANCH  10  19
BRANCH  11  21
ATOM     21  C   UNL     1      -7.691  -9.590   9.457  0.00  0.00    +0.102 C 
BRANCH  21  22
ATOM      4  O   UNL     1      -7.852  -8.891   7.147  0.00  0.00    -0.276 OA
ATOM      6  N   UNL     1      -8.233  -7.348   8.843  0.00  0.00    -0.311 N 
ATOM     22  C   UNL     1      -7.927  -8.604   8.338  0.00  0.00    +0.214 C 
ATOM     36  H   UNL     1      -8.238  -7.200   9.847  0.00  0.00    +0.149 HD
BRANCH   6  24
ATOM     24  C   UNL     1      -8.506  -6.205   8.002  0.00  0.00    +0.139 C 
BRANCH  24  26
ATOM     26  C   UNL     1      -9.813  -5.552   8.347  0.00  0.00    -0.030 A 
ATOM     29  C   UNL     1     -11.011  -6.232   8.128  0.00  0.00    +0.005 A 
ATOM     30  C   UNL     1      -9.829  -4.267   8.887  0.00  0.00    +0.005 A 
ATOM     31  C   UNL     1     -12.226  -5.626   8.448  0.00  0.00    +0.000 A 
ATOM     32  C   UNL     1     -11.044  -3.660   9.208  0.00  0.00    +0.000 A 
ATOM     33  C   UNL     1     -12.242  -4.340   8.988  0.00  0.00    +0.000 A 
ENDBRANCH  24  26
ENDBRANCH   6  24
ENDBRANCH  21  22
ENDBRANCH  11  21
TORSDOF 10
ENDMDL
