MODEL 1
REMARK VINA RESULT:      -8.0      0.000      0.000
REMARK  Name = 7155482
REMARK  3 active torsions:
REMARK  status: ('A' for Active; 'I' for Inactive)
REMARK    1  A    between atoms: N_7  and  C_18
REMARK    2  A    between atoms: C_17  and  C_20
REMARK    3  A    between atoms: C_25  and  C_29
REMARK                            x       y       z     vdW  Elec       q    Type
REMARK                         _______ _______ _______ _____ _____    ______ ____
ROOT
ATOM      2  O   UNL     1      11.080  10.220  21.981  0.00  0.00    -0.266 OA
ATOM      3  O   UNL     1      14.020   6.104  20.895  0.00  0.00    -0.270 OA
ATOM      5  N   UNL     1      13.951   7.451  18.983  0.00  0.00    -0.297 N 
ATOM      6  N   UNL     1      12.258   9.942  19.983  0.00  0.00    -0.310 N 
ATOM      8  C   UNL     1      11.668   8.134  18.267  0.00  0.00    +0.027 C 
ATOM      9  C   UNL     1      13.576   9.633  17.857  0.00  0.00    +0.054 C 
ATOM     10  C   UNL     1      12.280   9.095  17.254  0.00  0.00    +0.018 C 
ATOM     11  C   UNL     1      12.635   6.973  18.559  0.00  0.00    +0.113 C 
ATOM     12  C   UNL     1      11.305   8.917  19.535  0.00  0.00    +0.130 C 
ATOM     13  C   UNL     1      14.554   8.467  18.106  0.00  0.00    +0.117 C 
ATOM     14  C   UNL     1      13.309  10.362  19.161  0.00  0.00    +0.027 A 
ATOM     15  C   UNL     1      14.100  11.380  19.541  0.00  0.00    +0.024 A 
ATOM     16  C   UNL     1      12.001  10.545  21.230  0.00  0.00    +0.273 A 
ATOM     17  C   UNL     1      14.519   6.952  20.158  0.00  0.00    +0.247 C 
ATOM     18  C   UNL     1      12.921  11.657  21.629  0.00  0.00    +0.099 A 
ATOM     19  C   UNL     1      13.899  12.037  20.802  0.00  0.00    +0.030 A 
ENDROOT
BRANCH  17  20
ATOM     20  C   UNL     1      15.819   7.489  20.574  0.00  0.00    +0.037 A 
ATOM     21  C   UNL     1      16.978   6.750  20.347  0.00  0.00    +0.021 A 
ATOM     22  C   UNL     1      15.887   8.732  21.191  0.00  0.00    +0.013 A 
ATOM     23  C   UNL     1      18.230   7.251  20.741  0.00  0.00    -0.017 A 
ATOM     24  C   UNL     1      17.123   9.245  21.588  0.00  0.00    +0.009 A 
ATOM     26  C   UNL     1      18.304   8.517  21.370  0.00  0.00    -0.018 A 
ATOM     27  C   UNL     1      19.411   6.524  20.522  0.00  0.00    +0.008 A 
ATOM     28  C   UNL     1      19.556   9.017  21.763  0.00  0.00    +0.008 A 
ATOM     30  C   UNL     1      20.647   7.036  20.918  0.00  0.00    +0.001 A 
ATOM     31  C   UNL     1      20.719   8.280  21.538  0.00  0.00    +0.001 A 
ENDBRANCH  17  20
BRANCH  18   7
ATOM      4  O   UNL     1      11.142  13.826  22.157  0.00  0.00    -0.269 OA
ATOM      7  N   UNL     1      12.716  12.253  22.838  0.00  0.00    -0.277 N 
ATOM     25  C   UNL     1      11.834  13.308  23.032  0.00  0.00    +0.255 C 
ATOM     35  H   UNL     1      13.390  12.028  23.563  0.00  0.00    +0.155 HD
BRANCH  25  29
ATOM      1  S   UNL     1      13.162  14.047  25.276  0.00  0.00    -0.092 S 
ATOM     29  C   UNL     1      11.727  13.812  24.425  0.00  0.00    +0.074 A 
ATOM     32  C   UNL     1      10.600  14.105  25.091  0.00  0.00    +0.021 A 
ATOM     33  C   UNL     1      10.912  14.561  26.405  0.00  0.00    +0.008 A 
ATOM     34  C   UNL     1      12.269  14.578  26.637  0.00  0.00    +0.046 A 
ENDBRANCH  25  29
ENDBRANCH  18   7
TORSDOF 3
ENDMDL
MODEL 2
REMARK VINA RESULT:      -7.5     28.799     30.846
REMARK  Name = 7155482
REMARK  3 active torsions:
REMARK  status: ('A' for Active; 'I' for Inactive)
REMARK    1  A    between atoms: N_7  and  C_18
REMARK    2  A    between atoms: C_17  and  C_20
REMARK    3  A    between atoms: C_25  and  C_29
REMARK                            x       y       z     vdW  Elec       q    Type
REMARK                         _______ _______ _______ _____ _____    ______ ____
ROOT
ATOM      2  O   UNL     1      -4.204 -14.913  15.498  0.00  0.00    -0.266 OA
ATOM      3  O   UNL     1      -8.241 -11.873  14.391  0.00  0.00    -0.270 OA
ATOM      5  N   UNL     1      -6.841 -10.691  15.845  0.00  0.00    -0.297 N 
ATOM      6  N   UNL     1      -4.406 -12.694  16.202  0.00  0.00    -0.310 N 
ATOM      8  C   UNL     1      -6.172 -11.934  17.895  0.00  0.00    +0.027 C 
ATOM      9  C   UNL     1      -4.633 -10.286  16.909  0.00  0.00    +0.054 C 
ATOM     10  C   UNL     1      -5.173 -10.832  18.229  0.00  0.00    +0.018 C 
ATOM     11  C   UNL     1      -7.326 -11.373  17.045  0.00  0.00    +0.113 C 
ATOM     12  C   UNL     1      -5.432 -13.074  17.184  0.00  0.00    +0.130 C 
ATOM     13  C   UNL     1      -5.791  -9.688  16.085  0.00  0.00    +0.117 C 
ATOM     14  C   UNL     1      -3.946 -11.377  16.108  0.00  0.00    +0.027 A 
ATOM     15  C   UNL     1      -2.928 -11.073  15.285  0.00  0.00    +0.024 A 
ATOM     16  C   UNL     1      -3.844 -13.736  15.439  0.00  0.00    +0.273 A 
ATOM     17  C   UNL     1      -7.365 -11.036  14.598  0.00  0.00    +0.247 C 
ATOM     18  C   UNL     1      -2.730 -13.352  14.514  0.00  0.00    +0.099 A 
ATOM     19  C   UNL     1      -2.311 -12.083  14.473  0.00  0.00    +0.030 A 
ENDROOT
BRANCH  17  20
ATOM     20  C   UNL     1      -6.821 -10.362  13.414  0.00  0.00    +0.037 A 
ATOM     21  C   UNL     1      -5.528 -10.655  12.984  0.00  0.00    +0.021 A 
ATOM     22  C   UNL     1      -7.597  -9.439  12.727  0.00  0.00    +0.013 A 
ATOM     23  C   UNL     1      -4.992 -10.018  11.852  0.00  0.00    -0.017 A 
ATOM     24  C   UNL     1      -7.081  -8.797  11.600  0.00  0.00    +0.009 A 
ATOM     26  C   UNL     1      -5.781  -9.075  11.150  0.00  0.00    -0.018 A 
ATOM     27  C   UNL     1      -3.692 -10.298  11.401  0.00  0.00    +0.008 A 
ATOM     28  C   UNL     1      -5.245  -8.440  10.018  0.00  0.00    +0.008 A 
ATOM     30  C   UNL     1      -3.176  -9.657  10.275  0.00  0.00    +0.001 A 
ATOM     31  C   UNL     1      -3.951  -8.729   9.585  0.00  0.00    +0.001 A 
ENDBRANCH  17  20
BRANCH  18   7
ATOM      4  O   UNL     1      -3.665 -14.224  11.962  0.00  0.00    -0.269 OA
ATOM      7  N   UNL     1      -2.172 -14.328  13.744  0.00  0.00    -0.277 N 
ATOM     25  C   UNL     1      -2.675 -14.708  12.506  0.00  0.00    +0.255 C 
ATOM     35  H   UNL     1      -1.483 -14.915  14.203  0.00  0.00    +0.155 HD
BRANCH  25  29
ATOM      1  S   UNL     1      -2.539 -16.326  10.336  0.00  0.00    -0.092 S 
ATOM     29  C   UNL     1      -1.919 -15.775  11.803  0.00  0.00    +0.074 A 
ATOM     32  C   UNL     1      -0.780 -16.357  12.210  0.00  0.00    +0.021 A 
ATOM     33  C   UNL     1      -0.364 -17.335  11.261  0.00  0.00    +0.008 A 
ATOM     34  C   UNL     1      -1.230 -17.422  10.193  0.00  0.00    +0.046 A 
ENDBRANCH  25  29
ENDBRANCH  18   7
TORSDOF 3
ENDMDL
MODEL 3
REMARK VINA RESULT:      -7.5     12.472     16.361
REMARK  Name = 7155482
REMARK  3 active torsions:
REMARK  status: ('A' for Active; 'I' for Inactive)
REMARK    1  A    between atoms: N_7  and  C_18
REMARK    2  A    between atoms: C_17  and  C_20
REMARK    3  A    between atoms: C_25  and  C_29
REMARK                            x       y       z     vdW  Elec       q    Type
REMARK                         _______ _______ _______ _____ _____    ______ ____
ROOT
ATOM      2  O   UNL     1      12.779   7.482   3.619  0.00  0.00    -0.266 OA
ATOM      3  O   UNL     1       9.288  10.966   5.180  0.00  0.00    -0.270 OA
ATOM      5  N   UNL     1       8.683   8.898   6.092  0.00  0.00    -0.297 N 
ATOM      6  N   UNL     1      11.058   7.026   5.132  0.00  0.00    -0.310 N 
ATOM      8  C   UNL     1       8.586   7.023   4.459  0.00  0.00    +0.027 C 
ATOM      9  C   UNL     1       9.219   6.577   6.796  0.00  0.00    +0.054 C 
ATOM     10  C   UNL     1       8.420   6.038   5.611  0.00  0.00    +0.018 C 
ATOM     11  C   UNL     1       8.060   8.413   4.861  0.00  0.00    +0.113 C 
ATOM     12  C   UNL     1      10.064   7.061   4.050  0.00  0.00    +0.130 C 
ATOM     13  C   UNL     1       8.656   7.950   7.217  0.00  0.00    +0.117 C 
ATOM     14  C   UNL     1      10.689   6.715   6.445  0.00  0.00    +0.027 A 
ATOM     15  C   UNL     1      11.627   6.575   7.397  0.00  0.00    +0.024 A 
ATOM     16  C   UNL     1      12.404   7.222   4.763  0.00  0.00    +0.273 A 
ATOM     17  C   UNL     1       9.261  10.170   6.116  0.00  0.00    +0.247 C 
ATOM     18  C   UNL     1      13.416   7.084   5.858  0.00  0.00    +0.099 A 
ATOM     19  C   UNL     1      13.018   6.766   7.094  0.00  0.00    +0.030 A 
ENDROOT
BRANCH  17  20
ATOM     20  C   UNL     1       9.916  10.603   7.355  0.00  0.00    +0.037 A 
ATOM     21  C   UNL     1       9.143  10.961   8.458  0.00  0.00    +0.021 A 
ATOM     22  C   UNL     1      11.302  10.654   7.422  0.00  0.00    +0.013 A 
ATOM     23  C   UNL     1       9.755  11.379   9.651  0.00  0.00    -0.017 A 
ATOM     24  C   UNL     1      11.926  11.066   8.600  0.00  0.00    +0.009 A 
ATOM     26  C   UNL     1      11.168  11.432   9.723  0.00  0.00    -0.018 A 
ATOM     27  C   UNL     1       8.996  11.743  10.775  0.00  0.00    +0.008 A 
ATOM     28  C   UNL     1      11.779  11.849  10.917  0.00  0.00    +0.008 A 
ATOM     30  C   UNL     1       9.620  12.156  11.952  0.00  0.00    +0.001 A 
ATOM     31  C   UNL     1      11.009  12.209  12.023  0.00  0.00    +0.001 A 
ENDBRANCH  17  20
BRANCH  18   7
ATOM      4  O   UNL     1      14.895   9.492   6.264  0.00  0.00    -0.269 OA
ATOM      7  N   UNL     1      14.728   7.285   5.545  0.00  0.00    -0.277 N 
ATOM     25  C   UNL     1      15.394   8.483   5.768  0.00  0.00    +0.255 C 
ATOM     35  H   UNL     1      15.154   6.582   4.950  0.00  0.00    +0.155 HD
BRANCH  25  29
ATOM      1  S   UNL     1      17.200   8.234   3.763  0.00  0.00    -0.092 S 
ATOM     29  C   UNL     1      16.828   8.506   5.384  0.00  0.00    +0.074 A 
ATOM     32  C   UNL     1      17.875   8.720   6.194  0.00  0.00    +0.021 A 
ATOM     33  C   UNL     1      19.090   8.663   5.451  0.00  0.00    +0.008 A 
ATOM     34  C   UNL     1      18.867   8.406   4.116  0.00  0.00    +0.046 A 
ENDBRANCH  25  29
ENDBRANCH  18   7
TORSDOF 3
ENDMDL
MODEL 4
REMARK VINA RESULT:      -7.4     31.609     34.147
REMARK  Name = 7155482
REMARK  3 active torsions:
REMARK  status: ('A' for Active; 'I' for Inactive)
REMARK    1  A    between atoms: N_7  and  C_18
REMARK    2  A    between atoms: C_17  and  C_20
REMARK    3  A    between atoms: C_25  and  C_29
REMARK                            x       y       z     vdW  Elec       q    Type
REMARK                         _______ _______ _______ _____ _____    ______ ____
ROOT
ATOM      2  O   UNL     1     -12.369  -7.525   9.198  0.00  0.00    -0.266 OA
ATOM      3  O   UNL     1     -16.572  -4.949  10.767  0.00  0.00    -0.270 OA
ATOM      5  N   UNL     1     -14.770  -4.231  12.076  0.00  0.00    -0.297 N 
ATOM      6  N   UNL     1     -12.341  -5.818  10.793  0.00  0.00    -0.310 N 
ATOM      8  C   UNL     1     -13.428  -6.059  13.100  0.00  0.00    +0.027 C 
ATOM      9  C   UNL     1     -12.335  -3.943  12.477  0.00  0.00    +0.054 C 
ATOM     10  C   UNL     1     -12.385  -5.038  13.541  0.00  0.00    +0.018 C 
ATOM     11  C   UNL     1     -14.809  -5.394  12.963  0.00  0.00    +0.113 C 
ATOM     12  C   UNL     1     -12.964  -6.703  11.787  0.00  0.00    +0.130 C 
ATOM     13  C   UNL     1     -13.712  -3.254  12.379  0.00  0.00    +0.117 C 
ATOM     14  C   UNL     1     -11.954  -4.515  11.124  0.00  0.00    +0.027 A 
ATOM     15  C   UNL     1     -11.282  -3.762  10.236  0.00  0.00    +0.024 A 
ATOM     16  C   UNL     1     -12.063  -6.379   9.530  0.00  0.00    +0.273 A 
ATOM     17  C   UNL     1     -15.686  -4.136  11.026  0.00  0.00    +0.247 C 
ATOM     18  C   UNL     1     -11.337  -5.499   8.561  0.00  0.00    +0.099 A 
ATOM     19  C   UNL     1     -10.970  -4.267   8.929  0.00  0.00    +0.030 A 
ENDROOT
BRANCH  17  20
ATOM     20  C   UNL     1     -15.587  -2.979  10.130  0.00  0.00    +0.037 A 
ATOM     21  C   UNL     1     -16.194  -1.776  10.484  0.00  0.00    +0.021 A 
ATOM     22  C   UNL     1     -14.888  -3.088   8.936  0.00  0.00    +0.013 A 
ATOM     23  C   UNL     1     -16.108  -0.658   9.637  0.00  0.00    -0.017 A 
ATOM     24  C   UNL     1     -14.792  -1.988   8.082  0.00  0.00    +0.009 A 
ATOM     26  C   UNL     1     -15.396  -0.766   8.418  0.00  0.00    -0.018 A 
ATOM     27  C   UNL     1     -16.712   0.564   9.973  0.00  0.00    +0.008 A 
ATOM     28  C   UNL     1     -15.311   0.351   7.572  0.00  0.00    +0.008 A 
ATOM     30  C   UNL     1     -16.617   1.663   9.121  0.00  0.00    +0.001 A 
ATOM     31  C   UNL     1     -15.918   1.557   7.922  0.00  0.00    +0.001 A 
ENDBRANCH  17  20
BRANCH  18   7
ATOM      4  O   UNL     1      -8.933  -6.815   7.763  0.00  0.00    -0.269 OA
ATOM      7  N   UNL     1     -11.067  -5.999   7.321  0.00  0.00    -0.277 N 
ATOM     25  C   UNL     1      -9.874  -6.631   6.994  0.00  0.00    +0.255 C 
ATOM     35  H   UNL     1     -11.698  -5.711   6.580  0.00  0.00    +0.155 HD
BRANCH  25  29
ATOM      1  S   UNL     1      -8.369  -7.964   5.177  0.00  0.00    -0.092 S 
ATOM     29  C   UNL     1      -9.771  -7.132   5.600  0.00  0.00    +0.074 A 
ATOM     32  C   UNL     1     -10.683  -6.994   4.626  0.00  0.00    +0.021 A 
ATOM     33  C   UNL     1     -10.218  -7.611   3.428  0.00  0.00    +0.008 A 
ATOM     34  C   UNL     1      -8.973  -8.176   3.588  0.00  0.00    +0.046 A 
ENDBRANCH  25  29
ENDBRANCH  18   7
TORSDOF 3
ENDMDL
MODEL 5
REMARK VINA RESULT:      -7.4     24.527     27.930
REMARK  Name = 7155482
REMARK  3 active torsions:
REMARK  status: ('A' for Active; 'I' for Inactive)
REMARK    1  A    between atoms: N_7  and  C_18
REMARK    2  A    between atoms: C_17  and  C_20
REMARK    3  A    between atoms: C_25  and  C_29
REMARK                            x       y       z     vdW  Elec       q    Type
REMARK                         _______ _______ _______ _____ _____    ______ ____
ROOT
ATOM      2  O   UNL     1     -13.803   9.710  17.937  0.00  0.00    -0.266 OA
ATOM      3  O   UNL     1     -16.291  10.446  22.413  0.00  0.00    -0.270 OA
ATOM      5  N   UNL     1     -15.603   8.211  22.343  0.00  0.00    -0.297 N 
ATOM      6  N   UNL     1     -13.979   8.098  19.619  0.00  0.00    -0.310 N 
ATOM      8  C   UNL     1     -16.203   6.997  20.255  0.00  0.00    +0.027 C 
ATOM      9  C   UNL     1     -14.149   6.396  21.470  0.00  0.00    +0.054 C 
ATOM     10  C   UNL     1     -15.334   5.824  20.695  0.00  0.00    +0.018 C 
ATOM     11  C   UNL     1     -16.704   7.784  21.479  0.00  0.00    +0.113 C 
ATOM     12  C   UNL     1     -15.395   7.877  19.293  0.00  0.00    +0.130 C 
ATOM     13  C   UNL     1     -14.660   7.145  22.717  0.00  0.00    +0.117 C 
ATOM     14  C   UNL     1     -13.337   7.342  20.604  0.00  0.00    +0.027 A 
ATOM     15  C   UNL     1     -12.015   7.478  20.807  0.00  0.00    +0.024 A 
ATOM     16  C   UNL     1     -13.285   9.033  18.825  0.00  0.00    +0.273 A 
ATOM     17  C   UNL     1     -15.507   9.551  22.723  0.00  0.00    +0.247 C 
ATOM     18  C   UNL     1     -11.820   9.175  19.101  0.00  0.00    +0.099 A 
ATOM     19  C   UNL     1     -11.245   8.416  20.039  0.00  0.00    +0.030 A 
ENDROOT
BRANCH  17  20
ATOM     20  C   UNL     1     -14.364   9.950  23.552  0.00  0.00    +0.037 A 
ATOM     21  C   UNL     1     -14.481   9.947  24.940  0.00  0.00    +0.021 A 
ATOM     22  C   UNL     1     -13.172  10.327  22.948  0.00  0.00    +0.013 A 
ATOM     23  C   UNL     1     -13.396  10.326  25.747  0.00  0.00    -0.017 A 
ATOM     24  C   UNL     1     -12.084  10.707  23.735  0.00  0.00    +0.009 A 
ATOM     26  C   UNL     1     -12.179  10.711  25.135  0.00  0.00    -0.018 A 
ATOM     27  C   UNL     1     -13.491  10.330  27.148  0.00  0.00    +0.008 A 
ATOM     28  C   UNL     1     -11.095  11.090  25.943  0.00  0.00    +0.008 A 
ATOM     30  C   UNL     1     -12.404  10.709  27.935  0.00  0.00    +0.001 A 
ATOM     31  C   UNL     1     -11.208  11.089  27.333  0.00  0.00    +0.001 A 
ENDBRANCH  17  20
BRANCH  18   7
ATOM      4  O   UNL     1     -11.680  11.985  19.584  0.00  0.00    -0.269 OA
ATOM      7  N   UNL     1     -11.116  10.083  18.367  0.00  0.00    -0.277 N 
ATOM     25  C   UNL     1     -11.087  11.442  18.654  0.00  0.00    +0.255 C 
ATOM     35  H   UNL     1     -10.769   9.755  17.471  0.00  0.00    +0.155 HD
BRANCH  25  29
ATOM      1  S   UNL     1     -10.439  13.944  17.838  0.00  0.00    -0.092 S 
ATOM     29  C   UNL     1     -10.245  12.272  17.756  0.00  0.00    +0.074 A 
ATOM     32  C   UNL     1      -9.335  11.834  16.873  0.00  0.00    +0.021 A 
ATOM     33  C   UNL     1      -8.735  12.938  16.200  0.00  0.00    +0.008 A 
ATOM     34  C   UNL     1      -9.244  14.144  16.628  0.00  0.00    +0.046 A 
ENDBRANCH  25  29
ENDBRANCH  18   7
TORSDOF 3
ENDMDL
MODEL 6
REMARK VINA RESULT:      -7.3     22.930     25.204
REMARK  Name = 7155482
REMARK  3 active torsions:
REMARK  status: ('A' for Active; 'I' for Inactive)
REMARK    1  A    between atoms: N_7  and  C_18
REMARK    2  A    between atoms: C_17  and  C_20
REMARK    3  A    between atoms: C_25  and  C_29
REMARK                            x       y       z     vdW  Elec       q    Type
REMARK                         _______ _______ _______ _____ _____    ______ ____
ROOT
ATOM      2  O   UNL     1       9.506  -9.293  32.172  0.00  0.00    -0.266 OA
ATOM      3  O   UNL     1       9.171  -8.607  37.289  0.00  0.00    -0.270 OA
ATOM      5  N   UNL     1       8.664  -6.565  36.264  0.00  0.00    -0.297 N 
ATOM      6  N   UNL     1       8.770  -7.321  33.184  0.00  0.00    -0.310 N 
ATOM      8  C   UNL     1      10.315  -5.811  34.562  0.00  0.00    +0.027 C 
ATOM      9  C   UNL     1       7.939  -5.221  34.305  0.00  0.00    +0.054 C 
ATOM     10  C   UNL     1       9.364  -4.695  34.144  0.00  0.00    +0.018 C 
ATOM     11  C   UNL     1      10.063  -6.211  36.027  0.00  0.00    +0.113 C 
ATOM     12  C   UNL     1      10.141  -6.995  33.602  0.00  0.00    +0.130 C 
ATOM     13  C   UNL     1       7.684  -5.578  35.783  0.00  0.00    +0.117 C 
ATOM     14  C   UNL     1       7.709  -6.446  33.438  0.00  0.00    +0.027 A 
ATOM     15  C   UNL     1       6.485  -6.707  32.947  0.00  0.00    +0.024 A 
ATOM     16  C   UNL     1       8.600  -8.501  32.434  0.00  0.00    +0.273 A 
ATOM     17  C   UNL     1       8.357  -7.778  36.886  0.00  0.00    +0.247 C 
ATOM     18  C   UNL     1       7.216  -8.769  31.929  0.00  0.00    +0.099 A 
ATOM     19  C   UNL     1       6.237  -7.894  32.179  0.00  0.00    +0.030 A 
ENDROOT
BRANCH  17  20
ATOM     20  C   UNL     1       6.942  -8.119  37.065  0.00  0.00    +0.037 A 
ATOM     21  C   UNL     1       6.243  -8.741  36.032  0.00  0.00    +0.021 A 
ATOM     22  C   UNL     1       6.307  -7.822  38.264  0.00  0.00    +0.013 A 
ATOM     23  C   UNL     1       4.887  -9.074  36.190  0.00  0.00    -0.017 A 
ATOM     24  C   UNL     1       4.961  -8.147  38.437  0.00  0.00    +0.009 A 
ATOM     26  C   UNL     1       4.237  -8.772  37.410  0.00  0.00    -0.018 A 
ATOM     27  C   UNL     1       4.164  -9.701  35.162  0.00  0.00    +0.008 A 
ATOM     28  C   UNL     1       2.881  -9.106  37.566  0.00  0.00    +0.008 A 
ATOM     30  C   UNL     1       2.818 -10.025  35.335  0.00  0.00    +0.001 A 
ATOM     31  C   UNL     1       2.178  -9.727  36.534  0.00  0.00    +0.001 A 
ENDBRANCH  17  20
BRANCH  18   7
ATOM      4  O   UNL     1       6.514 -11.320  33.000  0.00  0.00    -0.269 OA
ATOM      7  N   UNL     1       7.006  -9.912  31.215  0.00  0.00    -0.277 N 
ATOM     25  C   UNL     1       6.665 -11.126  31.796  0.00  0.00    +0.255 C 
ATOM     35  H   UNL     1       7.309  -9.890  30.246  0.00  0.00    +0.155 HD
BRANCH  25  29
ATOM      1  S   UNL     1       7.582 -12.455  29.619  0.00  0.00    -0.092 S 
ATOM     29  C   UNL     1       6.454 -12.255  30.854  0.00  0.00    +0.074 A 
ATOM     32  C   UNL     1       5.451 -13.145  30.877  0.00  0.00    +0.021 A 
ATOM     33  C   UNL     1       5.597 -14.076  29.807  0.00  0.00    +0.008 A 
ATOM     34  C   UNL     1       6.714 -13.816  29.045  0.00  0.00    +0.046 A 
ENDBRANCH  25  29
ENDBRANCH  18   7
TORSDOF 3
ENDMDL
MODEL 7
REMARK VINA RESULT:      -7.2     28.185     30.426
REMARK  Name = 7155482
REMARK  3 active torsions:
REMARK  status: ('A' for Active; 'I' for Inactive)
REMARK    1  A    between atoms: N_7  and  C_18
REMARK    2  A    between atoms: C_17  and  C_20
REMARK    3  A    between atoms: C_25  and  C_29
REMARK                            x       y       z     vdW  Elec       q    Type
REMARK                         _______ _______ _______ _____ _____    ______ ____
ROOT
ATOM      2  O   UNL     1      -8.404  -9.716  16.960  0.00  0.00    -0.266 OA
ATOM      3  O   UNL     1      -3.278 -10.264  16.521  0.00  0.00    -0.270 OA
ATOM      5  N   UNL     1      -4.257 -12.333  16.037  0.00  0.00    -0.297 N 
ATOM      6  N   UNL     1      -7.353 -11.662  16.206  0.00  0.00    -0.310 N 
ATOM      8  C   UNL     1      -5.904 -13.130  17.724  0.00  0.00    +0.027 C 
ATOM      9  C   UNL     1      -6.194 -13.731  15.355  0.00  0.00    +0.054 C 
ATOM     10  C   UNL     1      -6.311 -14.259  16.783  0.00  0.00    +0.018 C 
ATOM     11  C   UNL     1      -4.456 -12.692  17.442  0.00  0.00    +0.113 C 
ATOM     12  C   UNL     1      -6.899 -11.973  17.569  0.00  0.00    +0.130 C 
ATOM     13  C   UNL     1      -4.731 -13.335  15.069  0.00  0.00    +0.117 C 
ATOM     14  C   UNL     1      -7.098 -12.531  15.141  0.00  0.00    +0.027 A 
ATOM     15  C   UNL     1      -7.620 -12.286  13.927  0.00  0.00    +0.024 A 
ATOM     16  C   UNL     1      -8.139 -10.502  16.050  0.00  0.00    +0.273 A 
ATOM     17  C   UNL     1      -3.675 -11.105  15.717  0.00  0.00    +0.247 C 
ATOM     18  C   UNL     1      -8.679 -10.250  14.676  0.00  0.00    +0.099 A 
ATOM     19  C   UNL     1      -8.425 -11.120  13.693  0.00  0.00    +0.030 A 
ENDROOT
BRANCH  17  20
ATOM     20  C   UNL     1      -3.534 -10.761  14.298  0.00  0.00    +0.037 A 
ATOM     21  C   UNL     1      -4.629 -10.269  13.592  0.00  0.00    +0.021 A 
ATOM     22  C   UNL     1      -2.308 -10.928  13.666  0.00  0.00    +0.013 A 
ATOM     23  C   UNL     1      -4.510  -9.935  12.233  0.00  0.00    -0.017 A 
ATOM     24  C   UNL     1      -2.172 -10.601  12.316  0.00  0.00    +0.009 A 
ATOM     26  C   UNL     1      -3.262 -10.104  11.585  0.00  0.00    -0.018 A 
ATOM     27  C   UNL     1      -5.600  -9.436  11.502  0.00  0.00    +0.008 A 
ATOM     28  C   UNL     1      -3.144  -9.770  10.226  0.00  0.00    +0.008 A 
ATOM     30  C   UNL     1      -5.464  -9.110  10.153  0.00  0.00    +0.001 A 
ATOM     31  C   UNL     1      -4.239  -9.277   9.516  0.00  0.00    +0.001 A 
ENDBRANCH  17  20
BRANCH  18   7
ATOM      4  O   UNL     1     -11.517 -10.058  14.909  0.00  0.00    -0.269 OA
ATOM      7  N   UNL     1      -9.428  -9.128  14.480  0.00  0.00    -0.277 N 
ATOM     25  C   UNL     1     -10.810  -9.098  14.609  0.00  0.00    +0.255 C 
ATOM     35  H   UNL     1      -8.953  -8.350  14.034  0.00  0.00    +0.155 HD
BRANCH  25  29
ATOM      1  S   UNL     1     -11.087  -6.540  15.463  0.00  0.00    -0.092 S 
ATOM     29  C   UNL     1     -11.451  -7.778  14.380  0.00  0.00    +0.074 A 
ATOM     32  C   UNL     1     -12.300  -7.456  13.392  0.00  0.00    +0.021 A 
ATOM     33  C   UNL     1     -12.696  -6.092  13.511  0.00  0.00    +0.008 A 
ATOM     34  C   UNL     1     -12.111  -5.477  14.595  0.00  0.00    +0.046 A 
ENDBRANCH  25  29
ENDBRANCH  18   7
TORSDOF 3
ENDMDL
MODEL 8
REMARK VINA RESULT:      -7.1     31.516     33.107
REMARK  Name = 7155482
REMARK  3 active torsions:
REMARK  status: ('A' for Active; 'I' for Inactive)
REMARK    1  A    between atoms: N_7  and  C_18
REMARK    2  A    between atoms: C_17  and  C_20
REMARK    3  A    between atoms: C_25  and  C_29
REMARK                            x       y       z     vdW  Elec       q    Type
REMARK                         _______ _______ _______ _____ _____    ______ ____
ROOT
ATOM      2  O   UNL     1     -16.845   7.673  28.687  0.00  0.00    -0.266 OA
ATOM      3  O   UNL     1     -13.661   6.216  32.495  0.00  0.00    -0.270 OA
ATOM      5  N   UNL     1     -15.830   6.280  33.369  0.00  0.00    -0.297 N 
ATOM      6  N   UNL     1     -17.558   7.015  30.812  0.00  0.00    -0.310 N 
ATOM      8  C   UNL     1     -17.076   8.387  32.921  0.00  0.00    +0.027 C 
ATOM      9  C   UNL     1     -18.300   6.259  33.099  0.00  0.00    +0.054 C 
ATOM     10  C   UNL     1     -18.348   7.742  33.460  0.00  0.00    +0.018 C 
ATOM     11  C   UNL     1     -15.833   7.732  33.549  0.00  0.00    +0.113 C 
ATOM     12  C   UNL     1     -17.076   8.277  31.391  0.00  0.00    +0.130 C 
ATOM     13  C   UNL     1     -17.074   5.603  33.769  0.00  0.00    +0.117 C 
ATOM     14  C   UNL     1     -18.223   6.066  31.595  0.00  0.00    +0.027 A 
ATOM     15  C   UNL     1     -18.757   4.972  31.025  0.00  0.00    +0.024 A 
ATOM     16  C   UNL     1     -17.407   6.859  29.420  0.00  0.00    +0.273 A 
ATOM     17  C   UNL     1     -14.703   5.656  32.831  0.00  0.00    +0.247 C 
ATOM     18  C   UNL     1     -17.993   5.614  28.827  0.00  0.00    +0.099 A 
ATOM     19  C   UNL     1     -18.636   4.745  29.613  0.00  0.00    +0.030 A 
ENDROOT
BRANCH  17  20
ATOM     20  C   UNL     1     -14.755   4.205  32.623  0.00  0.00    +0.037 A 
ATOM     21  C   UNL     1     -15.146   3.696  31.387  0.00  0.00    +0.021 A 
ATOM     22  C   UNL     1     -14.411   3.346  33.659  0.00  0.00    +0.013 A 
ATOM     23  C   UNL     1     -15.200   2.309  31.172  0.00  0.00    -0.017 A 
ATOM     24  C   UNL     1     -14.460   1.965  33.464  0.00  0.00    +0.009 A 
ATOM     26  C   UNL     1     -14.852   1.430  32.227  0.00  0.00    -0.018 A 
ATOM     27  C   UNL     1     -15.592   1.774  29.934  0.00  0.00    +0.008 A 
ATOM     28  C   UNL     1     -14.907   0.044  32.011  0.00  0.00    +0.008 A 
ATOM     30  C   UNL     1     -15.640   0.394  29.738  0.00  0.00    +0.001 A 
ATOM     31  C   UNL     1     -15.299  -0.470  30.775  0.00  0.00    +0.001 A 
ENDBRANCH  17  20
BRANCH  18   7
ATOM      4  O   UNL     1     -16.111   3.874  27.571  0.00  0.00    -0.269 OA
ATOM      7  N   UNL     1     -17.851   5.416  27.486  0.00  0.00    -0.277 N 
ATOM     25  C   UNL     1     -16.913   4.552  26.934  0.00  0.00    +0.255 C 
ATOM     35  H   UNL     1     -18.327   6.083  26.887  0.00  0.00    +0.155 HD
BRANCH  25  29
ATOM      1  S   UNL     1     -15.781   3.440  24.737  0.00  0.00    -0.092 S 
ATOM     29  C   UNL     1     -16.924   4.450  25.452  0.00  0.00    +0.074 A 
ATOM     32  C   UNL     1     -17.753   5.082  24.608  0.00  0.00    +0.021 A 
ATOM     33  C   UNL     1     -17.447   4.725  23.263  0.00  0.00    +0.008 A 
ATOM     34  C   UNL     1     -16.395   3.839  23.189  0.00  0.00    +0.046 A 
ENDBRANCH  25  29
ENDBRANCH  18   7
TORSDOF 3
ENDMDL
MODEL 9
REMARK VINA RESULT:      -7.1     25.532     27.016
REMARK  Name = 7155482
REMARK  3 active torsions:
REMARK  status: ('A' for Active; 'I' for Inactive)
REMARK    1  A    between atoms: N_7  and  C_18
REMARK    2  A    between atoms: C_17  and  C_20
REMARK    3  A    between atoms: C_25  and  C_29
REMARK                            x       y       z     vdW  Elec       q    Type
REMARK                         _______ _______ _______ _____ _____    ______ ____
ROOT
ATOM      2  O   UNL     1       4.175 -10.984  38.808  0.00  0.00    -0.266 OA
ATOM      3  O   UNL     1       7.207 -13.654  35.576  0.00  0.00    -0.270 OA
ATOM      5  N   UNL     1       4.986 -14.065  34.968  0.00  0.00    -0.297 N 
ATOM      6  N   UNL     1       3.388 -12.192  36.969  0.00  0.00    -0.310 N 
ATOM      8  C   UNL     1       3.497 -14.748  36.842  0.00  0.00    +0.027 C 
ATOM      9  C   UNL     1       2.575 -13.467  34.953  0.00  0.00    +0.054 C 
ATOM     10  C   UNL     1       2.289 -14.612  35.922  0.00  0.00    +0.018 C 
ATOM     11  C   UNL     1       4.764 -15.054  36.022  0.00  0.00    +0.113 C 
ATOM     12  C   UNL     1       3.639 -13.462  37.665  0.00  0.00    +0.130 C 
ATOM     13  C   UNL     1       3.820 -13.804  34.108  0.00  0.00    +0.117 C 
ATOM     14  C   UNL     1       2.802 -12.165  35.700  0.00  0.00    +0.027 A 
ATOM     15  C   UNL     1       2.475 -10.993  35.129  0.00  0.00    +0.024 A 
ATOM     16  C   UNL     1       3.674 -11.011  37.683  0.00  0.00    +0.273 A 
ATOM     17  C   UNL     1       6.230 -13.441  34.861  0.00  0.00    +0.247 C 
ATOM     18  C   UNL     1       3.320  -9.725  37.002  0.00  0.00    +0.099 A 
ATOM     19  C   UNL     1       2.743  -9.750  35.796  0.00  0.00    +0.030 A 
ENDROOT
BRANCH  17  20
ATOM     20  C   UNL     1       6.400 -12.421  33.820  0.00  0.00    +0.037 A 
ATOM     21  C   UNL     1       6.084 -11.092  34.094  0.00  0.00    +0.021 A 
ATOM     22  C   UNL     1       6.877 -12.787  32.567  0.00  0.00    +0.013 A 
ATOM     23  C   UNL     1       6.242 -10.105  33.107  0.00  0.00    -0.017 A 
ATOM     24  C   UNL     1       7.039 -11.818  31.576  0.00  0.00    +0.009 A 
ATOM     26  C   UNL     1       6.727 -10.474  31.829  0.00  0.00    -0.018 A 
ATOM     27  C   UNL     1       5.930  -8.759  33.361  0.00  0.00    +0.008 A 
ATOM     28  C   UNL     1       6.884  -9.486  30.843  0.00  0.00    +0.008 A 
ATOM     30  C   UNL     1       6.092  -7.792  32.370  0.00  0.00    +0.001 A 
ATOM     31  C   UNL     1       6.568  -8.154  31.113  0.00  0.00    +0.001 A 
ENDBRANCH  17  20
BRANCH  18   7
ATOM      4  O   UNL     1       5.756  -8.246  36.838  0.00  0.00    -0.269 OA
ATOM      7  N   UNL     1       3.599  -8.559  37.652  0.00  0.00    -0.277 N 
ATOM     25  C   UNL     1       4.807  -7.885  37.530  0.00  0.00    +0.255 C 
ATOM     35  H   UNL     1       2.957  -8.302  38.395  0.00  0.00    +0.155 HD
BRANCH  25  29
ATOM      1  S   UNL     1       6.216  -5.606  37.938  0.00  0.00    -0.092 S 
ATOM     29  C   UNL     1       4.918  -6.618  38.297  0.00  0.00    +0.074 A 
ATOM     32  C   UNL     1       4.088  -6.183  39.257  0.00  0.00    +0.021 A 
ATOM     33  C   UNL     1       4.530  -4.922  39.753  0.00  0.00    +0.008 A 
ATOM     34  C   UNL     1       5.677  -4.492  39.123  0.00  0.00    +0.046 A 
ENDBRANCH  25  29
ENDBRANCH  18   7
TORSDOF 3
ENDMDL
MODEL 10
REMARK VINA RESULT:      -6.8     29.316     32.298
REMARK  Name = 7155482
REMARK  3 active torsions:
REMARK  status: ('A' for Active; 'I' for Inactive)
REMARK    1  A    between atoms: N_7  and  C_18
REMARK    2  A    between atoms: C_17  and  C_20
REMARK    3  A    between atoms: C_25  and  C_29
REMARK                            x       y       z     vdW  Elec       q    Type
REMARK                         _______ _______ _______ _____ _____    ______ ____
ROOT
ATOM      2  O   UNL     1     -13.521  -8.595  17.170  0.00  0.00    -0.266 OA
ATOM      3  O   UNL     1      -9.922 -10.280  20.483  0.00  0.00    -0.270 OA
ATOM      5  N   UNL     1     -10.530 -12.081  19.118  0.00  0.00    -0.297 N 
ATOM      6  N   UNL     1     -12.580 -10.732  17.107  0.00  0.00    -0.310 N 
ATOM      8  C   UNL     1     -12.981 -12.476  18.940  0.00  0.00    +0.027 C 
ATOM      9  C   UNL     1     -11.514 -13.015  17.037  0.00  0.00    +0.054 C 
ATOM     10  C   UNL     1     -12.729 -13.492  17.830  0.00  0.00    +0.018 C 
ATOM     11  C   UNL     1     -11.754 -12.375  19.864  0.00  0.00    +0.113 C 
ATOM     12  C   UNL     1     -13.338 -11.127  18.303  0.00  0.00    +0.130 C 
ATOM     13  C   UNL     1     -10.282 -12.958  17.963  0.00  0.00    +0.117 C 
ATOM     14  C   UNL     1     -11.762 -11.644  16.434  0.00  0.00    +0.027 A 
ATOM     15  C   UNL     1     -11.169 -11.297  15.278  0.00  0.00    +0.024 A 
ATOM     16  C   UNL     1     -12.798  -9.427  16.622  0.00  0.00    +0.273 A 
ATOM     17  C   UNL     1      -9.720 -11.017  19.519  0.00  0.00    +0.247 C 
ATOM     18  C   UNL     1     -12.098  -9.071  15.347  0.00  0.00    +0.099 A 
ATOM     19  C   UNL     1     -11.342  -9.983  14.728  0.00  0.00    +0.030 A 
ENDROOT
BRANCH  17  20
ATOM     20  C   UNL     1      -8.525 -10.724  18.720  0.00  0.00    +0.037 A 
ATOM     21  C   UNL     1      -7.312 -11.330  19.041  0.00  0.00    +0.021 A 
ATOM     22  C   UNL     1      -8.610  -9.847  17.647  0.00  0.00    +0.013 A 
ATOM     23  C   UNL     1      -6.159 -11.060  18.285  0.00  0.00    -0.017 A 
ATOM     24  C   UNL     1      -7.475  -9.568  16.885  0.00  0.00    +0.009 A 
ATOM     26  C   UNL     1      -6.242 -10.166  17.191  0.00  0.00    -0.018 A 
ATOM     27  C   UNL     1      -4.927 -11.660  18.590  0.00  0.00    +0.008 A 
ATOM     28  C   UNL     1      -5.089  -9.897  16.436  0.00  0.00    +0.008 A 
ATOM     30  C   UNL     1      -3.792 -11.381  17.829  0.00  0.00    +0.001 A 
ATOM     31  C   UNL     1      -3.872 -10.501  16.754  0.00  0.00    +0.001 A 
ENDBRANCH  17  20
BRANCH  18   7
ATOM      4  O   UNL     1     -14.057  -8.260  13.435  0.00  0.00    -0.269 OA
ATOM      7  N   UNL     1     -12.269  -7.811  14.854  0.00  0.00    -0.277 N 
ATOM     25  C   UNL     1     -13.244  -7.478  13.923  0.00  0.00    +0.255 C 
ATOM     35  H   UNL     1     -11.518  -7.155  15.045  0.00  0.00    +0.155 HD
BRANCH  25  29
ATOM      1  S   UNL     1     -14.813  -5.348  13.332  0.00  0.00    -0.092 S 
ATOM     29  C   UNL     1     -13.292  -6.049  13.522  0.00  0.00    +0.074 A 
ATOM     32  C   UNL     1     -12.246  -5.242  13.291  0.00  0.00    +0.021 A 
ATOM     33  C   UNL     1     -12.701  -3.941  12.928  0.00  0.00    +0.008 A 
ATOM     34  C   UNL     1     -14.076  -3.861  12.912  0.00  0.00    +0.046 A 
ENDBRANCH  25  29
ENDBRANCH  18   7
TORSDOF 3
ENDMDL
