MODEL 1
REMARK VINA RESULT:      -6.4      0.000      0.000
REMARK  Name = 11885192
REMARK  1 active torsions:
REMARK  status: ('A' for Active; 'I' for Inactive)
REMARK    1  A    between atoms: C_14  and  C_16
REMARK                            x       y       z     vdW  Elec       q    Type
REMARK                         _______ _______ _______ _____ _____    ______ ____
ROOT
ATOM      2  O   UNL     1      19.629   7.567  22.033  0.00  0.00    -0.267 OA
ATOM      3  N   UNL     1      17.612   7.523  20.863  0.00  0.00    -0.311 N 
ATOM      4  N   UNL     1      14.634   6.997  21.911  0.00  0.00    -0.315 NA
ATOM      5  C   UNL     1      15.712   9.182  21.317  0.00  0.00    +0.023 C 
ATOM      6  C   UNL     1      15.439   7.465  19.592  0.00  0.00    +0.050 C 
ATOM      7  C   UNL     1      15.374   8.969  19.846  0.00  0.00    +0.017 C 
ATOM      8  C   UNL     1      17.159   8.734  21.562  0.00  0.00    +0.130 C 
ATOM      9  C   UNL     1      14.702   8.429  22.205  0.00  0.00    +0.086 C 
ATOM     10  C   UNL     1      14.407   6.746  20.486  0.00  0.00    +0.090 C 
ATOM     11  C   UNL     1      16.835   6.934  19.862  0.00  0.00    +0.026 A 
ATOM     12  C   UNL     1      17.317   5.896  19.159  0.00  0.00    +0.022 A 
ATOM     13  C   UNL     1      18.902   7.053  21.181  0.00  0.00    +0.260 A 
ATOM     14  C   UNL     1      19.401   5.867  20.399  0.00  0.00    +0.053 A 
ATOM     15  C   UNL     1      18.615   5.354  19.439  0.00  0.00    +0.016 A 
ATOM     20  H   UNL     1      13.888   6.570  22.458  0.00  0.00    +0.122 HD
ENDROOT
BRANCH  14  16
ATOM      1  S   UNL     1      22.139   6.202  20.465  0.00  0.00    -0.096 S 
ATOM     16  C   UNL     1      20.716   5.267  20.679  0.00  0.00    +0.024 A 
ATOM     17  C   UNL     1      21.010   3.988  21.114  0.00  0.00    +0.016 A 
ATOM     18  C   UNL     1      22.411   3.778  21.271  0.00  0.00    +0.008 A 
ATOM     19  C   UNL     1      23.141   4.902  20.951  0.00  0.00    +0.046 A 
ENDBRANCH  14  16
TORSDOF 1
ENDMDL
MODEL 2
REMARK VINA RESULT:      -6.3      2.733      6.150
REMARK  Name = 11885192
REMARK  1 active torsions:
REMARK  status: ('A' for Active; 'I' for Inactive)
REMARK    1  A    between atoms: C_14  and  C_16
REMARK                            x       y       z     vdW  Elec       q    Type
REMARK                         _______ _______ _______ _____ _____    ______ ____
ROOT
ATOM      2  O   UNL     1      16.921   5.729  19.388  0.00  0.00    -0.267 OA
ATOM      3  N   UNL     1      18.402   7.069  20.591  0.00  0.00    -0.311 N 
ATOM      4  N   UNL     1      19.902   6.506  23.363  0.00  0.00    -0.315 NA
ATOM      5  C   UNL     1      20.833   6.389  21.037  0.00  0.00    +0.023 C 
ATOM      6  C   UNL     1      19.992   8.524  21.892  0.00  0.00    +0.050 C 
ATOM      7  C   UNL     1      21.095   7.891  21.047  0.00  0.00    +0.017 C 
ATOM      8  C   UNL     1      19.498   6.125  20.328  0.00  0.00    +0.130 C 
ATOM      9  C   UNL     1      20.857   5.840  22.477  0.00  0.00    +0.086 C 
ATOM     10  C   UNL     1      20.055   7.963  23.328  0.00  0.00    +0.090 C 
ATOM     11  C   UNL     1      18.628   8.263  21.280  0.00  0.00    +0.026 A 
ATOM     12  C   UNL     1      17.640   9.162  21.411  0.00  0.00    +0.022 A 
ATOM     13  C   UNL     1      17.149   6.756  20.030  0.00  0.00    +0.260 A 
ATOM     14  C   UNL     1      16.051   7.768  20.222  0.00  0.00    +0.053 A 
ATOM     15  C   UNL     1      16.332   8.904  20.879  0.00  0.00    +0.016 A 
ATOM     20  H   UNL     1      20.027   6.170  24.316  0.00  0.00    +0.122 HD
ENDROOT
BRANCH  14  16
ATOM      1  S   UNL     1      14.277   8.011  18.122  0.00  0.00    -0.096 S 
ATOM     16  C   UNL     1      14.690   7.524  19.715  0.00  0.00    +0.024 A 
ATOM     17  C   UNL     1      13.620   6.927  20.356  0.00  0.00    +0.016 A 
ATOM     18  C   UNL     1      12.458   6.871  19.533  0.00  0.00    +0.008 A 
ATOM     19  C   UNL     1      12.676   7.426  18.292  0.00  0.00    +0.046 A 
ENDBRANCH  14  16
TORSDOF 1
ENDMDL
MODEL 3
REMARK VINA RESULT:      -6.3     31.667     33.459
REMARK  Name = 11885192
REMARK  1 active torsions:
REMARK  status: ('A' for Active; 'I' for Inactive)
REMARK    1  A    between atoms: C_14  and  C_16
REMARK                            x       y       z     vdW  Elec       q    Type
REMARK                         _______ _______ _______ _____ _____    ______ ____
ROOT
ATOM      2  O   UNL     1       0.321   0.438  -5.217  0.00  0.00    -0.267 OA
ATOM      3  N   UNL     1       1.041   2.410  -6.233  0.00  0.00    -0.311 N 
ATOM      4  N   UNL     1       0.848   5.439  -5.216  0.00  0.00    -0.315 NA
ATOM      5  C   UNL     1       2.841   3.918  -5.206  0.00  0.00    +0.023 C 
ATOM      6  C   UNL     1       1.809   4.537  -7.339  0.00  0.00    +0.050 C 
ATOM      7  C   UNL     1       3.149   4.283  -6.653  0.00  0.00    +0.017 C 
ATOM      8  C   UNL     1       2.055   2.600  -5.186  0.00  0.00    +0.130 C 
ATOM      9  C   UNL     1       2.081   5.071  -4.522  0.00  0.00    +0.086 C 
ATOM     10  C   UNL     1       1.084   5.705  -6.637  0.00  0.00    +0.090 C 
ATOM     11  C   UNL     1       0.948   3.287  -7.316  0.00  0.00    +0.026 A 
ATOM     12  C   UNL     1       0.091   3.032  -8.318  0.00  0.00    +0.022 A 
ATOM     13  C   UNL     1       0.244   1.251  -6.140  0.00  0.00    +0.260 A 
ATOM     14  C   UNL     1      -0.731   1.010  -7.261  0.00  0.00    +0.053 A 
ATOM     15  C   UNL     1      -0.763   1.880  -8.283  0.00  0.00    +0.016 A 
ATOM     20  H   UNL     1       0.439   6.262  -4.777  0.00  0.00    +0.122 HD
ENDROOT
BRANCH  14  16
ATOM      1  S   UNL     1      -3.164  -0.039  -8.031  0.00  0.00    -0.096 S 
ATOM     16  C   UNL     1      -1.643  -0.146  -7.244  0.00  0.00    +0.024 A 
ATOM     17  C   UNL     1      -1.460  -1.385  -6.659  0.00  0.00    +0.016 A 
ATOM     18  C   UNL     1      -2.576  -2.248  -6.859  0.00  0.00    +0.008 A 
ATOM     19  C   UNL     1      -3.574  -1.643  -7.590  0.00  0.00    +0.046 A 
ENDBRANCH  14  16
TORSDOF 1
ENDMDL
MODEL 4
REMARK VINA RESULT:      -6.2      5.975      8.642
REMARK  Name = 11885192
REMARK  1 active torsions:
REMARK  status: ('A' for Active; 'I' for Inactive)
REMARK    1  A    between atoms: C_14  and  C_16
REMARK                            x       y       z     vdW  Elec       q    Type
REMARK                         _______ _______ _______ _____ _____    ______ ____
ROOT
ATOM      2  O   UNL     1      13.769  11.291  22.079  0.00  0.00    -0.267 OA
ATOM      3  N   UNL     1      13.145   9.506  20.714  0.00  0.00    -0.311 N 
ATOM      4  N   UNL     1      12.820   9.363  17.533  0.00  0.00    -0.315 NA
ATOM      5  C   UNL     1      14.706   8.505  18.945  0.00  0.00    +0.023 C 
ATOM      6  C   UNL     1      12.459   7.580  19.246  0.00  0.00    +0.050 C 
ATOM      7  C   UNL     1      13.942   7.215  19.215  0.00  0.00    +0.017 C 
ATOM      8  C   UNL     1      14.491   9.463  20.124  0.00  0.00    +0.130 C 
ATOM      9  C   UNL     1      14.259   9.112  17.600  0.00  0.00    +0.086 C 
ATOM     10  C   UNL     1      12.045   8.169  17.881  0.00  0.00    +0.090 C 
ATOM     11  C   UNL     1      12.172   8.568  20.361  0.00  0.00    +0.026 A 
ATOM     12  C   UNL     1      10.987   8.556  20.993  0.00  0.00    +0.022 A 
ATOM     13  C   UNL     1      12.924  10.470  21.718  0.00  0.00    +0.260 A 
ATOM     14  C   UNL     1      11.574  10.453  22.385  0.00  0.00    +0.053 A 
ATOM     15  C   UNL     1      10.686   9.517  22.014  0.00  0.00    +0.016 A 
ATOM     20  H   UNL     1      12.569   9.673  16.595  0.00  0.00    +0.122 HD
ENDROOT
BRANCH  14  16
ATOM      1  S   UNL     1      10.776  13.033  22.952  0.00  0.00    -0.096 S 
ATOM     16  C   UNL     1      11.220  11.442  23.417  0.00  0.00    +0.024 A 
ATOM     17  C   UNL     1      11.186  11.287  24.791  0.00  0.00    +0.016 A 
ATOM     18  C   UNL     1      10.792  12.481  25.461  0.00  0.00    +0.008 A 
ATOM     19  C   UNL     1      10.540  13.509  24.580  0.00  0.00    +0.046 A 
ENDBRANCH  14  16
TORSDOF 1
ENDMDL
MODEL 5
REMARK VINA RESULT:      -5.8     29.395     31.805
REMARK  Name = 11885192
REMARK  1 active torsions:
REMARK  status: ('A' for Active; 'I' for Inactive)
REMARK    1  A    between atoms: C_14  and  C_16
REMARK                            x       y       z     vdW  Elec       q    Type
REMARK                         _______ _______ _______ _____ _____    ______ ____
ROOT
ATOM      2  O   UNL     1     -14.192   8.996  18.865  0.00  0.00    -0.267 OA
ATOM      3  N   UNL     1     -14.336   7.272  20.429  0.00  0.00    -0.311 N 
ATOM      4  N   UNL     1     -15.490   7.291  23.414  0.00  0.00    -0.315 NA
ATOM      5  C   UNL     1     -16.572   6.406  21.333  0.00  0.00    +0.023 C 
ATOM      6  C   UNL     1     -14.477   5.411  22.117  0.00  0.00    +0.050 C 
ATOM      7  C   UNL     1     -15.829   5.085  21.486  0.00  0.00    +0.017 C 
ATOM      8  C   UNL     1     -15.803   7.294  20.345  0.00  0.00    +0.130 C 
ATOM      9  C   UNL     1     -16.753   7.073  22.710  0.00  0.00    +0.086 C 
ATOM     10  C   UNL     1     -14.697   6.062  23.499  0.00  0.00    +0.090 C 
ATOM     11  C   UNL     1     -13.672   6.331  21.219  0.00  0.00    +0.026 A 
ATOM     12  C   UNL     1     -12.331   6.255  21.193  0.00  0.00    +0.022 A 
ATOM     13  C   UNL     1     -13.640   8.175  19.600  0.00  0.00    +0.260 A 
ATOM     14  C   UNL     1     -12.138   8.089  19.618  0.00  0.00    +0.053 A 
ATOM     15  C   UNL     1     -11.557   7.153  20.385  0.00  0.00    +0.016 A 
ATOM     20  H   UNL     1     -15.676   7.645  24.351  0.00  0.00    +0.122 HD
ENDROOT
BRANCH  14  16
ATOM      1  S   UNL     1     -10.736   8.526  17.282  0.00  0.00    -0.096 S 
ATOM     16  C   UNL     1     -11.310   9.013  18.824  0.00  0.00    +0.024 A 
ATOM     17  C   UNL     1     -10.893  10.293  19.140  0.00  0.00    +0.016 A 
ATOM     18  C   UNL     1     -10.099  10.873  18.109  0.00  0.00    +0.008 A 
ATOM     19  C   UNL     1      -9.934  10.020  17.040  0.00  0.00    +0.046 A 
ENDBRANCH  14  16
TORSDOF 1
ENDMDL
MODEL 6
REMARK VINA RESULT:      -5.8     17.581     19.533
REMARK  Name = 11885192
REMARK  1 active torsions:
REMARK  status: ('A' for Active; 'I' for Inactive)
REMARK    1  A    between atoms: C_14  and  C_16
REMARK                            x       y       z     vdW  Elec       q    Type
REMARK                         _______ _______ _______ _____ _____    ______ ____
ROOT
ATOM      2  O   UNL     1      10.525   4.344   4.268  0.00  0.00    -0.267 OA
ATOM      3  N   UNL     1      11.952   5.099   2.585  0.00  0.00    -0.311 N 
ATOM      4  N   UNL     1      15.101   4.665   2.207  0.00  0.00    -0.315 NA
ATOM      5  C   UNL     1      13.217   3.507   1.025  0.00  0.00    +0.023 C 
ATOM      6  C   UNL     1      13.490   5.928   0.773  0.00  0.00    +0.050 C 
ATOM      7  C   UNL     1      13.119   4.651   0.023  0.00  0.00    +0.017 C 
ATOM      8  C   UNL     1      12.166   3.720   2.122  0.00  0.00    +0.130 C 
ATOM      9  C   UNL     1      14.650   3.420   1.588  0.00  0.00    +0.086 C 
ATOM     10  C   UNL     1      14.933   5.810   1.308  0.00  0.00    +0.090 C 
ATOM     11  C   UNL     1      12.521   6.183   1.912  0.00  0.00    +0.026 A 
ATOM     12  C   UNL     1      12.222   7.438   2.283  0.00  0.00    +0.022 A 
ATOM     13  C   UNL     1      11.071   5.274   3.671  0.00  0.00    +0.260 A 
ATOM     14  C   UNL     1      10.782   6.691   4.086  0.00  0.00    +0.053 A 
ATOM     15  C   UNL     1      11.345   7.692   3.390  0.00  0.00    +0.016 A 
ATOM     20  H   UNL     1      16.080   4.580   2.475  0.00  0.00    +0.122 HD
ENDROOT
BRANCH  14  16
ATOM      1  S   UNL     1      10.582   7.077   6.811  0.00  0.00    -0.096 S 
ATOM     16  C   UNL     1       9.910   6.989   5.235  0.00  0.00    +0.024 A 
ATOM     17  C   UNL     1       8.547   7.223   5.250  0.00  0.00    +0.016 A 
ATOM     18  C   UNL     1       8.057   7.476   6.564  0.00  0.00    +0.008 A 
ATOM     19  C   UNL     1       9.058   7.426   7.509  0.00  0.00    +0.046 A 
ENDBRANCH  14  16
TORSDOF 1
ENDMDL
MODEL 7
REMARK VINA RESULT:      -5.8     33.210     34.173
REMARK  Name = 11885192
REMARK  1 active torsions:
REMARK  status: ('A' for Active; 'I' for Inactive)
REMARK    1  A    between atoms: C_14  and  C_16
REMARK                            x       y       z     vdW  Elec       q    Type
REMARK                         _______ _______ _______ _____ _____    ______ ____
ROOT
ATOM      2  O   UNL     1     -11.432  -7.554   9.844  0.00  0.00    -0.267 OA
ATOM      3  N   UNL     1     -12.140  -5.561  10.828  0.00  0.00    -0.311 N 
ATOM      4  N   UNL     1     -15.086  -4.348  11.135  0.00  0.00    -0.315 NA
ATOM      5  C   UNL     1     -13.689  -5.499  12.869  0.00  0.00    +0.023 C 
ATOM      6  C   UNL     1     -12.897  -3.404  11.881  0.00  0.00    +0.050 C 
ATOM      7  C   UNL     1     -12.973  -4.192  13.186  0.00  0.00    +0.017 C 
ATOM      8  C   UNL     1     -12.828  -6.309  11.890  0.00  0.00    +0.130 C 
ATOM      9  C   UNL     1     -15.098  -5.209  12.317  0.00  0.00    +0.086 C 
ATOM     10  C   UNL     1     -14.323  -3.119  11.366  0.00  0.00    +0.090 C 
ATOM     11  C   UNL     1     -12.098  -4.165  10.839  0.00  0.00    +0.026 A 
ATOM     12  C   UNL     1     -11.371  -3.505   9.923  0.00  0.00    +0.022 A 
ATOM     13  C   UNL     1     -11.446  -6.321   9.865  0.00  0.00    +0.260 A 
ATOM     14  C   UNL     1     -10.667  -5.554   8.832  0.00  0.00    +0.053 A 
ATOM     15  C   UNL     1     -10.652  -4.213   8.903  0.00  0.00    +0.016 A 
ATOM     20  H   UNL     1     -16.042  -4.115  10.871  0.00  0.00    +0.122 HD
ENDROOT
BRANCH  14  16
ATOM      1  S   UNL     1      -8.262  -6.558   7.925  0.00  0.00    -0.096 S 
ATOM     16  C   UNL     1      -9.941  -6.245   7.753  0.00  0.00    +0.024 A 
ATOM     17  C   UNL     1     -10.423  -6.715   6.546  0.00  0.00    +0.016 A 
ATOM     18  C   UNL     1      -9.408  -7.333   5.760  0.00  0.00    +0.008 A 
ATOM     19  C   UNL     1      -8.184  -7.316   6.391  0.00  0.00    +0.046 A 
ENDBRANCH  14  16
TORSDOF 1
ENDMDL
MODEL 8
REMARK VINA RESULT:      -5.7     18.157     20.058
REMARK  Name = 11885192
REMARK  1 active torsions:
REMARK  status: ('A' for Active; 'I' for Inactive)
REMARK    1  A    between atoms: C_14  and  C_16
REMARK                            x       y       z     vdW  Elec       q    Type
REMARK                         _______ _______ _______ _____ _____    ______ ____
ROOT
ATOM      2  O   UNL     1      12.379   7.375   3.509  0.00  0.00    -0.267 OA
ATOM      3  N   UNL     1      12.914   5.415   2.364  0.00  0.00    -0.311 N 
ATOM      4  N   UNL     1      13.343   4.911  -0.768  0.00  0.00    -0.315 NA
ATOM      5  C   UNL     1      15.082   5.143   1.023  0.00  0.00    +0.023 C 
ATOM      6  C   UNL     1      13.480   3.294   1.132  0.00  0.00    +0.050 C 
ATOM      7  C   UNL     1      14.940   3.668   1.377  0.00  0.00    +0.017 C 
ATOM      8  C   UNL     1      14.225   5.968   1.993  0.00  0.00    +0.130 C 
ATOM      9  C   UNL     1      14.694   5.372  -0.451  0.00  0.00    +0.086 C 
ATOM     10  C   UNL     1      13.132   3.521  -0.354  0.00  0.00    +0.090 C 
ATOM     11  C   UNL     1      12.560   4.107   2.023  0.00  0.00    +0.026 A 
ATOM     12  C   UNL     1      11.406   3.584   2.468  0.00  0.00    +0.022 A 
ATOM     13  C   UNL     1      12.085   6.230   3.161  0.00  0.00    +0.260 A 
ATOM     14  C   UNL     1      10.783   5.628   3.616  0.00  0.00    +0.053 A 
ATOM     15  C   UNL     1      10.505   4.361   3.271  0.00  0.00    +0.016 A 
ATOM     20  H   UNL     1      13.176   5.000  -1.769  0.00  0.00    +0.122 HD
ENDROOT
BRANCH  14  16
ATOM      1  S   UNL     1       9.829   6.262   6.127  0.00  0.00    -0.096 S 
ATOM     16  C   UNL     1       9.821   6.405   4.417  0.00  0.00    +0.024 A 
ATOM     17  C   UNL     1       8.849   7.288   3.985  0.00  0.00    +0.016 A 
ATOM     18  C   UNL     1       8.109   7.848   5.066  0.00  0.00    +0.008 A 
ATOM     19  C   UNL     1       8.538   7.376   6.287  0.00  0.00    +0.046 A 
ENDBRANCH  14  16
TORSDOF 1
ENDMDL
MODEL 9
REMARK VINA RESULT:      -5.7     29.036     29.999
REMARK  Name = 11885192
REMARK  1 active torsions:
REMARK  status: ('A' for Active; 'I' for Inactive)
REMARK    1  A    between atoms: C_14  and  C_16
REMARK                            x       y       z     vdW  Elec       q    Type
REMARK                         _______ _______ _______ _____ _____    ______ ____
ROOT
ATOM      2  O   UNL     1      -6.563  -9.919  14.474  0.00  0.00    -0.267 OA
ATOM      3  N   UNL     1      -5.241  -9.820  12.556  0.00  0.00    -0.311 N 
ATOM      4  N   UNL     1      -5.645 -11.209   9.701  0.00  0.00    -0.315 NA
ATOM      5  C   UNL     1      -6.079  -8.826  10.347  0.00  0.00    +0.023 C 
ATOM      6  C   UNL     1      -3.803  -9.718  10.492  0.00  0.00    +0.050 C 
ATOM      7  C   UNL     1      -4.613  -8.478  10.119  0.00  0.00    +0.017 C 
ATOM      8  C   UNL     1      -6.298  -9.088  11.843  0.00  0.00    +0.130 C 
ATOM      9  C   UNL     1      -6.478 -10.030   9.471  0.00  0.00    +0.086 C 
ATOM     10  C   UNL     1      -4.218 -10.896   9.587  0.00  0.00    +0.090 C 
ATOM     11  C   UNL     1      -4.006 -10.074  11.953  0.00  0.00    +0.026 A 
ATOM     12  C   UNL     1      -3.016 -10.643  12.659  0.00  0.00    +0.022 A 
ATOM     13  C   UNL     1      -5.499 -10.157  13.899  0.00  0.00    +0.260 A 
ATOM     14  C   UNL     1      -4.382 -10.825  14.655  0.00  0.00    +0.053 A 
ATOM     15  C   UNL     1      -3.213 -11.029  14.027  0.00  0.00    +0.016 A 
ATOM     20  H   UNL     1      -5.891 -11.939   9.033  0.00  0.00    +0.122 HD
ENDROOT
BRANCH  14  16
ATOM      1  S   UNL     1      -4.913 -12.905  16.390  0.00  0.00    -0.096 S 
ATOM     16  C   UNL     1      -4.558 -11.260  16.051  0.00  0.00    +0.024 A 
ATOM     17  C   UNL     1      -4.479 -10.509  17.209  0.00  0.00    +0.016 A 
ATOM     18  C   UNL     1      -4.711 -11.290  18.378  0.00  0.00    +0.008 A 
ATOM     19  C   UNL     1      -4.960 -12.611  18.077  0.00  0.00    +0.046 A 
ENDBRANCH  14  16
TORSDOF 1
ENDMDL
MODEL 10
REMARK VINA RESULT:      -5.6     29.622     31.628
REMARK  Name = 11885192
REMARK  1 active torsions:
REMARK  status: ('A' for Active; 'I' for Inactive)
REMARK    1  A    between atoms: C_14  and  C_16
REMARK                            x       y       z     vdW  Elec       q    Type
REMARK                         _______ _______ _______ _____ _____    ______ ____
ROOT
ATOM      2  O   UNL     1     -14.913   9.031  20.385  0.00  0.00    -0.267 OA
ATOM      3  N   UNL     1     -12.719   9.118  19.600  0.00  0.00    -0.311 N 
ATOM      4  N   UNL     1     -11.600   9.050  16.601  0.00  0.00    -0.315 NA
ATOM      5  C   UNL     1     -11.851  11.026  18.124  0.00  0.00    +0.023 C 
ATOM      6  C   UNL     1     -10.348   9.200  18.758  0.00  0.00    +0.050 C 
ATOM      7  C   UNL     1     -10.508  10.718  18.774  0.00  0.00    +0.017 C 
ATOM      8  C   UNL     1     -12.968  10.434  18.995  0.00  0.00    +0.130 C 
ATOM      9  C   UNL     1     -11.876  10.484  16.682  0.00  0.00    +0.086 C 
ATOM     10  C   UNL     1     -10.362   8.696  17.300  0.00  0.00    +0.090 C 
ATOM     11  C   UNL     1     -11.450   8.534  19.561  0.00  0.00    +0.026 A 
ATOM     12  C   UNL     1     -11.217   7.386  20.216  0.00  0.00    +0.022 A 
ATOM     13  C   UNL     1     -13.790   8.530  20.301  0.00  0.00    +0.260 A 
ATOM     14  C   UNL     1     -13.507   7.225  20.996  0.00  0.00    +0.053 A 
ATOM     15  C   UNL     1     -12.264   6.721  20.937  0.00  0.00    +0.016 A 
ATOM     20  H   UNL     1     -11.537   8.767  15.624  0.00  0.00    +0.122 HD
ENDROOT
BRANCH  14  16
ATOM      1  S   UNL     1     -15.822   5.730  20.845  0.00  0.00    -0.096 S 
ATOM     16  C   UNL     1     -14.565   6.502  21.722  0.00  0.00    +0.024 A 
ATOM     17  C   UNL     1     -14.720   6.332  23.086  0.00  0.00    +0.016 A 
ATOM     18  C   UNL     1     -15.876   5.565  23.408  0.00  0.00    +0.008 A 
ATOM     19  C   UNL     1     -16.568   5.174  22.283  0.00  0.00    +0.046 A 
ENDBRANCH  14  16
TORSDOF 1
ENDMDL
