MODEL 1
REMARK VINA RESULT:      -6.1      0.000      0.000
REMARK  Name = 75536736
REMARK  9 active torsions:
REMARK  status: ('A' for Active; 'I' for Inactive)
REMARK    1  A    between atoms: O_2  and  C_10
REMARK    2  A    between atoms: N_4  and  C_9
REMARK    3  A    between atoms: N_4  and  C_14
REMARK    4  A    between atoms: N_5  and  C_13
REMARK    5  A    between atoms: N_6  and  C_17
REMARK    6  A    between atoms: C_11  and  C_13
REMARK    7  A    between atoms: C_14  and  C_15
REMARK    8  A    between atoms: C_17  and  C_20
REMARK    9  A    between atoms: C_17  and  C_21
REMARK                            x       y       z     vdW  Elec       q    Type
REMARK                         _______ _______ _______ _____ _____    ______ ____
ROOT
ATOM      1  O   UNL     1      14.247   8.069  22.294  0.00  0.00    -0.371 OA
ATOM      9  C   UNL     1      13.292   6.769  20.550  0.00  0.00    +0.111 C 
ATOM     10  C   UNL     1      14.668   7.244  20.118  0.00  0.00    +0.164 C 
ATOM     11  C   UNL     1      15.305   7.561  21.463  0.00  0.00    +0.165 C 
ATOM     12  C   UNL     1      12.988   7.728  21.689  0.00  0.00    +0.181 C 
ENDROOT
BRANCH  10   2
ATOM      2  O   UNL     1      15.390   6.253  19.413  0.00  0.00    -0.388 OA
ATOM     23  H   UNL     1      15.666   5.567  20.045  0.00  0.00    +0.210 HD
ENDBRANCH  10   2
BRANCH   9   4
ATOM      4  N   UNL     1      12.300   6.814  19.490  0.00  0.00    -0.304 NA
ATOM     22  H   UNL     1      11.523   6.200  19.735  0.00  0.00    +0.123 HD
BRANCH   4  14
ATOM     14  C   UNL     1      11.792   8.168  19.303  0.00  0.00    +0.136 C 
BRANCH  14  15
ATOM      7  N   UNL     1      10.426   8.517  17.213  0.00  0.00    -0.347 N 
ATOM      8  N   UNL     1      11.920   9.094  15.674  0.00  0.00    -0.244 NA
ATOM     15  C   UNL     1      11.637   8.513  17.846  0.00  0.00    +0.049 A 
ATOM     18  C   UNL     1      12.543   8.872  16.876  0.00  0.00    +0.134 A 
ATOM     19  C   UNL     1      10.646   8.872  15.910  0.00  0.00    +0.196 A 
ATOM     26  H   UNL     1       9.529   8.299  17.627  0.00  0.00    +0.167 HD
ENDBRANCH  14  15
ENDBRANCH   4  14
ENDBRANCH   9   4
BRANCH  11  13
ATOM     13  C   UNL     1      16.423   8.586  21.372  0.00  0.00    +0.140 C 
BRANCH  13   5
ATOM      3  O   UNL     1      18.242   6.774  20.057  0.00  0.00    -0.253 OA
ATOM      5  N   UNL     1      17.652   8.066  21.895  0.00  0.00    -0.297 N 
ATOM      6  N   UNL     1      19.608   6.840  21.932  0.00  0.00    -0.297 N 
ATOM     16  C   UNL     1      18.481   7.187  21.191  0.00  0.00    +0.300 C 
ATOM     24  H   UNL     1      17.928   8.339  22.834  0.00  0.00    +0.150 HD
ATOM     25  H   UNL     1      19.754   7.294  22.829  0.00  0.00    +0.150 HD
BRANCH   6  17
ATOM     17  C   UNL     1      20.626   5.946  21.435  0.00  0.00    +0.068 C 
ATOM     20  C   UNL     1      21.563   6.677  20.481  0.00  0.00    +0.027 C 
ATOM     21  C   UNL     1      21.395   5.323  22.593  0.00  0.00    +0.027 C 
ENDBRANCH   6  17
ENDBRANCH  13   5
ENDBRANCH  11  13
TORSDOF 7
ENDMDL
MODEL 2
REMARK VINA RESULT:      -5.9      3.103      4.265
REMARK  Name = 75536736
REMARK  9 active torsions:
REMARK  status: ('A' for Active; 'I' for Inactive)
REMARK    1  A    between atoms: O_2  and  C_10
REMARK    2  A    between atoms: N_4  and  C_9
REMARK    3  A    between atoms: N_4  and  C_14
REMARK    4  A    between atoms: N_5  and  C_13
REMARK    5  A    between atoms: N_6  and  C_17
REMARK    6  A    between atoms: C_11  and  C_13
REMARK    7  A    between atoms: C_14  and  C_15
REMARK    8  A    between atoms: C_17  and  C_20
REMARK    9  A    between atoms: C_17  and  C_21
REMARK                            x       y       z     vdW  Elec       q    Type
REMARK                         _______ _______ _______ _____ _____    ______ ____
ROOT
ATOM      1  O   UNL     1      17.287   5.948  19.127  0.00  0.00    -0.371 OA
ATOM      9  C   UNL     1      16.381   7.062  21.018  0.00  0.00    +0.111 C 
ATOM     10  C   UNL     1      17.720   6.456  21.395  0.00  0.00    +0.164 C 
ATOM     11  C   UNL     1      18.359   6.280  20.026  0.00  0.00    +0.165 C 
ATOM     12  C   UNL     1      16.040   6.280  19.762  0.00  0.00    +0.181 C 
ENDROOT
BRANCH  10   2
ATOM      2  O   UNL     1      18.487   7.302  22.231  0.00  0.00    -0.388 OA
ATOM     23  H   UNL     1      19.424   7.202  21.990  0.00  0.00    +0.210 HD
ENDBRANCH  10   2
BRANCH   9   4
ATOM      4  N   UNL     1      15.371   6.937  22.056  0.00  0.00    -0.304 NA
ATOM     22  H   UNL     1      15.828   6.942  22.967  0.00  0.00    +0.123 HD
BRANCH   4  14
ATOM     14  C   UNL     1      14.418   8.038  21.996  0.00  0.00    +0.136 C 
BRANCH  14  15
ATOM      7  N   UNL     1      12.715   6.262  21.444  0.00  0.00    -0.347 N 
ATOM      8  N   UNL     1      10.763   7.309  21.601  0.00  0.00    -0.244 NA
ATOM     15  C   UNL     1      13.008   7.551  21.791  0.00  0.00    +0.049 A 
ATOM     18  C   UNL     1      11.788   8.177  21.882  0.00  0.00    +0.134 A 
ATOM     19  C   UNL     1      11.355   6.164  21.341  0.00  0.00    +0.196 A 
ATOM     26  H   UNL     1      13.379   5.515  21.290  0.00  0.00    +0.167 HD
ENDBRANCH  14  15
ENDBRANCH   4  14
ENDBRANCH   9   4
BRANCH  11  13
ATOM     13  C   UNL     1      19.415   5.189  19.990  0.00  0.00    +0.140 C 
BRANCH  13   5
ATOM      3  O   UNL     1      20.895   5.309  22.464  0.00  0.00    -0.253 OA
ATOM      5  N   UNL     1      20.729   5.727  20.185  0.00  0.00    -0.297 N 
ATOM      6  N   UNL     1      22.643   6.327  21.328  0.00  0.00    -0.297 N 
ATOM     16  C   UNL     1      21.379   5.749  21.423  0.00  0.00    +0.300 C 
ATOM     24  H   UNL     1      21.208   6.128  19.384  0.00  0.00    +0.150 HD
ATOM     25  H   UNL     1      22.986   6.591  20.409  0.00  0.00    +0.150 HD
BRANCH   6  17
ATOM     17  C   UNL     1      23.524   6.472  22.463  0.00  0.00    +0.068 C 
ATOM     20  C   UNL     1      24.968   6.200  22.058  0.00  0.00    +0.027 C 
ATOM     21  C   UNL     1      23.375   7.858  23.075  0.00  0.00    +0.027 C 
ENDBRANCH   6  17
ENDBRANCH  13   5
ENDBRANCH  11  13
TORSDOF 7
ENDMDL
MODEL 3
REMARK VINA RESULT:      -5.9      2.759      4.211
REMARK  Name = 75536736
REMARK  9 active torsions:
REMARK  status: ('A' for Active; 'I' for Inactive)
REMARK    1  A    between atoms: O_2  and  C_10
REMARK    2  A    between atoms: N_4  and  C_9
REMARK    3  A    between atoms: N_4  and  C_14
REMARK    4  A    between atoms: N_5  and  C_13
REMARK    5  A    between atoms: N_6  and  C_17
REMARK    6  A    between atoms: C_11  and  C_13
REMARK    7  A    between atoms: C_14  and  C_15
REMARK    8  A    between atoms: C_17  and  C_20
REMARK    9  A    between atoms: C_17  and  C_21
REMARK                            x       y       z     vdW  Elec       q    Type
REMARK                         _______ _______ _______ _____ _____    ______ ____
ROOT
ATOM      1  O   UNL     1      18.293   6.106  19.325  0.00  0.00    -0.371 OA
ATOM      9  C   UNL     1      16.053   6.743  19.792  0.00  0.00    +0.111 C 
ATOM     10  C   UNL     1      16.870   6.833  21.068  0.00  0.00    +0.164 C 
ATOM     11  C   UNL     1      18.282   6.924  20.508  0.00  0.00    +0.165 C 
ATOM     12  C   UNL     1      16.933   5.849  18.935  0.00  0.00    +0.181 C 
ENDROOT
BRANCH  10   2
ATOM      2  O   UNL     1      16.539   7.964  21.850  0.00  0.00    -0.388 OA
ATOM     23  H   UNL     1      15.798   8.426  21.421  0.00  0.00    +0.210 HD
ENDBRANCH  10   2
BRANCH   9   4
ATOM      4  N   UNL     1      14.719   6.203  19.990  0.00  0.00    -0.304 NA
ATOM     22  H   UNL     1      14.549   6.094  20.990  0.00  0.00    +0.123 HD
BRANCH   4  14
ATOM     14  C   UNL     1      13.705   7.090  19.432  0.00  0.00    +0.136 C 
BRANCH  14  15
ATOM      7  N   UNL     1      12.101   6.078  21.094  0.00  0.00    -0.347 N 
ATOM      8  N   UNL     1      10.499   7.602  21.306  0.00  0.00    -0.244 NA
ATOM     15  C   UNL     1      12.453   7.108  20.268  0.00  0.00    +0.049 A 
ATOM     18  C   UNL     1      11.449   8.036  20.415  0.00  0.00    +0.134 A 
ATOM     19  C   UNL     1      10.922   6.419  21.696  0.00  0.00    +0.196 A 
ATOM     26  H   UNL     1      12.616   5.219  21.237  0.00  0.00    +0.167 HD
ENDBRANCH  14  15
ENDBRANCH   4  14
ENDBRANCH   9   4
BRANCH  11  13
ATOM     13  C   UNL     1      19.346   6.439  21.477  0.00  0.00    +0.140 C 
BRANCH  13   5
ATOM      3  O   UNL     1      21.039   6.072  23.784  0.00  0.00    -0.253 OA
ATOM      5  N   UNL     1      19.409   7.271  22.643  0.00  0.00    -0.297 N 
ATOM      6  N   UNL     1      20.118   7.985  24.720  0.00  0.00    -0.297 N 
ATOM     16  C   UNL     1      20.260   7.022  23.723  0.00  0.00    +0.300 C 
ATOM     24  H   UNL     1      18.791   8.076  22.693  0.00  0.00    +0.150 HD
ATOM     25  H   UNL     1      19.504   8.774  24.544  0.00  0.00    +0.150 HD
BRANCH   6  17
ATOM     17  C   UNL     1      20.883   7.962  25.945  0.00  0.00    +0.068 C 
ATOM     20  C   UNL     1      22.088   8.889  25.841  0.00  0.00    +0.027 C 
ATOM     21  C   UNL     1      19.999   8.337  27.127  0.00  0.00    +0.027 C 
ENDBRANCH   6  17
ENDBRANCH  13   5
ENDBRANCH  11  13
TORSDOF 7
ENDMDL
MODEL 4
REMARK VINA RESULT:      -5.8     30.482     32.639
REMARK  Name = 75536736
REMARK  9 active torsions:
REMARK  status: ('A' for Active; 'I' for Inactive)
REMARK    1  A    between atoms: O_2  and  C_10
REMARK    2  A    between atoms: N_4  and  C_9
REMARK    3  A    between atoms: N_4  and  C_14
REMARK    4  A    between atoms: N_5  and  C_13
REMARK    5  A    between atoms: N_6  and  C_17
REMARK    6  A    between atoms: C_11  and  C_13
REMARK    7  A    between atoms: C_14  and  C_15
REMARK    8  A    between atoms: C_17  and  C_20
REMARK    9  A    between atoms: C_17  and  C_21
REMARK                            x       y       z     vdW  Elec       q    Type
REMARK                         _______ _______ _______ _____ _____    ______ ____
ROOT
ATOM      1  O   UNL     1     -15.301   0.388  28.930  0.00  0.00    -0.371 OA
ATOM      9  C   UNL     1     -14.349   2.093  30.282  0.00  0.00    +0.111 C 
ATOM     10  C   UNL     1     -15.144   2.737  29.160  0.00  0.00    +0.164 C 
ATOM     11  C   UNL     1     -16.066   1.594  28.761  0.00  0.00    +0.165 C 
ATOM     12  C   UNL     1     -14.152   0.687  29.743  0.00  0.00    +0.181 C 
ENDROOT
BRANCH  10   2
ATOM      2  O   UNL     1     -15.868   3.874  29.587  0.00  0.00    -0.388 OA
ATOM     23  H   UNL     1     -15.271   4.642  29.568  0.00  0.00    +0.210 HD
ENDBRANCH  10   2
BRANCH   9   4
ATOM      4  N   UNL     1     -13.096   2.770  30.571  0.00  0.00    -0.304 NA
ATOM     22  H   UNL     1     -13.083   3.668  30.087  0.00  0.00    +0.123 HD
BRANCH   4  14
ATOM     14  C   UNL     1     -12.943   3.002  32.003  0.00  0.00    +0.136 C 
BRANCH  14  15
ATOM      7  N   UNL     1     -14.362   5.085  32.068  0.00  0.00    -0.347 N 
ATOM      8  N   UNL     1     -15.807   4.711  33.712  0.00  0.00    -0.244 NA
ATOM     15  C   UNL     1     -14.060   3.846  32.557  0.00  0.00    +0.049 A 
ATOM     18  C   UNL     1     -14.964   3.637  33.571  0.00  0.00    +0.134 A 
ATOM     19  C   UNL     1     -15.418   5.566  32.792  0.00  0.00    +0.196 A 
ATOM     26  H   UNL     1     -13.894   5.563  31.309  0.00  0.00    +0.167 HD
ENDBRANCH  14  15
ENDBRANCH   4  14
ENDBRANCH   9   4
BRANCH  11  13
ATOM     13  C   UNL     1     -16.559   1.691  27.328  0.00  0.00    +0.140 C 
BRANCH  13   5
ATOM      3  O   UNL     1     -16.223   2.186  24.505  0.00  0.00    -0.253 OA
ATOM      5  N   UNL     1     -16.131   2.912  26.710  0.00  0.00    -0.297 N 
ATOM      6  N   UNL     1     -15.563   4.355  25.000  0.00  0.00    -0.297 N 
ATOM     16  C   UNL     1     -15.993   3.071  25.328  0.00  0.00    +0.300 C 
ATOM     24  H   UNL     1     -15.903   3.700  27.310  0.00  0.00    +0.150 HD
ATOM     25  H   UNL     1     -15.474   5.039  25.745  0.00  0.00    +0.150 HD
BRANCH   6  17
ATOM     17  C   UNL     1     -15.341   4.781  23.638  0.00  0.00    +0.068 C 
ATOM     20  C   UNL     1     -16.068   6.092  23.363  0.00  0.00    +0.027 C 
ATOM     21  C   UNL     1     -13.849   4.909  23.361  0.00  0.00    +0.027 C 
ENDBRANCH   6  17
ENDBRANCH  13   5
ENDBRANCH  11  13
TORSDOF 7
ENDMDL
MODEL 5
REMARK VINA RESULT:      -5.7     29.872     32.570
REMARK  Name = 75536736
REMARK  9 active torsions:
REMARK  status: ('A' for Active; 'I' for Inactive)
REMARK    1  A    between atoms: O_2  and  C_10
REMARK    2  A    between atoms: N_4  and  C_9
REMARK    3  A    between atoms: N_4  and  C_14
REMARK    4  A    between atoms: N_5  and  C_13
REMARK    5  A    between atoms: N_6  and  C_17
REMARK    6  A    between atoms: C_11  and  C_13
REMARK    7  A    between atoms: C_14  and  C_15
REMARK    8  A    between atoms: C_17  and  C_20
REMARK    9  A    between atoms: C_17  and  C_21
REMARK                            x       y       z     vdW  Elec       q    Type
REMARK                         _______ _______ _______ _____ _____    ______ ____
ROOT
ATOM      1  O   UNL     1     -19.027   2.952  25.420  0.00  0.00    -0.371 OA
ATOM      9  C   UNL     1     -17.331   2.289  23.896  0.00  0.00    +0.111 C 
ATOM     10  C   UNL     1     -17.039   1.682  25.256  0.00  0.00    +0.164 C 
ATOM     11  C   UNL     1     -18.413   1.747  25.908  0.00  0.00    +0.165 C 
ATOM     12  C   UNL     1     -18.299   3.400  24.264  0.00  0.00    +0.181 C 
ENDROOT
BRANCH  10   2
ATOM      2  O   UNL     1     -16.558   0.355  25.170  0.00  0.00    -0.388 OA
ATOM     23  H   UNL     1     -15.609   0.359  25.385  0.00  0.00    +0.210 HD
ENDBRANCH  10   2
BRANCH   9   4
ATOM      4  N   UNL     1     -16.147   2.773  23.206  0.00  0.00    -0.304 NA
ATOM     22  H   UNL     1     -16.428   3.197  22.322  0.00  0.00    +0.123 HD
BRANCH   4  14
ATOM     14  C   UNL     1     -15.444   3.768  24.007  0.00  0.00    +0.136 C 
BRANCH  14  15
ATOM      7  N   UNL     1     -13.816   4.502  22.226  0.00  0.00    -0.347 N 
ATOM      8  N   UNL     1     -14.082   6.704  22.116  0.00  0.00    -0.244 NA
ATOM     15  C   UNL     1     -14.776   4.809  23.149  0.00  0.00    +0.049 A 
ATOM     18  C   UNL     1     -14.922   6.173  23.063  0.00  0.00    +0.134 A 
ATOM     19  C   UNL     1     -13.429   5.670  21.631  0.00  0.00    +0.196 A 
ATOM     26  H   UNL     1     -13.455   3.579  22.018  0.00  0.00    +0.167 HD
ENDBRANCH  14  15
ENDBRANCH   4  14
ENDBRANCH   9   4
BRANCH  11  13
ATOM     13  C   UNL     1     -18.358   1.776  27.425  0.00  0.00    +0.140 C 
BRANCH  13   5
ATOM      3  O   UNL     1     -16.196   2.301  29.263  0.00  0.00    -0.253 OA
ATOM      5  N   UNL     1     -17.407   0.831  27.932  0.00  0.00    -0.297 N 
ATOM      6  N   UNL     1     -15.606   0.060  29.153  0.00  0.00    -0.297 N 
ATOM     16  C   UNL     1     -16.384   1.167  28.824  0.00  0.00    +0.300 C 
ATOM     24  H   UNL     1     -17.471  -0.132  27.615  0.00  0.00    +0.150 HD
ATOM     25  H   UNL     1     -15.886  -0.850  28.798  0.00  0.00    +0.150 HD
BRANCH   6  17
ATOM     17  C   UNL     1     -14.482   0.134  30.056  0.00  0.00    +0.068 C 
ATOM     20  C   UNL     1     -14.911  -0.229  31.473  0.00  0.00    +0.027 C 
ATOM     21  C   UNL     1     -13.354  -0.769  29.574  0.00  0.00    +0.027 C 
ENDBRANCH   6  17
ENDBRANCH  13   5
ENDBRANCH  11  13
TORSDOF 7
ENDMDL
MODEL 6
REMARK VINA RESULT:      -5.5     13.214     15.956
REMARK  Name = 75536736
REMARK  9 active torsions:
REMARK  status: ('A' for Active; 'I' for Inactive)
REMARK    1  A    between atoms: O_2  and  C_10
REMARK    2  A    between atoms: N_4  and  C_9
REMARK    3  A    between atoms: N_4  and  C_14
REMARK    4  A    between atoms: N_5  and  C_13
REMARK    5  A    between atoms: N_6  and  C_17
REMARK    6  A    between atoms: C_11  and  C_13
REMARK    7  A    between atoms: C_14  and  C_15
REMARK    8  A    between atoms: C_17  and  C_20
REMARK    9  A    between atoms: C_17  and  C_21
REMARK                            x       y       z     vdW  Elec       q    Type
REMARK                         _______ _______ _______ _____ _____    ______ ____
ROOT
ATOM      1  O   UNL     1      13.047   8.721   4.527  0.00  0.00    -0.371 OA
ATOM      9  C   UNL     1      12.884   7.386   6.484  0.00  0.00    +0.111 C 
ATOM     10  C   UNL     1      14.297   7.292   5.937  0.00  0.00    +0.164 C 
ATOM     11  C   UNL     1      14.363   8.547   5.079  0.00  0.00    +0.165 C 
ATOM     12  C   UNL     1      12.127   7.906   5.275  0.00  0.00    +0.181 C 
ENDROOT
BRANCH  10   2
ATOM      2  O   UNL     1      15.278   7.298   6.955  0.00  0.00    -0.388 OA
ATOM     23  H   UNL     1      14.835   7.151   7.808  0.00  0.00    +0.210 HD
ENDBRANCH  10   2
BRANCH   9   4
ATOM      4  N   UNL     1      12.365   6.122   6.978  0.00  0.00    -0.304 NA
ATOM     22  H   UNL     1      12.510   6.074   7.987  0.00  0.00    +0.123 HD
BRANCH   4  14
ATOM     14  C   UNL     1      10.939   5.995   6.699  0.00  0.00    +0.136 C 
BRANCH  14  15
ATOM      7  N   UNL     1      10.302   4.112   8.250  0.00  0.00    -0.347 N 
ATOM      8  N   UNL     1       8.867   5.036   9.671  0.00  0.00    -0.244 NA
ATOM     15  C   UNL     1      10.187   5.419   7.869  0.00  0.00    +0.049 A 
ATOM     18  C   UNL     1       9.295   5.969   8.759  0.00  0.00    +0.134 A 
ATOM     19  C   UNL     1       9.492   3.929   9.336  0.00  0.00    +0.196 A 
ATOM     26  H   UNL     1      10.881   3.407   7.813  0.00  0.00    +0.167 HD
ENDBRANCH  14  15
ENDBRANCH   4  14
ENDBRANCH   9   4
BRANCH  11  13
ATOM     13  C   UNL     1      15.382   8.455   3.956  0.00  0.00    +0.140 C 
BRANCH  13   5
ATOM      3  O   UNL     1      14.167   7.219   1.649  0.00  0.00    -0.253 OA
ATOM      5  N   UNL     1      15.549   7.102   3.513  0.00  0.00    -0.297 N 
ATOM      6  N   UNL     1      15.258   5.241   2.178  0.00  0.00    -0.297 N 
ATOM     16  C   UNL     1      14.922   6.578   2.379  0.00  0.00    +0.300 C 
ATOM     24  H   UNL     1      16.145   6.487   4.060  0.00  0.00    +0.150 HD
ATOM     25  H   UNL     1      15.949   4.820   2.792  0.00  0.00    +0.150 HD
BRANCH   6  17
ATOM     17  C   UNL     1      14.745   4.462   1.076  0.00  0.00    +0.068 C 
ATOM     20  C   UNL     1      15.889   3.880   0.254  0.00  0.00    +0.027 C 
ATOM     21  C   UNL     1      13.820   3.366   1.588  0.00  0.00    +0.027 C 
ENDBRANCH   6  17
ENDBRANCH  13   5
ENDBRANCH  11  13
TORSDOF 7
ENDMDL
MODEL 7
REMARK VINA RESULT:      -5.5     28.725     31.920
REMARK  Name = 75536736
REMARK  9 active torsions:
REMARK  status: ('A' for Active; 'I' for Inactive)
REMARK    1  A    between atoms: O_2  and  C_10
REMARK    2  A    between atoms: N_4  and  C_9
REMARK    3  A    between atoms: N_4  and  C_14
REMARK    4  A    between atoms: N_5  and  C_13
REMARK    5  A    between atoms: N_6  and  C_17
REMARK    6  A    between atoms: C_11  and  C_13
REMARK    7  A    between atoms: C_14  and  C_15
REMARK    8  A    between atoms: C_17  and  C_20
REMARK    9  A    between atoms: C_17  and  C_21
REMARK                            x       y       z     vdW  Elec       q    Type
REMARK                         _______ _______ _______ _____ _____    ______ ____
ROOT
ATOM      1  O   UNL     1     -16.911   1.610  25.021  0.00  0.00    -0.371 OA
ATOM      9  C   UNL     1     -16.345   3.000  26.863  0.00  0.00    +0.111 C 
ATOM     10  C   UNL     1     -16.025   3.733  25.573  0.00  0.00    +0.164 C 
ATOM     11  C   UNL     1     -16.901   2.979  24.582  0.00  0.00    +0.165 C 
ATOM     12  C   UNL     1     -16.434   1.563  26.378  0.00  0.00    +0.181 C 
ENDROOT
BRANCH  10   2
ATOM      2  O   UNL     1     -16.355   5.107  25.629  0.00  0.00    -0.388 OA
ATOM     23  H   UNL     1     -15.531   5.621  25.586  0.00  0.00    +0.210 HD
ENDBRANCH  10   2
BRANCH   9   4
ATOM      4  N   UNL     1     -15.347   3.186  27.902  0.00  0.00    -0.304 NA
ATOM     22  H   UNL     1     -15.459   4.115  28.308  0.00  0.00    +0.123 HD
BRANCH   4  14
ATOM     14  C   UNL     1     -15.493   2.188  28.955  0.00  0.00    +0.136 C 
BRANCH  14  15
ATOM      7  N   UNL     1     -13.432   2.856  30.246  0.00  0.00    -0.347 N 
ATOM      8  N   UNL     1     -14.160   3.152  32.323  0.00  0.00    -0.244 NA
ATOM     15  C   UNL     1     -14.772   2.591  30.214  0.00  0.00    +0.049 A 
ATOM     18  C   UNL     1     -15.199   2.780  31.507  0.00  0.00    +0.134 A 
ATOM     19  C   UNL     1     -13.110   3.189  31.533  0.00  0.00    +0.196 A 
ATOM     26  H   UNL     1     -12.792   2.816  29.463  0.00  0.00    +0.167 HD
ENDBRANCH  14  15
ENDBRANCH   4  14
ENDBRANCH   9   4
BRANCH  11  13
ATOM     13  C   UNL     1     -16.395   3.056  23.152  0.00  0.00    +0.140 C 
BRANCH  13   5
ATOM      3  O   UNL     1     -15.917   5.069  21.142  0.00  0.00    -0.253 OA
ATOM      5  N   UNL     1     -15.254   3.917  23.047  0.00  0.00    -0.297 N 
ATOM      6  N   UNL     1     -13.899   5.569  22.173  0.00  0.00    -0.297 N 
ATOM     16  C   UNL     1     -15.097   4.871  22.037  0.00  0.00    +0.300 C 
ATOM     24  H   UNL     1     -14.513   3.820  23.735  0.00  0.00    +0.150 HD
ATOM     25  H   UNL     1     -13.324   5.386  22.989  0.00  0.00    +0.150 HD
BRANCH   6  17
ATOM     17  C   UNL     1     -13.493   6.611  21.259  0.00  0.00    +0.068 C 
ATOM     20  C   UNL     1     -13.912   7.978  21.787  0.00  0.00    +0.027 C 
ATOM     21  C   UNL     1     -11.991   6.549  21.020  0.00  0.00    +0.027 C 
ENDBRANCH   6  17
ENDBRANCH  13   5
ENDBRANCH  11  13
TORSDOF 7
ENDMDL
MODEL 8
REMARK VINA RESULT:      -5.5     26.423     29.236
REMARK  Name = 75536736
REMARK  9 active torsions:
REMARK  status: ('A' for Active; 'I' for Inactive)
REMARK    1  A    between atoms: O_2  and  C_10
REMARK    2  A    between atoms: N_4  and  C_9
REMARK    3  A    between atoms: N_4  and  C_14
REMARK    4  A    between atoms: N_5  and  C_13
REMARK    5  A    between atoms: N_6  and  C_17
REMARK    6  A    between atoms: C_11  and  C_13
REMARK    7  A    between atoms: C_14  and  C_15
REMARK    8  A    between atoms: C_17  and  C_20
REMARK    9  A    between atoms: C_17  and  C_21
REMARK                            x       y       z     vdW  Elec       q    Type
REMARK                         _______ _______ _______ _____ _____    ______ ____
ROOT
ATOM      1  O   UNL     1      -5.986 -10.331  17.567  0.00  0.00    -0.371 OA
ATOM      9  C   UNL     1      -3.978 -11.498  17.071  0.00  0.00    +0.111 C 
ATOM     10  C   UNL     1      -4.532 -12.005  18.390  0.00  0.00    +0.164 C 
ATOM     11  C   UNL     1      -5.989 -11.581  18.278  0.00  0.00    +0.165 C 
ATOM     12  C   UNL     1      -4.707 -10.173  16.927  0.00  0.00    +0.181 C 
ENDROOT
BRANCH  10   2
ATOM      2  O   UNL     1      -4.400 -13.406  18.535  0.00  0.00    -0.388 OA
ATOM     23  H   UNL     1      -3.651 -13.582  19.130  0.00  0.00    +0.210 HD
ENDBRANCH  10   2
BRANCH   9   4
ATOM      4  N   UNL     1      -2.532 -11.352  17.063  0.00  0.00    -0.304 NA
ATOM     22  H   UNL     1      -2.106 -12.266  16.908  0.00  0.00    +0.123 HD
BRANCH   4  14
ATOM     14  C   UNL     1      -2.101 -10.443  16.007  0.00  0.00    +0.136 C 
BRANCH  14  15
ATOM      7  N   UNL     1      -1.733 -12.478  14.564  0.00  0.00    -0.347 N 
ATOM      8  N   UNL     1      -1.913 -11.714  12.487  0.00  0.00    -0.244 NA
ATOM     15  C   UNL     1      -1.988 -11.141  14.678  0.00  0.00    +0.049 A 
ATOM     18  C   UNL     1      -2.094 -10.691  13.383  0.00  0.00    +0.134 A 
ATOM     19  C   UNL     1      -1.697 -12.777  13.230  0.00  0.00    +0.196 A 
ATOM     26  H   UNL     1      -1.596 -13.131  15.325  0.00  0.00    +0.167 HD
ENDBRANCH  14  15
ENDBRANCH   4  14
ENDBRANCH   9   4
BRANCH  11  13
ATOM     13  C   UNL     1      -6.668 -11.403  19.625  0.00  0.00    +0.140 C 
BRANCH  13   5
ATOM      3  O   UNL     1      -9.422 -12.176  19.246  0.00  0.00    -0.253 OA
ATOM      5  N   UNL     1      -7.804 -10.533  19.526  0.00  0.00    -0.297 N 
ATOM      6  N   UNL     1     -10.020  -9.934  19.280  0.00  0.00    -0.297 N 
ATOM     16  C   UNL     1      -9.112 -10.990  19.341  0.00  0.00    +0.300 C 
ATOM     24  H   UNL     1      -7.647  -9.531  19.580  0.00  0.00    +0.150 HD
ATOM     25  H   UNL     1      -9.676  -8.993  19.446  0.00  0.00    +0.150 HD
BRANCH   6  17
ATOM     17  C   UNL     1     -11.438 -10.132  19.095  0.00  0.00    +0.068 C 
ATOM     20  C   UNL     1     -12.184  -9.917  20.406  0.00  0.00    +0.027 C 
ATOM     21  C   UNL     1     -11.962  -9.207  18.004  0.00  0.00    +0.027 C 
ENDBRANCH   6  17
ENDBRANCH  13   5
ENDBRANCH  11  13
TORSDOF 7
ENDMDL
MODEL 9
REMARK VINA RESULT:      -5.4     26.701     29.730
REMARK  Name = 75536736
REMARK  9 active torsions:
REMARK  status: ('A' for Active; 'I' for Inactive)
REMARK    1  A    between atoms: O_2  and  C_10
REMARK    2  A    between atoms: N_4  and  C_9
REMARK    3  A    between atoms: N_4  and  C_14
REMARK    4  A    between atoms: N_5  and  C_13
REMARK    5  A    between atoms: N_6  and  C_17
REMARK    6  A    between atoms: C_11  and  C_13
REMARK    7  A    between atoms: C_14  and  C_15
REMARK    8  A    between atoms: C_17  and  C_20
REMARK    9  A    between atoms: C_17  and  C_21
REMARK                            x       y       z     vdW  Elec       q    Type
REMARK                         _______ _______ _______ _____ _____    ______ ____
ROOT
ATOM      1  O   UNL     1      -8.573 -12.501  18.315  0.00  0.00    -0.371 OA
ATOM      9  C   UNL     1      -6.372 -11.610  18.279  0.00  0.00    +0.111 C 
ATOM     10  C   UNL     1      -7.280 -10.654  19.030  0.00  0.00    +0.164 C 
ATOM     11  C   UNL     1      -8.430 -11.578  19.408  0.00  0.00    +0.165 C 
ATOM     12  C   UNL     1      -7.382 -12.444  17.510  0.00  0.00    +0.181 C 
ENDROOT
BRANCH  10   2
ATOM      2  O   UNL     1      -6.659 -10.092  20.170  0.00  0.00    -0.388 OA
ATOM     23  H   UNL     1      -5.695 -10.168  20.061  0.00  0.00    +0.210 HD
ENDBRANCH  10   2
BRANCH   9   4
ATOM      4  N   UNL     1      -5.412 -10.944  17.415  0.00  0.00    -0.304 NA
ATOM     22  H   UNL     1      -5.474  -9.936  17.563  0.00  0.00    +0.123 HD
BRANCH   4  14
ATOM     14  C   UNL     1      -4.052 -11.383  17.703  0.00  0.00    +0.136 C 
BRANCH  14  15
ATOM      7  N   UNL     1      -1.757 -11.026  16.722  0.00  0.00    -0.347 N 
ATOM      8  N   UNL     1      -2.139 -10.613  14.574  0.00  0.00    -0.244 NA
ATOM     15  C   UNL     1      -3.112 -11.086  16.565  0.00  0.00    +0.049 A 
ATOM     18  C   UNL     1      -3.324 -10.827  15.231  0.00  0.00    +0.134 A 
ATOM     19  C   UNL     1      -1.214 -10.740  15.500  0.00  0.00    +0.196 A 
ATOM     26  H   UNL     1      -1.244 -11.169  17.583  0.00  0.00    +0.167 HD
ENDBRANCH  14  15
ENDBRANCH   4  14
ENDBRANCH   9   4
BRANCH  11  13
ATOM     13  C   UNL     1      -9.740 -10.845  19.636  0.00  0.00    +0.140 C 
BRANCH  13   5
ATOM      3  O   UNL     1     -11.564 -10.157  17.509  0.00  0.00    -0.253 OA
ATOM      5  N   UNL     1      -9.785  -9.614  18.901  0.00  0.00    -0.297 N 
ATOM      6  N   UNL     1     -10.526  -8.089  17.335  0.00  0.00    -0.297 N 
ATOM     16  C   UNL     1     -10.705  -9.359  17.880  0.00  0.00    +0.300 C 
ATOM     24  H   UNL     1      -9.103  -8.896  19.125  0.00  0.00    +0.150 HD
ATOM     25  H   UNL     1      -9.839  -7.474  17.760  0.00  0.00    +0.150 HD
BRANCH   6  17
ATOM     17  C   UNL     1     -11.346  -7.575  16.264  0.00  0.00    +0.068 C 
ATOM     20  C   UNL     1     -11.371  -6.051  16.292  0.00  0.00    +0.027 C 
ATOM     21  C   UNL     1     -10.849  -8.093  14.921  0.00  0.00    +0.027 C 
ENDBRANCH   6  17
ENDBRANCH  13   5
ENDBRANCH  11  13
TORSDOF 7
ENDMDL
MODEL 10
REMARK VINA RESULT:      -5.4     26.516     28.296
REMARK  Name = 75536736
REMARK  9 active torsions:
REMARK  status: ('A' for Active; 'I' for Inactive)
REMARK    1  A    between atoms: O_2  and  C_10
REMARK    2  A    between atoms: N_4  and  C_9
REMARK    3  A    between atoms: N_4  and  C_14
REMARK    4  A    between atoms: N_5  and  C_13
REMARK    5  A    between atoms: N_6  and  C_17
REMARK    6  A    between atoms: C_11  and  C_13
REMARK    7  A    between atoms: C_14  and  C_15
REMARK    8  A    between atoms: C_17  and  C_20
REMARK    9  A    between atoms: C_17  and  C_21
REMARK                            x       y       z     vdW  Elec       q    Type
REMARK                         _______ _______ _______ _____ _____    ______ ____
ROOT
ATOM      1  O   UNL     1      -4.070 -11.930  18.804  0.00  0.00    -0.371 OA
ATOM      9  C   UNL     1      -6.363 -11.315  18.845  0.00  0.00    +0.111 C 
ATOM     10  C   UNL     1      -5.675 -10.586  17.705  0.00  0.00    +0.164 C 
ATOM     11  C   UNL     1      -4.445 -11.458  17.499  0.00  0.00    +0.165 C 
ATOM     12  C   UNL     1      -5.177 -11.725  19.700  0.00  0.00    +0.181 C 
ENDROOT
BRANCH  10   2
ATOM      2  O   UNL     1      -6.474 -10.517  16.540  0.00  0.00    -0.388 OA
ATOM     23  H   UNL     1      -5.893 -10.606  15.765  0.00  0.00    +0.210 HD
ENDBRANCH  10   2
BRANCH   9   4
ATOM      4  N   UNL     1      -7.325 -10.497  19.564  0.00  0.00    -0.304 NA
ATOM     22  H   UNL     1      -7.209  -9.523  19.283  0.00  0.00    +0.123 HD
BRANCH   4  14
ATOM     14  C   UNL     1      -8.691 -10.914  19.274  0.00  0.00    +0.136 C 
BRANCH  14  15
ATOM      7  N   UNL     1      -8.821  -8.850  17.831  0.00  0.00    -0.347 N 
ATOM      8  N   UNL     1     -10.995  -8.565  17.479  0.00  0.00    -0.244 NA
ATOM     15  C   UNL     1      -9.444  -9.869  18.495  0.00  0.00    +0.049 A 
ATOM     18  C   UNL     1     -10.785  -9.672  18.263  0.00  0.00    +0.134 A 
ATOM     19  C   UNL     1      -9.792  -8.093  17.237  0.00  0.00    +0.196 A 
ATOM     26  H   UNL     1      -7.824  -8.683  17.785  0.00  0.00    +0.167 HD
ENDBRANCH  14  15
ENDBRANCH   4  14
ENDBRANCH   9   4
BRANCH  11  13
ATOM     13  C   UNL     1      -3.281 -10.715  16.868  0.00  0.00    +0.140 C 
BRANCH  13   5
ATOM      3  O   UNL     1      -1.745 -11.671  14.620  0.00  0.00    -0.253 OA
ATOM      5  N   UNL     1      -3.522 -10.447  15.480  0.00  0.00    -0.297 N 
ATOM      6  N   UNL     1      -3.184 -10.535  13.198  0.00  0.00    -0.297 N 
ATOM     16  C   UNL     1      -2.726 -10.950  14.447  0.00  0.00    +0.300 C 
ATOM     24  H   UNL     1      -4.305  -9.847  15.236  0.00  0.00    +0.150 HD
ATOM     25  H   UNL     1      -4.048 -10.003  13.154  0.00  0.00    +0.150 HD
BRANCH   6  17
ATOM     17  C   UNL     1      -2.541 -10.915  11.963  0.00  0.00    +0.068 C 
ATOM     20  C   UNL     1      -3.185 -12.171  11.389  0.00  0.00    +0.027 C 
ATOM     21  C   UNL     1      -2.590  -9.765  10.965  0.00  0.00    +0.027 C 
ENDBRANCH   6  17
ENDBRANCH  13   5
ENDBRANCH  11  13
TORSDOF 7
ENDMDL
