MODEL 1
REMARK VINA RESULT:      -8.3      0.000      0.000
REMARK  Name = 11865998
REMARK  4 active torsions:
REMARK  status: ('A' for Active; 'I' for Inactive)
REMARK    1  A    between atoms: O_2  and  C_10
REMARK    2  A    between atoms: O_5  and  C_21
REMARK    3  A    between atoms: O_5  and  C_26
REMARK    4  A    between atoms: C_18  and  C_20
REMARK                            x       y       z     vdW  Elec       q    Type
REMARK                         _______ _______ _______ _____ _____    ______ ____
ROOT
ATOM      3  O   UNL     1      11.998   7.046  18.534  0.00  0.00    -0.273 OA
ATOM      4  O   UNL     1      15.212   9.010  22.229  0.00  0.00    -0.270 OA
ATOM      6  N   UNL     1      13.413   7.835  21.412  0.00  0.00    -0.283 N 
ATOM      7  N   UNL     1      14.257   6.860  18.764  0.00  0.00    -0.283 N 
ATOM      8  C   UNL     1      12.835   6.677  20.762  0.00  0.00    +0.165 C 
ATOM      9  C   UNL     1      11.391   6.643  21.260  0.00  0.00    +0.065 C 
ATOM     10  C   UNL     1      11.076   8.110  21.546  0.00  0.00    +0.134 C 
ATOM     11  C   UNL     1      12.398   8.643  22.073  0.00  0.00    +0.140 C 
ATOM     12  C   UNL     1      12.975   6.915  19.272  0.00  0.00    +0.238 C 
ATOM     13  C   UNL     1      14.759   8.099  21.537  0.00  0.00    +0.249 C 
ATOM     14  C   UNL     1      15.711   7.253  20.770  0.00  0.00    +0.059 A 
ATOM     15  C   UNL     1      15.479   6.779  19.468  0.00  0.00    +0.046 A 
ATOM     16  C   UNL     1      16.980   7.079  21.354  0.00  0.00    +0.023 A 
ATOM     17  C   UNL     1      16.546   6.202  18.758  0.00  0.00    +0.024 A 
ATOM     18  C   UNL     1      18.012   6.462  20.650  0.00  0.00    -0.014 A 
ATOM     19  C   UNL     1      17.799   6.033  19.346  0.00  0.00    +0.010 A 
ATOM     27  H   UNL     1      14.322   6.784  17.753  0.00  0.00    +0.155 HD
ENDROOT
BRANCH  18  20
ATOM      1 CL   UNL     1      22.239   3.561  21.174  0.00  0.00    -0.084 Cl
ATOM     20  C   UNL     1      19.309   6.286  21.268  0.00  0.00    +0.025 A 
ATOM     21  C   UNL     1      19.813   7.234  22.160  0.00  0.00    +0.128 A 
ATOM     22  C   UNL     1      20.060   5.149  20.964  0.00  0.00    +0.032 A 
ATOM     23  C   UNL     1      21.065   7.046  22.747  0.00  0.00    +0.047 A 
ATOM     24  C   UNL     1      21.312   4.962  21.550  0.00  0.00    +0.042 A 
ATOM     25  C   UNL     1      21.815   5.910  22.441  0.00  0.00    +0.023 A 
BRANCH  21   5
ATOM      5  O   UNL     1      19.102   8.354  22.477  0.00  0.00    -0.495 OA
ATOM     26  C   UNL     1      19.630   9.602  22.034  0.00  0.00    +0.277 C 
ENDBRANCH  21   5
ENDBRANCH  18  20
BRANCH  10   2
ATOM      2  O   UNL     1      10.053   8.239  22.512  0.00  0.00    -0.390 OA
ATOM     28  H   UNL     1       9.701   7.350  22.686  0.00  0.00    +0.210 HD
ENDBRANCH  10   2
TORSDOF 3
ENDMDL
MODEL 2
REMARK VINA RESULT:      -7.6      6.554      8.616
REMARK  Name = 11865998
REMARK  4 active torsions:
REMARK  status: ('A' for Active; 'I' for Inactive)
REMARK    1  A    between atoms: O_2  and  C_10
REMARK    2  A    between atoms: O_5  and  C_21
REMARK    3  A    between atoms: O_5  and  C_26
REMARK    4  A    between atoms: C_18  and  C_20
REMARK                            x       y       z     vdW  Elec       q    Type
REMARK                         _______ _______ _______ _____ _____    ______ ____
ROOT
ATOM      3  O   UNL     1      12.601   7.174  17.544  0.00  0.00    -0.273 OA
ATOM      4  O   UNL     1      14.555  11.583  19.685  0.00  0.00    -0.270 OA
ATOM      6  N   UNL     1      13.576  10.287  18.058  0.00  0.00    -0.283 N 
ATOM      7  N   UNL     1      12.089   8.203  19.512  0.00  0.00    -0.283 N 
ATOM      8  C   UNL     1      12.442   9.577  17.503  0.00  0.00    +0.165 C 
ATOM      9  C   UNL     1      12.718   9.534  16.002  0.00  0.00    +0.065 C 
ATOM     10  C   UNL     1      14.243   9.563  15.916  0.00  0.00    +0.134 C 
ATOM     11  C   UNL     1      14.628  10.475  17.069  0.00  0.00    +0.140 C 
ATOM     12  C   UNL     1      12.426   8.218  18.174  0.00  0.00    +0.238 C 
ATOM     13  C   UNL     1      13.635  10.856  19.310  0.00  0.00    +0.249 C 
ATOM     14  C   UNL     1      12.540  10.551  20.268  0.00  0.00    +0.059 A 
ATOM     15  C   UNL     1      11.918   9.296  20.389  0.00  0.00    +0.046 A 
ATOM     16  C   UNL     1      12.254  11.558  21.209  0.00  0.00    +0.023 A 
ATOM     17  C   UNL     1      11.075   9.062  21.489  0.00  0.00    +0.024 A 
ATOM     18  C   UNL     1      11.378  11.320  22.267  0.00  0.00    -0.014 A 
ATOM     19  C   UNL     1      10.798  10.067  22.414  0.00  0.00    +0.010 A 
ATOM     27  H   UNL     1      11.852   7.289  19.890  0.00  0.00    +0.155 HD
ENDROOT
BRANCH  18  20
ATOM      1 CL   UNL     1       8.705  15.578  23.395  0.00  0.00    -0.084 Cl
ATOM     20  C   UNL     1      11.091  12.369  23.221  0.00  0.00    +0.025 A 
ATOM     21  C   UNL     1      11.736  12.411  24.458  0.00  0.00    +0.128 A 
ATOM     22  C   UNL     1      10.153  13.350  22.893  0.00  0.00    +0.032 A 
ATOM     23  C   UNL     1      11.446  13.431  25.364  0.00  0.00    +0.047 A 
ATOM     24  C   UNL     1       9.862  14.370  23.800  0.00  0.00    +0.042 A 
ATOM     25  C   UNL     1      10.508  14.410  25.035  0.00  0.00    +0.023 A 
BRANCH  21   5
ATOM      5  O   UNL     1      12.657  11.468  24.806  0.00  0.00    -0.495 OA
ATOM     26  C   UNL     1      14.027  11.861  24.783  0.00  0.00    +0.277 C 
ENDBRANCH  21   5
ENDBRANCH  18  20
BRANCH  10   2
ATOM      2  O   UNL     1      14.681  10.091  14.680  0.00  0.00    -0.390 OA
ATOM     28  H   UNL     1      15.645  10.202  14.736  0.00  0.00    +0.210 HD
ENDBRANCH  10   2
TORSDOF 3
ENDMDL
MODEL 3
REMARK VINA RESULT:      -7.6     30.485     32.920
REMARK  Name = 11865998
REMARK  4 active torsions:
REMARK  status: ('A' for Active; 'I' for Inactive)
REMARK    1  A    between atoms: O_2  and  C_10
REMARK    2  A    between atoms: O_5  and  C_21
REMARK    3  A    between atoms: O_5  and  C_26
REMARK    4  A    between atoms: C_18  and  C_20
REMARK                            x       y       z     vdW  Elec       q    Type
REMARK                         _______ _______ _______ _____ _____    ______ ____
ROOT
ATOM      3  O   UNL     1     -17.403   2.546  29.463  0.00  0.00    -0.273 OA
ATOM      4  O   UNL     1     -14.265   2.886  33.693  0.00  0.00    -0.270 OA
ATOM      6  N   UNL     1     -14.882   2.236  31.576  0.00  0.00    -0.283 N 
ATOM      7  N   UNL     1     -16.644   4.378  30.586  0.00  0.00    -0.283 N 
ATOM      8  C   UNL     1     -15.100   2.510  30.170  0.00  0.00    +0.165 C 
ATOM      9  C   UNL     1     -14.951   1.150  29.491  0.00  0.00    +0.065 C 
ATOM     10  C   UNL     1     -15.372   0.159  30.574  0.00  0.00    +0.134 C 
ATOM     11  C   UNL     1     -14.847   0.806  31.845  0.00  0.00    +0.140 C 
ATOM     12  C   UNL     1     -16.488   3.109  30.067  0.00  0.00    +0.238 C 
ATOM     13  C   UNL     1     -14.597   3.174  32.543  0.00  0.00    +0.249 C 
ATOM     14  C   UNL     1     -14.723   4.610  32.182  0.00  0.00    +0.059 A 
ATOM     15  C   UNL     1     -15.729   5.134  31.352  0.00  0.00    +0.046 A 
ATOM     16  C   UNL     1     -13.866   5.490  32.870  0.00  0.00    +0.023 A 
ATOM     17  C   UNL     1     -15.893   6.528  31.284  0.00  0.00    +0.024 A 
ATOM     18  C   UNL     1     -14.015   6.871  32.752  0.00  0.00    -0.014 A 
ATOM     19  C   UNL     1     -15.037   7.391  31.968  0.00  0.00    +0.010 A 
ATOM     27  H   UNL     1     -17.494   4.861  30.308  0.00  0.00    +0.155 HD
ENDROOT
BRANCH  18  20
ATOM      1 CL   UNL     1     -12.268   8.601  37.280  0.00  0.00    -0.084 Cl
ATOM     20  C   UNL     1     -13.121   7.761  33.461  0.00  0.00    +0.025 A 
ATOM     21  C   UNL     1     -12.263   8.617  32.769  0.00  0.00    +0.128 A 
ATOM     22  C   UNL     1     -13.121   7.757  34.857  0.00  0.00    +0.032 A 
ATOM     23  C   UNL     1     -11.408   9.468  33.471  0.00  0.00    +0.047 A 
ATOM     24  C   UNL     1     -12.267   8.607  35.559  0.00  0.00    +0.042 A 
ATOM     25  C   UNL     1     -11.410   9.462  34.866  0.00  0.00    +0.023 A 
BRANCH  21   5
ATOM      5  O   UNL     1     -12.240   8.644  31.406  0.00  0.00    -0.495 OA
ATOM     26  C   UNL     1     -11.556   9.734  30.792  0.00  0.00    +0.277 C 
ENDBRANCH  21   5
ENDBRANCH  18  20
BRANCH  10   2
ATOM      2  O   UNL     1     -14.786  -1.111  30.369  0.00  0.00    -0.390 OA
ATOM     28  H   UNL     1     -14.262  -1.061  29.552  0.00  0.00    +0.210 HD
ENDBRANCH  10   2
TORSDOF 3
ENDMDL
MODEL 4
REMARK VINA RESULT:      -7.5      4.789      7.681
REMARK  Name = 11865998
REMARK  4 active torsions:
REMARK  status: ('A' for Active; 'I' for Inactive)
REMARK    1  A    between atoms: O_2  and  C_10
REMARK    2  A    between atoms: O_5  and  C_21
REMARK    3  A    between atoms: O_5  and  C_26
REMARK    4  A    between atoms: C_18  and  C_20
REMARK                            x       y       z     vdW  Elec       q    Type
REMARK                         _______ _______ _______ _____ _____    ______ ____
ROOT
ATOM      3  O   UNL     1      10.286  12.412  25.840  0.00  0.00    -0.273 OA
ATOM      4  O   UNL     1      12.940  13.558  21.425  0.00  0.00    -0.270 OA
ATOM      6  N   UNL     1      12.651  13.220  23.681  0.00  0.00    -0.283 N 
ATOM      7  N   UNL     1      10.489  11.233  23.900  0.00  0.00    -0.283 N 
ATOM      8  C   UNL     1      12.471  12.354  24.828  0.00  0.00    +0.165 C 
ATOM      9  C   UNL     1      12.999  13.171  26.007  0.00  0.00    +0.065 C 
ATOM     10  C   UNL     1      12.761  14.617  25.577  0.00  0.00    +0.134 C 
ATOM     11  C   UNL     1      13.020  14.571  24.080  0.00  0.00    +0.140 C 
ATOM     12  C   UNL     1      10.989  12.047  24.896  0.00  0.00    +0.238 C 
ATOM     13  C   UNL     1      12.629  12.823  22.362  0.00  0.00    +0.249 C 
ATOM     14  C   UNL     1      12.177  11.441  22.056  0.00  0.00    +0.059 A 
ATOM     15  C   UNL     1      11.133  10.780  22.728  0.00  0.00    +0.046 A 
ATOM     16  C   UNL     1      12.740  10.854  20.907  0.00  0.00    +0.023 A 
ATOM     17  C   UNL     1      10.635   9.580  22.191  0.00  0.00    +0.024 A 
ATOM     18  C   UNL     1      12.263   9.639  20.418  0.00  0.00    -0.014 A 
ATOM     19  C   UNL     1      11.202   9.008  21.053  0.00  0.00    +0.010 A 
ATOM     27  H   UNL     1       9.567  10.843  24.078  0.00  0.00    +0.155 HD
ENDROOT
BRANCH  18  20
ATOM      1 CL   UNL     1      12.518   9.476  15.274  0.00  0.00    -0.084 Cl
ATOM     20  C   UNL     1      12.859   9.048  19.239  0.00  0.00    +0.025 A 
ATOM     21  C   UNL     1      13.826   8.049  19.348  0.00  0.00    +0.128 A 
ATOM     22  C   UNL     1      12.454   9.489  17.977  0.00  0.00    +0.032 A 
ATOM     23  C   UNL     1      14.389   7.491  18.199  0.00  0.00    +0.047 A 
ATOM     24  C   UNL     1      13.017   8.931  16.829  0.00  0.00    +0.042 A 
ATOM     25  C   UNL     1      13.984   7.933  16.939  0.00  0.00    +0.023 A 
BRANCH  21   5
ATOM      5  O   UNL     1      14.242   7.597  20.566  0.00  0.00    -0.495 OA
ATOM     26  C   UNL     1      15.173   6.518  20.573  0.00  0.00    +0.277 C 
ENDBRANCH  21   5
ENDBRANCH  18  20
BRANCH  10   2
ATOM      2  O   UNL     1      13.654  15.501  26.222  0.00  0.00    -0.390 OA
ATOM     28  H   UNL     1      13.404  15.534  27.161  0.00  0.00    +0.210 HD
ENDBRANCH  10   2
TORSDOF 3
ENDMDL
MODEL 5
REMARK VINA RESULT:      -7.2      5.596      7.589
REMARK  Name = 11865998
REMARK  4 active torsions:
REMARK  status: ('A' for Active; 'I' for Inactive)
REMARK    1  A    between atoms: O_2  and  C_10
REMARK    2  A    between atoms: O_5  and  C_21
REMARK    3  A    between atoms: O_5  and  C_26
REMARK    4  A    between atoms: C_18  and  C_20
REMARK                            x       y       z     vdW  Elec       q    Type
REMARK                         _______ _______ _______ _____ _____    ______ ____
ROOT
ATOM      3  O   UNL     1      11.765  10.146  21.920  0.00  0.00    -0.273 OA
ATOM      4  O   UNL     1      14.879   7.921  18.287  0.00  0.00    -0.270 OA
ATOM      6  N   UNL     1      12.944   8.254  19.483  0.00  0.00    -0.283 N 
ATOM      7  N   UNL     1      12.977  11.099  20.241  0.00  0.00    -0.283 N 
ATOM      8  C   UNL     1      11.751   9.015  19.793  0.00  0.00    +0.165 C 
ATOM      9  C   UNL     1      10.789   7.987  20.387  0.00  0.00    +0.065 C 
ATOM     10  C   UNL     1      11.716   6.948  21.014  0.00  0.00    +0.134 C 
ATOM     11  C   UNL     1      12.887   6.912  20.045  0.00  0.00    +0.140 C 
ATOM     12  C   UNL     1      12.182  10.098  20.761  0.00  0.00    +0.238 C 
ATOM     13  C   UNL     1      13.961   8.658  18.647  0.00  0.00    +0.249 C 
ATOM     14  C   UNL     1      13.961  10.068  18.177  0.00  0.00    +0.059 A 
ATOM     15  C   UNL     1      13.586  11.168  18.969  0.00  0.00    +0.046 A 
ATOM     16  C   UNL     1      14.539  10.291  16.913  0.00  0.00    +0.023 A 
ATOM     17  C   UNL     1      13.861  12.464  18.501  0.00  0.00    +0.024 A 
ATOM     18  C   UNL     1      14.760  11.586  16.447  0.00  0.00    -0.014 A 
ATOM     19  C   UNL     1      14.433  12.673  17.246  0.00  0.00    +0.010 A 
ATOM     27  H   UNL     1      13.064  11.930  20.820  0.00  0.00    +0.155 HD
ENDROOT
BRANCH  18  20
ATOM      1 CL   UNL     1      19.019  12.407  13.664  0.00  0.00    -0.084 Cl
ATOM     20  C   UNL     1      15.350  11.796  15.142  0.00  0.00    +0.025 A 
ATOM     21  C   UNL     1      14.559  11.819  13.993  0.00  0.00    +0.128 A 
ATOM     22  C   UNL     1      16.730  11.979  15.039  0.00  0.00    +0.032 A 
ATOM     23  C   UNL     1      15.145  12.024  12.744  0.00  0.00    +0.047 A 
ATOM     24  C   UNL     1      17.317  12.183  13.790  0.00  0.00    +0.042 A 
ATOM     25  C   UNL     1      16.525  12.205  12.642  0.00  0.00    +0.023 A 
BRANCH  21   5
ATOM      5  O   UNL     1      13.208  11.644  14.061  0.00  0.00    -0.495 OA
ATOM     26  C   UNL     1      12.416  12.339  13.100  0.00  0.00    +0.277 C 
ENDBRANCH  21   5
ENDBRANCH  18  20
BRANCH  10   2
ATOM      2  O   UNL     1      11.090   5.684  21.103  0.00  0.00    -0.390 OA
ATOM     28  H   UNL     1      11.583   5.160  21.757  0.00  0.00    +0.210 HD
ENDBRANCH  10   2
TORSDOF 3
ENDMDL
MODEL 6
REMARK VINA RESULT:      -7.2      4.898      7.108
REMARK  Name = 11865998
REMARK  4 active torsions:
REMARK  status: ('A' for Active; 'I' for Inactive)
REMARK    1  A    between atoms: O_2  and  C_10
REMARK    2  A    between atoms: O_5  and  C_21
REMARK    3  A    between atoms: O_5  and  C_26
REMARK    4  A    between atoms: C_18  and  C_20
REMARK                            x       y       z     vdW  Elec       q    Type
REMARK                         _______ _______ _______ _____ _____    ______ ____
ROOT
ATOM      3  O   UNL     1      14.450  11.662  26.084  0.00  0.00    -0.273 OA
ATOM      4  O   UNL     1      11.071  10.204  22.302  0.00  0.00    -0.270 OA
ATOM      6  N   UNL     1      12.072  11.641  23.792  0.00  0.00    -0.283 N 
ATOM      7  N   UNL     1      14.839  10.673  24.068  0.00  0.00    -0.283 N 
ATOM      8  C   UNL     1      13.176  12.479  24.210  0.00  0.00    +0.165 C 
ATOM      9  C   UNL     1      12.539  13.511  25.139  0.00  0.00    +0.065 C 
ATOM     10  C   UNL     1      11.337  12.774  25.725  0.00  0.00    +0.134 C 
ATOM     11  C   UNL     1      10.866  11.918  24.560  0.00  0.00    +0.140 C 
ATOM     12  C   UNL     1      14.171  11.560  24.888  0.00  0.00    +0.238 C 
ATOM     13  C   UNL     1      12.077  10.781  22.717  0.00  0.00    +0.249 C 
ATOM     14  C   UNL     1      13.373  10.516  22.039  0.00  0.00    +0.059 A 
ATOM     15  C   UNL     1      14.604  10.387  22.706  0.00  0.00    +0.046 A 
ATOM     16  C   UNL     1      13.295  10.216  20.666  0.00  0.00    +0.023 A 
ATOM     17  C   UNL     1      15.711   9.896  21.992  0.00  0.00    +0.024 A 
ATOM     18  C   UNL     1      14.416   9.775  19.966  0.00  0.00    -0.014 A 
ATOM     19  C   UNL     1      15.623   9.603  20.632  0.00  0.00    +0.010 A 
ATOM     27  H   UNL     1      15.659  10.234  24.479  0.00  0.00    +0.155 HD
ENDROOT
BRANCH  18  20
ATOM      1 CL   UNL     1      14.525  11.525  15.121  0.00  0.00    -0.084 Cl
ATOM     20  C   UNL     1      14.319   9.477  18.553  0.00  0.00    +0.025 A 
ATOM     21  C   UNL     1      14.094   8.173  18.109  0.00  0.00    +0.128 A 
ATOM     22  C   UNL     1      14.451  10.514  17.628  0.00  0.00    +0.032 A 
ATOM     23  C   UNL     1      14.003   7.906  16.742  0.00  0.00    +0.047 A 
ATOM     24  C   UNL     1      14.360  10.247  16.261  0.00  0.00    +0.042 A 
ATOM     25  C   UNL     1      14.136   8.943  15.819  0.00  0.00    +0.023 A 
BRANCH  21   5
ATOM      5  O   UNL     1      13.960   7.140  18.989  0.00  0.00    -0.495 OA
ATOM     26  C   UNL     1      12.632   6.763  19.346  0.00  0.00    +0.277 C 
ENDBRANCH  21   5
ENDBRANCH  18  20
BRANCH  10   2
ATOM      2  O   UNL     1      10.329  13.674  26.136  0.00  0.00    -0.390 OA
ATOM     28  H   UNL     1       9.967  14.092  25.336  0.00  0.00    +0.210 HD
ENDBRANCH  10   2
TORSDOF 3
ENDMDL
MODEL 7
REMARK VINA RESULT:      -7.2     27.929     30.435
REMARK  Name = 11865998
REMARK  4 active torsions:
REMARK  status: ('A' for Active; 'I' for Inactive)
REMARK    1  A    between atoms: O_2  and  C_10
REMARK    2  A    between atoms: O_5  and  C_21
REMARK    3  A    between atoms: O_5  and  C_26
REMARK    4  A    between atoms: C_18  and  C_20
REMARK                            x       y       z     vdW  Elec       q    Type
REMARK                         _______ _______ _______ _____ _____    ______ ____
ROOT
ATOM      3  O   UNL     1     -15.323   3.779  24.265  0.00  0.00    -0.273 OA
ATOM      4  O   UNL     1     -16.229   6.562  19.874  0.00  0.00    -0.270 OA
ATOM      6  N   UNL     1     -16.396   6.036  22.106  0.00  0.00    -0.283 N 
ATOM      7  N   UNL     1     -13.858   4.706  22.785  0.00  0.00    -0.283 N 
ATOM      8  C   UNL     1     -15.853   5.982  23.448  0.00  0.00    +0.165 C 
ATOM      9  C   UNL     1     -17.082   5.983  24.355  0.00  0.00    +0.065 C 
ATOM     10  C   UNL     1     -18.163   5.327  23.497  0.00  0.00    +0.134 C 
ATOM     11  C   UNL     1     -17.838   5.834  22.101  0.00  0.00    +0.140 C 
ATOM     12  C   UNL     1     -15.028   4.713  23.518  0.00  0.00    +0.238 C 
ATOM     13  C   UNL     1     -15.698   6.376  20.969  0.00  0.00    +0.249 C 
ATOM     14  C   UNL     1     -14.220   6.497  21.067  0.00  0.00    +0.059 A 
ATOM     15  C   UNL     1     -13.404   5.655  21.843  0.00  0.00    +0.046 A 
ATOM     16  C   UNL     1     -13.622   7.415  20.183  0.00  0.00    +0.023 A 
ATOM     17  C   UNL     1     -12.011   5.708  21.664  0.00  0.00    +0.024 A 
ATOM     18  C   UNL     1     -12.236   7.485  20.054  0.00  0.00    -0.014 A 
ATOM     19  C   UNL     1     -11.430   6.623  20.786  0.00  0.00    +0.010 A 
ATOM     27  H   UNL     1     -13.204   3.964  23.018  0.00  0.00    +0.155 HD
ENDROOT
BRANCH  18  20
ATOM      1 CL   UNL     1     -10.459   8.477  15.320  0.00  0.00    -0.084 Cl
ATOM     20  C   UNL     1     -11.639   8.439  19.145  0.00  0.00    +0.025 A 
ATOM     21  C   UNL     1     -11.333   9.734  19.563  0.00  0.00    +0.128 A 
ATOM     22  C   UNL     1     -11.368   8.051  17.831  0.00  0.00    +0.032 A 
ATOM     23  C   UNL     1     -10.757  10.640  18.672  0.00  0.00    +0.047 A 
ATOM     24  C   UNL     1     -10.792   8.956  16.939  0.00  0.00    +0.042 A 
ATOM     25  C   UNL     1     -10.487  10.251  17.359  0.00  0.00    +0.023 A 
BRANCH  21   5
ATOM      5  O   UNL     1     -11.585  10.143  20.840  0.00  0.00    -0.495 OA
ATOM     26  C   UNL     1     -12.425  11.285  20.999  0.00  0.00    +0.277 C 
ENDBRANCH  21   5
ENDBRANCH  18  20
BRANCH  10   2
ATOM      2  O   UNL     1     -19.456   5.731  23.898  0.00  0.00    -0.390 OA
ATOM     28  H   UNL     1     -19.852   6.220  23.156  0.00  0.00    +0.210 HD
ENDBRANCH  10   2
TORSDOF 3
ENDMDL
MODEL 8
REMARK VINA RESULT:      -7.2      6.087      8.043
REMARK  Name = 11865998
REMARK  4 active torsions:
REMARK  status: ('A' for Active; 'I' for Inactive)
REMARK    1  A    between atoms: O_2  and  C_10
REMARK    2  A    between atoms: O_5  and  C_21
REMARK    3  A    between atoms: O_5  and  C_26
REMARK    4  A    between atoms: C_18  and  C_20
REMARK                            x       y       z     vdW  Elec       q    Type
REMARK                         _______ _______ _______ _____ _____    ______ ____
ROOT
ATOM      3  O   UNL     1      12.768   9.635  22.104  0.00  0.00    -0.273 OA
ATOM      4  O   UNL     1      14.138   7.582  17.439  0.00  0.00    -0.270 OA
ATOM      6  N   UNL     1      12.763   8.001  19.234  0.00  0.00    -0.283 N 
ATOM      7  N   UNL     1      13.564  10.654  20.228  0.00  0.00    -0.283 N 
ATOM      8  C   UNL     1      11.889   8.869  19.996  0.00  0.00    +0.165 C 
ATOM      9  C   UNL     1      10.980   7.912  20.765  0.00  0.00    +0.065 C 
ATOM     10  C   UNL     1      11.840   6.662  20.940  0.00  0.00    +0.134 C 
ATOM     11  C   UNL     1      12.628   6.610  19.642  0.00  0.00    +0.140 C 
ATOM     12  C   UNL     1      12.793   9.710  20.874  0.00  0.00    +0.238 C 
ATOM     13  C   UNL     1      13.531   8.379  18.155  0.00  0.00    +0.249 C 
ATOM     14  C   UNL     1      13.654   9.831  17.860  0.00  0.00    +0.059 A 
ATOM     15  C   UNL     1      13.755  10.834  18.840  0.00  0.00    +0.046 A 
ATOM     16  C   UNL     1      13.848  10.164  16.506  0.00  0.00    +0.023 A 
ATOM     17  C   UNL     1      14.113  12.134  18.443  0.00  0.00    +0.024 A 
ATOM     18  C   UNL     1      14.156  11.470  16.129  0.00  0.00    -0.014 A 
ATOM     19  C   UNL     1      14.301  12.453  17.099  0.00  0.00    +0.010 A 
ATOM     27  H   UNL     1      13.980  11.362  20.828  0.00  0.00    +0.155 HD
ENDROOT
BRANCH  18  20
ATOM      1 CL   UNL     1      12.073  13.112  11.711  0.00  0.00    -0.084 Cl
ATOM     20  C   UNL     1      14.346  11.796  14.732  0.00  0.00    +0.025 A 
ATOM     21  C   UNL     1      15.598  11.670  14.129  0.00  0.00    +0.128 A 
ATOM     22  C   UNL     1      13.255  12.242  13.983  0.00  0.00    +0.032 A 
ATOM     23  C   UNL     1      15.760  11.989  12.781  0.00  0.00    +0.047 A 
ATOM     24  C   UNL     1      13.418  12.561  12.634  0.00  0.00    +0.042 A 
ATOM     25  C   UNL     1      14.670  12.435  12.033  0.00  0.00    +0.023 A 
BRANCH  21   5
ATOM      5  O   UNL     1      16.681  11.236  14.835  0.00  0.00    -0.495 OA
ATOM     26  C   UNL     1      17.820  12.094  14.863  0.00  0.00    +0.277 C 
ENDBRANCH  21   5
ENDBRANCH  18  20
BRANCH  10   2
ATOM      2  O   UNL     1      11.044   5.505  21.100  0.00  0.00    -0.390 OA
ATOM     28  H   UNL     1      11.636   4.777  21.355  0.00  0.00    +0.210 HD
ENDBRANCH  10   2
TORSDOF 3
ENDMDL
MODEL 9
REMARK VINA RESULT:      -7.2     27.159     29.888
REMARK  Name = 11865998
REMARK  4 active torsions:
REMARK  status: ('A' for Active; 'I' for Inactive)
REMARK    1  A    between atoms: O_2  and  C_10
REMARK    2  A    between atoms: O_5  and  C_21
REMARK    3  A    between atoms: O_5  and  C_26
REMARK    4  A    between atoms: C_18  and  C_20
REMARK                            x       y       z     vdW  Elec       q    Type
REMARK                         _______ _______ _______ _____ _____    ______ ____
ROOT
ATOM      3  O   UNL     1      -0.943 -11.150  15.298  0.00  0.00    -0.273 OA
ATOM      4  O   UNL     1      -6.025  -9.816  14.808  0.00  0.00    -0.270 OA
ATOM      6  N   UNL     1      -4.082 -10.932  14.294  0.00  0.00    -0.283 N 
ATOM      7  N   UNL     1      -2.621 -11.167  16.840  0.00  0.00    -0.283 N 
ATOM      8  C   UNL     1      -3.090 -11.954  14.557  0.00  0.00    +0.165 C 
ATOM      9  C   UNL     1      -2.470 -12.242  13.191  0.00  0.00    +0.065 C 
ATOM     10  C   UNL     1      -2.626 -10.922  12.439  0.00  0.00    +0.134 C 
ATOM     11  C   UNL     1      -3.964 -10.404  12.942  0.00  0.00    +0.140 C 
ATOM     12  C   UNL     1      -2.128 -11.358  15.565  0.00  0.00    +0.238 C 
ATOM     13  C   UNL     1      -5.114 -10.577  15.134  0.00  0.00    +0.249 C 
ATOM     14  C   UNL     1      -5.108 -11.122  16.516  0.00  0.00    +0.059 A 
ATOM     15  C   UNL     1      -3.951 -11.295  17.296  0.00  0.00    +0.046 A 
ATOM     16  C   UNL     1      -6.373 -11.307  17.105  0.00  0.00    +0.023 A 
ATOM     17  C   UNL     1      -4.095 -11.583  18.664  0.00  0.00    +0.024 A 
ATOM     18  C   UNL     1      -6.492 -11.638  18.454  0.00  0.00    -0.014 A 
ATOM     19  C   UNL     1      -5.353 -11.765  19.237  0.00  0.00    +0.010 A 
ATOM     27  H   UNL     1      -1.921 -10.996  17.556  0.00  0.00    +0.155 HD
ENDROOT
BRANCH  18  20
ATOM      1 CL   UNL     1      -9.653 -14.668  21.171  0.00  0.00    -0.084 Cl
ATOM     20  C   UNL     1      -7.801 -11.830  19.041  0.00  0.00    +0.025 A 
ATOM     21  C   UNL     1      -8.792 -10.856  18.918  0.00  0.00    +0.128 A 
ATOM     22  C   UNL     1      -8.069 -13.010  19.738  0.00  0.00    +0.032 A 
ATOM     23  C   UNL     1     -10.048 -11.059  19.491  0.00  0.00    +0.047 A 
ATOM     24  C   UNL     1      -9.324 -13.214  20.311  0.00  0.00    +0.042 A 
ATOM     25  C   UNL     1     -10.314 -12.239  20.188  0.00  0.00    +0.023 A 
BRANCH  21   5
ATOM      5  O   UNL     1      -8.561  -9.694  18.243  0.00  0.00    -0.495 OA
ATOM     26  C   UNL     1      -9.644  -9.159  17.485  0.00  0.00    +0.277 C 
ENDBRANCH  21   5
ENDBRANCH  18  20
BRANCH  10   2
ATOM      2  O   UNL     1      -2.650 -11.123  11.041  0.00  0.00    -0.390 OA
ATOM     28  H   UNL     1      -3.559 -10.958  10.738  0.00  0.00    +0.210 HD
ENDBRANCH  10   2
TORSDOF 3
ENDMDL
MODEL 10
REMARK VINA RESULT:      -7.1     27.281     29.303
REMARK  Name = 11865998
REMARK  4 active torsions:
REMARK  status: ('A' for Active; 'I' for Inactive)
REMARK    1  A    between atoms: O_2  and  C_10
REMARK    2  A    between atoms: O_5  and  C_21
REMARK    3  A    between atoms: O_5  and  C_26
REMARK    4  A    between atoms: C_18  and  C_20
REMARK                            x       y       z     vdW  Elec       q    Type
REMARK                         _______ _______ _______ _____ _____    ______ ____
ROOT
ATOM      3  O   UNL     1      -3.784 -11.831  19.773  0.00  0.00    -0.273 OA
ATOM      4  O   UNL     1      -6.575 -13.252  15.526  0.00  0.00    -0.270 OA
ATOM      6  N   UNL     1      -6.173 -12.178  17.519  0.00  0.00    -0.283 N 
ATOM      7  N   UNL     1      -3.273 -11.669  17.558  0.00  0.00    -0.283 N 
ATOM      8  C   UNL     1      -5.554 -11.126  18.299  0.00  0.00    +0.165 C 
ATOM      9  C   UNL     1      -6.461 -10.975  19.520  0.00  0.00    +0.065 C 
ATOM     10  C   UNL     1      -7.064 -12.368  19.694  0.00  0.00    +0.134 C 
ATOM     11  C   UNL     1      -7.236 -12.842  18.260  0.00  0.00    +0.140 C 
ATOM     12  C   UNL     1      -4.153 -11.607  18.619  0.00  0.00    +0.238 C 
ATOM     13  C   UNL     1      -5.918 -12.453  16.194  0.00  0.00    +0.249 C 
ATOM     14  C   UNL     1      -4.768 -11.768  15.547  0.00  0.00    +0.059 A 
ATOM     15  C   UNL     1      -3.542 -11.506  16.181  0.00  0.00    +0.046 A 
ATOM     16  C   UNL     1      -4.896 -11.535  14.165  0.00  0.00    +0.023 A 
ATOM     17  C   UNL     1      -2.454 -11.079  15.401  0.00  0.00    +0.024 A 
ATOM     18  C   UNL     1      -3.818 -11.066  13.416  0.00  0.00    -0.014 A 
ATOM     19  C   UNL     1      -2.592 -10.850  14.032  0.00  0.00    +0.010 A 
ATOM     27  H   UNL     1      -2.292 -11.759  17.811  0.00  0.00    +0.155 HD
ENDROOT
BRANCH  18  20
ATOM      1 CL   UNL     1      -5.420  -7.909   9.673  0.00  0.00    -0.084 Cl
ATOM     20  C   UNL     1      -3.969 -10.826  11.997  0.00  0.00    +0.025 A 
ATOM     21  C   UNL     1      -3.544 -11.769  11.061  0.00  0.00    +0.128 A 
ATOM     22  C   UNL     1      -4.550  -9.631  11.567  0.00  0.00    +0.032 A 
ATOM     23  C   UNL     1      -3.699 -11.519   9.697  0.00  0.00    +0.047 A 
ATOM     24  C   UNL     1      -4.705  -9.382  10.203  0.00  0.00    +0.042 A 
ATOM     25  C   UNL     1      -4.279 -10.325   9.268  0.00  0.00    +0.023 A 
BRANCH  21   5
ATOM      5  O   UNL     1      -2.973 -12.945  11.451  0.00  0.00    -0.495 OA
ATOM     26  C   UNL     1      -3.719 -14.136  11.209  0.00  0.00    +0.277 C 
ENDBRANCH  21   5
ENDBRANCH  18  20
BRANCH  10   2
ATOM      2  O   UNL     1      -8.306 -12.312  20.365  0.00  0.00    -0.390 OA
ATOM     28  H   UNL     1      -8.654 -13.219  20.410  0.00  0.00    +0.210 HD
ENDBRANCH  10   2
TORSDOF 3
ENDMDL
