MODEL 1
REMARK VINA RESULT:      -7.0      0.000      0.000
REMARK  Name = 38029331
REMARK  14 active torsions:
REMARK  status: ('A' for Active; 'I' for Inactive)
REMARK    1  A    between atoms: N_3  and  C_14
REMARK    2  A    between atoms: N_4  and  C_21
REMARK    3  A    between atoms: N_5  and  C_22
REMARK    4  A    between atoms: C_7  and  C_11
REMARK    5  A    between atoms: C_8  and  C_14
REMARK    6  A    between atoms: C_10  and  C_15
REMARK    7  A    between atoms: C_11  and  C_16
REMARK    8  A    between atoms: C_11  and  C_17
REMARK    9  A    between atoms: C_12  and  C_18
REMARK   10  A    between atoms: C_15  and  C_19
REMARK   11  A    between atoms: C_21  and  C_23
REMARK   12  A    between atoms: C_22  and  C_24
REMARK   13  A    between atoms: C_22  and  C_25
REMARK   14  A    between atoms: C_30  and  C_31
REMARK                            x       y       z     vdW  Elec       q    Type
REMARK                         _______ _______ _______ _____ _____    ______ ____
ROOT
ATOM      7  C   UNL     1      -5.210 -10.609  10.834  0.00  0.00    +0.000 C 
ATOM      8  C   UNL     1      -4.622  -9.709   9.719  0.00  0.00    +0.032 C 
ATOM      9  C   UNL     1      -4.684 -10.171  12.210  0.00  0.00    +0.012 C 
ATOM     10  C   UNL     1      -3.147 -10.232  12.292  0.00  0.00    +0.023 C 
ATOM     12  C   UNL     1      -2.493  -9.596  11.083  0.00  0.00    -0.073 C 
ATOM     13  C   UNL     1      -3.171  -9.358   9.947  0.00  0.00    -0.022 C 
ATOM     18  C   UNL     1      -1.050  -9.196  11.226  0.00  0.00    +0.039 C 
ENDROOT
BRANCH   7  11
ATOM     11  C   UNL     1      -6.742 -10.588  10.834  0.00  0.00    -0.013 C 
ATOM     16  C   UNL     1      -7.284 -11.288  12.076  0.00  0.00    +0.007 C 
ATOM     17  C   UNL     1      -7.254  -9.154  10.755  0.00  0.00    +0.007 C 
ENDBRANCH   7  11
BRANCH   8  14
ATOM     14  C   UNL     1      -4.779 -10.361   8.341  0.00  0.00    +0.113 C 
BRANCH  14   3
ATOM      2  O   UNL     1      -7.416 -10.408   7.169  0.00  0.00    -0.253 OA
ATOM      3  N   UNL     1      -5.319  -9.433   7.398  0.00  0.00    -0.299 N 
ATOM      5  N   UNL     1      -6.882  -8.492   5.976  0.00  0.00    -0.297 N 
ATOM     20  C   UNL     1      -6.614  -9.523   6.872  0.00  0.00    +0.300 C 
ATOM     32  H   UNL     1      -4.762  -8.624   7.140  0.00  0.00    +0.150 HD
ATOM     34  H   UNL     1      -6.128  -7.854   5.737  0.00  0.00    +0.150 HD
BRANCH   5  22
ATOM     22  C   UNL     1      -8.146  -8.355   5.294  0.00  0.00    +0.068 C 
ATOM     24  C   UNL     1      -7.924  -8.153   3.801  0.00  0.00    +0.027 C 
ATOM     25  C   UNL     1      -8.956  -7.210   5.891  0.00  0.00    +0.027 C 
ENDBRANCH   5  22
ENDBRANCH  14   3
ENDBRANCH   8  14
BRANCH  10  15
ATOM     15  C   UNL     1      -2.662 -11.674  12.483  0.00  0.00    +0.103 C 
BRANCH  15  19
ATOM      1  O   UNL     1      -1.831 -13.035  14.303  0.00  0.00    -0.276 OA
ATOM      4  N   UNL     1      -2.575 -10.877  14.736  0.00  0.00    -0.311 N 
ATOM     19  C   UNL     1      -2.301 -11.967  13.922  0.00  0.00    +0.214 C 
ATOM     33  H   UNL     1      -2.962 -10.032  14.326  0.00  0.00    +0.149 HD
BRANCH   4  21
ATOM     21  C   UNL     1      -2.332 -10.873  16.160  0.00  0.00    +0.139 C 
BRANCH  21  23
ATOM     23  C   UNL     1      -3.610 -10.896  16.948  0.00  0.00    -0.030 A 
ATOM     26  C   UNL     1      -4.755 -10.287  16.436  0.00  0.00    +0.006 A 
ATOM     27  C   UNL     1      -3.650 -11.525  18.191  0.00  0.00    +0.006 A 
ATOM     28  C   UNL     1      -5.942 -10.308  17.168  0.00  0.00    +0.019 A 
ATOM     29  C   UNL     1      -4.838 -11.546  18.924  0.00  0.00    +0.019 A 
ATOM     30  C   UNL     1      -5.983 -10.937  18.412  0.00  0.00    +0.052 A 
BRANCH  30  31
ATOM      6  N   UNL     1      -8.186 -10.976  19.772  0.00  0.00    -0.191 NA
ATOM     31  C   UNL     1      -7.199 -10.958  19.162  0.00  0.00    +0.099 C 
ENDBRANCH  30  31
ENDBRANCH  21  23
ENDBRANCH   4  21
ENDBRANCH  15  19
ENDBRANCH  10  15
TORSDOF 9
ENDMDL
MODEL 2
REMARK VINA RESULT:      -6.8      2.827      8.798
REMARK  Name = 38029331
REMARK  14 active torsions:
REMARK  status: ('A' for Active; 'I' for Inactive)
REMARK    1  A    between atoms: N_3  and  C_14
REMARK    2  A    between atoms: N_4  and  C_21
REMARK    3  A    between atoms: N_5  and  C_22
REMARK    4  A    between atoms: C_7  and  C_11
REMARK    5  A    between atoms: C_8  and  C_14
REMARK    6  A    between atoms: C_10  and  C_15
REMARK    7  A    between atoms: C_11  and  C_16
REMARK    8  A    between atoms: C_11  and  C_17
REMARK    9  A    between atoms: C_12  and  C_18
REMARK   10  A    between atoms: C_15  and  C_19
REMARK   11  A    between atoms: C_21  and  C_23
REMARK   12  A    between atoms: C_22  and  C_24
REMARK   13  A    between atoms: C_22  and  C_25
REMARK   14  A    between atoms: C_30  and  C_31
REMARK                            x       y       z     vdW  Elec       q    Type
REMARK                         _______ _______ _______ _____ _____    ______ ____
ROOT
ATOM      7  C   UNL     1      -5.946 -10.514  15.251  0.00  0.00    +0.000 C 
ATOM      8  C   UNL     1      -6.818 -10.633  16.527  0.00  0.00    +0.032 C 
ATOM      9  C   UNL     1      -4.906 -11.645  15.206  0.00  0.00    +0.012 C 
ATOM     10  C   UNL     1      -3.978 -11.631  16.434  0.00  0.00    +0.023 C 
ATOM     12  C   UNL     1      -4.754 -11.478  17.725  0.00  0.00    -0.073 C 
ATOM     13  C   UNL     1      -6.026 -11.043  17.746  0.00  0.00    -0.022 C 
ATOM     18  C   UNL     1      -4.050 -11.881  18.991  0.00  0.00    +0.039 C 
ENDROOT
BRANCH   7  11
ATOM     11  C   UNL     1      -6.797 -10.540  13.977  0.00  0.00    -0.013 C 
ATOM     16  C   UNL     1      -6.221  -9.588  12.933  0.00  0.00    +0.007 C 
ATOM     17  C   UNL     1      -6.885 -11.959  13.425  0.00  0.00    +0.007 C 
ENDBRANCH   7  11
BRANCH   8  14
ATOM     14  C   UNL     1      -7.557  -9.321  16.815  0.00  0.00    +0.113 C 
BRANCH  14   3
ATOM      2  O   UNL     1     -10.103 -10.653  17.086  0.00  0.00    -0.253 OA
ATOM      3  N   UNL     1      -8.347  -9.434  18.000  0.00  0.00    -0.299 N 
ATOM      5  N   UNL     1     -10.136 -10.058  19.328  0.00  0.00    -0.297 N 
ATOM     20  C   UNL     1      -9.580 -10.099  18.053  0.00  0.00    +0.300 C 
ATOM     32  H   UNL     1      -7.971  -9.072  18.871  0.00  0.00    +0.150 HD
ATOM     34  H   UNL     1      -9.664  -9.509  20.042  0.00  0.00    +0.150 HD
BRANCH   5  22
ATOM     22  C   UNL     1     -11.404 -10.669  19.650  0.00  0.00    +0.068 C 
ATOM     24  C   UNL     1     -12.216  -9.756  20.559  0.00  0.00    +0.027 C 
ATOM     25  C   UNL     1     -11.192 -12.036  20.288  0.00  0.00    +0.027 C 
ENDBRANCH   5  22
ENDBRANCH  14   3
ENDBRANCH   8  14
BRANCH  10  15
ATOM     15  C   UNL     1      -2.907 -10.541  16.305  0.00  0.00    +0.103 C 
BRANCH  15  19
ATOM      1  O   UNL     1      -0.907 -11.446  15.286  0.00  0.00    -0.276 OA
ATOM      4  N   UNL     1      -2.418 -10.256  13.982  0.00  0.00    -0.311 N 
ATOM     19  C   UNL     1      -1.953 -10.813  15.164  0.00  0.00    +0.214 C 
ATOM     33  H   UNL     1      -3.300  -9.751  13.979  0.00  0.00    +0.149 HD
BRANCH   4  21
ATOM     21  C   UNL     1      -1.708 -10.357  12.728  0.00  0.00    +0.139 C 
BRANCH  21  23
ATOM     23  C   UNL     1      -2.641 -10.343  11.551  0.00  0.00    -0.030 A 
ATOM     26  C   UNL     1      -3.467 -11.439  11.304  0.00  0.00    +0.006 A 
ATOM     27  C   UNL     1      -2.680  -9.234  10.707  0.00  0.00    +0.006 A 
ATOM     28  C   UNL     1      -4.334 -11.425  10.211  0.00  0.00    +0.019 A 
ATOM     29  C   UNL     1      -3.547  -9.221   9.613  0.00  0.00    +0.019 A 
ATOM     30  C   UNL     1      -4.374 -10.317   9.366  0.00  0.00    +0.052 A 
BRANCH  30  31
ATOM      6  N   UNL     1      -5.982 -10.292   7.337  0.00  0.00    -0.191 NA
ATOM     31  C   UNL     1      -5.261 -10.303   8.246  0.00  0.00    +0.099 C 
ENDBRANCH  30  31
ENDBRANCH  21  23
ENDBRANCH   4  21
ENDBRANCH  15  19
ENDBRANCH  10  15
TORSDOF 9
ENDMDL
MODEL 3
REMARK VINA RESULT:      -6.4      2.114      3.222
REMARK  Name = 38029331
REMARK  14 active torsions:
REMARK  status: ('A' for Active; 'I' for Inactive)
REMARK    1  A    between atoms: N_3  and  C_14
REMARK    2  A    between atoms: N_4  and  C_21
REMARK    3  A    between atoms: N_5  and  C_22
REMARK    4  A    between atoms: C_7  and  C_11
REMARK    5  A    between atoms: C_8  and  C_14
REMARK    6  A    between atoms: C_10  and  C_15
REMARK    7  A    between atoms: C_11  and  C_16
REMARK    8  A    between atoms: C_11  and  C_17
REMARK    9  A    between atoms: C_12  and  C_18
REMARK   10  A    between atoms: C_15  and  C_19
REMARK   11  A    between atoms: C_21  and  C_23
REMARK   12  A    between atoms: C_22  and  C_24
REMARK   13  A    between atoms: C_22  and  C_25
REMARK   14  A    between atoms: C_30  and  C_31
REMARK                            x       y       z     vdW  Elec       q    Type
REMARK                         _______ _______ _______ _____ _____    ______ ____
ROOT
ATOM      7  C   UNL     1      -5.526 -10.575  10.538  0.00  0.00    +0.000 C 
ATOM      8  C   UNL     1      -4.922  -9.648   9.453  0.00  0.00    +0.032 C 
ATOM      9  C   UNL     1      -5.032 -10.159  11.933  0.00  0.00    +0.012 C 
ATOM     10  C   UNL     1      -3.497 -10.210  12.047  0.00  0.00    +0.023 C 
ATOM     12  C   UNL     1      -2.823  -9.545  10.865  0.00  0.00    -0.073 C 
ATOM     13  C   UNL     1      -3.479  -9.290   9.719  0.00  0.00    -0.022 C 
ATOM     18  C   UNL     1      -1.387  -9.136  11.045  0.00  0.00    +0.039 C 
ENDROOT
BRANCH   7  11
ATOM     11  C   UNL     1      -7.058 -10.566  10.506  0.00  0.00    -0.013 C 
ATOM     16  C   UNL     1      -7.616 -11.615  11.462  0.00  0.00    +0.007 C 
ATOM     17  C   UNL     1      -7.589  -9.179  10.855  0.00  0.00    +0.007 C 
ENDBRANCH   7  11
BRANCH   8  14
ATOM     14  C   UNL     1      -5.045 -10.274   8.060  0.00  0.00    +0.113 C 
BRANCH  14   3
ATOM      2  O   UNL     1      -4.484 -11.858   5.714  0.00  0.00    -0.253 OA
ATOM      3  N   UNL     1      -4.387 -11.542   8.014  0.00  0.00    -0.299 N 
ATOM      5  N   UNL     1      -3.494 -13.457   7.073  0.00  0.00    -0.297 N 
ATOM     20  C   UNL     1      -4.151 -12.254   6.831  0.00  0.00    +0.300 C 
ATOM     32  H   UNL     1      -4.009 -11.924   8.876  0.00  0.00    +0.150 HD
ATOM     34  H   UNL     1      -3.331 -13.731   8.037  0.00  0.00    +0.150 HD
BRANCH   5  22
ATOM     22  C   UNL     1      -3.134 -14.378   6.021  0.00  0.00    +0.068 C 
ATOM     24  C   UNL     1      -3.144 -15.809   6.543  0.00  0.00    +0.027 C 
ATOM     25  C   UNL     1      -1.776 -14.015   5.434  0.00  0.00    +0.027 C 
ENDBRANCH   5  22
ENDBRANCH  14   3
ENDBRANCH   8  14
BRANCH  10  15
ATOM     15  C   UNL     1      -3.004 -11.651  12.220  0.00  0.00    +0.103 C 
BRANCH  15  19
ATOM      1  O   UNL     1      -2.280 -13.064  14.047  0.00  0.00    -0.276 OA
ATOM      4  N   UNL     1      -2.692 -10.811  14.437  0.00  0.00    -0.311 N 
ATOM     19  C   UNL     1      -2.615 -11.951  13.650  0.00  0.00    +0.214 C 
ATOM     33  H   UNL     1      -2.978  -9.931  14.016  0.00  0.00    +0.149 HD
BRANCH   4  21
ATOM     21  C   UNL     1      -2.379 -10.801  15.847  0.00  0.00    +0.139 C 
BRANCH  21  23
ATOM     23  C   UNL     1      -3.616 -10.825  16.697  0.00  0.00    -0.030 A 
ATOM     26  C   UNL     1      -4.791 -10.232  16.236  0.00  0.00    +0.006 A 
ATOM     27  C   UNL     1      -3.589 -11.442  17.948  0.00  0.00    +0.006 A 
ATOM     28  C   UNL     1      -5.940 -10.255  17.027  0.00  0.00    +0.019 A 
ATOM     29  C   UNL     1      -4.739 -11.464  18.739  0.00  0.00    +0.019 A 
ATOM     30  C   UNL     1      -5.914 -10.871  18.277  0.00  0.00    +0.052 A 
BRANCH  30  31
ATOM      6  N   UNL     1      -8.048 -10.914  19.744  0.00  0.00    -0.191 NA
ATOM     31  C   UNL     1      -7.092 -10.894  19.087  0.00  0.00    +0.099 C 
ENDBRANCH  30  31
ENDBRANCH  21  23
ENDBRANCH   4  21
ENDBRANCH  15  19
ENDBRANCH  10  15
TORSDOF 9
ENDMDL
MODEL 4
REMARK VINA RESULT:      -6.1     22.784     26.725
REMARK  Name = 38029331
REMARK  14 active torsions:
REMARK  status: ('A' for Active; 'I' for Inactive)
REMARK    1  A    between atoms: N_3  and  C_14
REMARK    2  A    between atoms: N_4  and  C_21
REMARK    3  A    between atoms: N_5  and  C_22
REMARK    4  A    between atoms: C_7  and  C_11
REMARK    5  A    between atoms: C_8  and  C_14
REMARK    6  A    between atoms: C_10  and  C_15
REMARK    7  A    between atoms: C_11  and  C_16
REMARK    8  A    between atoms: C_11  and  C_17
REMARK    9  A    between atoms: C_12  and  C_18
REMARK   10  A    between atoms: C_15  and  C_19
REMARK   11  A    between atoms: C_21  and  C_23
REMARK   12  A    between atoms: C_22  and  C_24
REMARK   13  A    between atoms: C_22  and  C_25
REMARK   14  A    between atoms: C_30  and  C_31
REMARK                            x       y       z     vdW  Elec       q    Type
REMARK                         _______ _______ _______ _____ _____    ______ ____
ROOT
ATOM      7  C   UNL     1       9.154   8.537   5.336  0.00  0.00    +0.000 C 
ATOM      8  C   UNL     1       9.078   7.885   6.739  0.00  0.00    +0.032 C 
ATOM      9  C   UNL     1       8.551   7.601   4.277  0.00  0.00    +0.012 C 
ATOM     10  C   UNL     1       9.271   6.242   4.223  0.00  0.00    +0.023 C 
ATOM     12  C   UNL     1       9.475   5.657   5.605  0.00  0.00    -0.073 C 
ATOM     13  C   UNL     1       9.371   6.403   6.719  0.00  0.00    -0.022 C 
ATOM     18  C   UNL     1       9.754   4.181   5.682  0.00  0.00    +0.039 C 
ENDROOT
BRANCH   7  11
ATOM     11  C   UNL     1       8.439   9.892   5.299  0.00  0.00    -0.013 C 
ATOM     16  C   UNL     1       9.346  10.956   4.688  0.00  0.00    +0.007 C 
ATOM     17  C   UNL     1       7.132   9.783   4.520  0.00  0.00    +0.007 C 
ENDBRANCH   7  11
BRANCH   8  14
ATOM     14  C   UNL     1      10.025   8.579   7.724  0.00  0.00    +0.113 C 
BRANCH  14   3
ATOM      2  O   UNL     1      12.469   7.068   7.455  0.00  0.00    -0.253 OA
ATOM      3  N   UNL     1      11.225   8.993   7.068  0.00  0.00    -0.299 N 
ATOM      5  N   UNL     1      13.398   8.845   6.288  0.00  0.00    -0.297 N 
ATOM     20  C   UNL     1      12.376   8.199   6.979  0.00  0.00    +0.300 C 
ATOM     32  H   UNL     1      11.229   9.883   6.581  0.00  0.00    +0.150 HD
ATOM     34  H   UNL     1      13.251   9.809   6.001  0.00  0.00    +0.150 HD
BRANCH   5  22
ATOM     22  C   UNL     1      14.690   8.243   6.057  0.00  0.00    +0.068 C 
ATOM     24  C   UNL     1      15.780   9.307   6.073  0.00  0.00    +0.027 C 
ATOM     25  C   UNL     1      14.693   7.470   4.744  0.00  0.00    +0.027 C 
ENDBRANCH   5  22
ENDBRANCH  14   3
ENDBRANCH   8  14
BRANCH  10  15
ATOM     15  C   UNL     1      10.604   6.352   3.473  0.00  0.00    +0.103 C 
BRANCH  15  19
ATOM      1  O   UNL     1      10.075   5.221   1.401  0.00  0.00    -0.276 OA
ATOM      4  N   UNL     1      11.754   4.379   2.768  0.00  0.00    -0.311 N 
ATOM     19  C   UNL     1      10.756   5.277   2.421  0.00  0.00    +0.214 C 
ATOM     33  H   UNL     1      12.268   4.511   3.634  0.00  0.00    +0.149 HD
BRANCH   4  21
ATOM     21  C   UNL     1      12.117   3.245   1.948  0.00  0.00    +0.139 C 
BRANCH  21  23
ATOM     23  C   UNL     1      13.288   3.546   1.059  0.00  0.00    -0.030 A 
ATOM     26  C   UNL     1      14.574   3.605   1.597  0.00  0.00    +0.006 A 
ATOM     27  C   UNL     1      13.090   3.768  -0.303  0.00  0.00    +0.006 A 
ATOM     28  C   UNL     1      15.663   3.884   0.770  0.00  0.00    +0.019 A 
ATOM     29  C   UNL     1      14.180   4.048  -1.130  0.00  0.00    +0.019 A 
ATOM     30  C   UNL     1      15.465   4.106  -0.592  0.00  0.00    +0.052 A 
BRANCH  30  31
ATOM      6  N   UNL     1      17.486   4.626  -2.126  0.00  0.00    -0.191 NA
ATOM     31  C   UNL     1      16.581   4.393  -1.438  0.00  0.00    +0.099 C 
ENDBRANCH  30  31
ENDBRANCH  21  23
ENDBRANCH   4  21
ENDBRANCH  15  19
ENDBRANCH  10  15
TORSDOF 9
ENDMDL
MODEL 5
REMARK VINA RESULT:      -6.1     22.560     26.716
REMARK  Name = 38029331
REMARK  14 active torsions:
REMARK  status: ('A' for Active; 'I' for Inactive)
REMARK    1  A    between atoms: N_3  and  C_14
REMARK    2  A    between atoms: N_4  and  C_21
REMARK    3  A    between atoms: N_5  and  C_22
REMARK    4  A    between atoms: C_7  and  C_11
REMARK    5  A    between atoms: C_8  and  C_14
REMARK    6  A    between atoms: C_10  and  C_15
REMARK    7  A    between atoms: C_11  and  C_16
REMARK    8  A    between atoms: C_11  and  C_17
REMARK    9  A    between atoms: C_12  and  C_18
REMARK   10  A    between atoms: C_15  and  C_19
REMARK   11  A    between atoms: C_21  and  C_23
REMARK   12  A    between atoms: C_22  and  C_24
REMARK   13  A    between atoms: C_22  and  C_25
REMARK   14  A    between atoms: C_30  and  C_31
REMARK                            x       y       z     vdW  Elec       q    Type
REMARK                         _______ _______ _______ _____ _____    ______ ____
ROOT
ATOM      7  C   UNL     1      12.579   7.953   4.603  0.00  0.00    +0.000 C 
ATOM      8  C   UNL     1      11.661   9.051   5.197  0.00  0.00    +0.032 C 
ATOM      9  C   UNL     1      12.160   7.627   3.160  0.00  0.00    +0.012 C 
ATOM     10  C   UNL     1      10.700   7.144   3.072  0.00  0.00    +0.023 C 
ATOM     12  C   UNL     1       9.764   8.033   3.864  0.00  0.00    -0.073 C 
ATOM     13  C   UNL     1      10.213   8.889   4.800  0.00  0.00    -0.022 C 
ATOM     18  C   UNL     1       8.302   7.951   3.523  0.00  0.00    +0.039 C 
ENDROOT
BRANCH   7  11
ATOM     11  C   UNL     1      14.054   8.366   4.634  0.00  0.00    -0.013 C 
ATOM     16  C   UNL     1      14.859   7.399   5.497  0.00  0.00    +0.007 C 
ATOM     17  C   UNL     1      14.619   8.427   3.219  0.00  0.00    +0.007 C 
ENDBRANCH   7  11
BRANCH   8  14
ATOM     14  C   UNL     1      11.770   9.095   6.725  0.00  0.00    +0.113 C 
BRANCH  14   3
ATOM      2  O   UNL     1      12.171   6.381   7.618  0.00  0.00    -0.253 OA
ATOM      3  N   UNL     1      10.801   8.235   7.328  0.00  0.00    -0.299 N 
ATOM      5  N   UNL     1       9.953   6.311   8.291  0.00  0.00    -0.297 N 
ATOM     20  C   UNL     1      11.073   6.923   7.736  0.00  0.00    +0.300 C 
ATOM     32  H   UNL     1       9.881   8.611   7.535  0.00  0.00    +0.150 HD
ATOM     34  H   UNL     1       9.070   6.815   8.273  0.00  0.00    +0.150 HD
BRANCH   5  22
ATOM     22  C   UNL     1       9.966   4.957   8.791  0.00  0.00    +0.068 C 
ATOM     24  C   UNL     1       9.672   3.974   7.666  0.00  0.00    +0.027 C 
ATOM     25  C   UNL     1       8.974   4.798   9.936  0.00  0.00    +0.027 C 
ENDBRANCH   5  22
ENDBRANCH  14   3
ENDBRANCH   8  14
BRANCH  10  15
ATOM     15  C   UNL     1      10.575   5.682   3.517  0.00  0.00    +0.103 C 
BRANCH  15  19
ATOM      1  O   UNL     1      10.120   4.690   1.358  0.00  0.00    -0.276 OA
ATOM      4  N   UNL     1      11.883   3.884   2.638  0.00  0.00    -0.311 N 
ATOM     19  C   UNL     1      10.806   4.718   2.375  0.00  0.00    +0.214 C 
ATOM     33  H   UNL     1      12.394   3.986   3.510  0.00  0.00    +0.149 HD
BRANCH   4  21
ATOM     21  C   UNL     1      12.333   2.862   1.721  0.00  0.00    +0.139 C 
BRANCH  21  23
ATOM     23  C   UNL     1      13.438   3.352   0.831  0.00  0.00    -0.030 A 
ATOM     26  C   UNL     1      13.194   3.576  -0.524  0.00  0.00    +0.006 A 
ATOM     27  C   UNL     1      14.707   3.582   1.359  0.00  0.00    +0.006 A 
ATOM     28  C   UNL     1      14.221   4.032  -1.351  0.00  0.00    +0.019 A 
ATOM     29  C   UNL     1      15.735   4.038   0.531  0.00  0.00    +0.019 A 
ATOM     30  C   UNL     1      15.491   4.262  -0.824  0.00  0.00    +0.052 A 
BRANCH  30  31
ATOM      6  N   UNL     1      17.397   5.106  -2.359  0.00  0.00    -0.191 NA
ATOM     31  C   UNL     1      16.543   4.728  -1.671  0.00  0.00    +0.099 C 
ENDBRANCH  30  31
ENDBRANCH  21  23
ENDBRANCH   4  21
ENDBRANCH  15  19
ENDBRANCH  10  15
TORSDOF 9
ENDMDL
MODEL 6
REMARK VINA RESULT:      -6.1     27.788     31.302
REMARK  Name = 38029331
REMARK  14 active torsions:
REMARK  status: ('A' for Active; 'I' for Inactive)
REMARK    1  A    between atoms: N_3  and  C_14
REMARK    2  A    between atoms: N_4  and  C_21
REMARK    3  A    between atoms: N_5  and  C_22
REMARK    4  A    between atoms: C_7  and  C_11
REMARK    5  A    between atoms: C_8  and  C_14
REMARK    6  A    between atoms: C_10  and  C_15
REMARK    7  A    between atoms: C_11  and  C_16
REMARK    8  A    between atoms: C_11  and  C_17
REMARK    9  A    between atoms: C_12  and  C_18
REMARK   10  A    between atoms: C_15  and  C_19
REMARK   11  A    between atoms: C_21  and  C_23
REMARK   12  A    between atoms: C_22  and  C_24
REMARK   13  A    between atoms: C_22  and  C_25
REMARK   14  A    between atoms: C_30  and  C_31
REMARK                            x       y       z     vdW  Elec       q    Type
REMARK                         _______ _______ _______ _____ _____    ______ ____
ROOT
ATOM      7  C   UNL     1      17.999   7.598  21.282  0.00  0.00    +0.000 C 
ATOM      8  C   UNL     1      19.519   7.377  21.082  0.00  0.00    +0.032 C 
ATOM      9  C   UNL     1      17.551   8.894  20.589  0.00  0.00    +0.012 C 
ATOM     10  C   UNL     1      18.298  10.129  21.124  0.00  0.00    +0.023 C 
ATOM     12  C   UNL     1      19.791   9.890  21.211  0.00  0.00    -0.073 C 
ATOM     13  C   UNL     1      20.320   8.654  21.177  0.00  0.00    -0.022 C 
ATOM     18  C   UNL     1      20.669  11.109  21.291  0.00  0.00    +0.039 C 
ENDROOT
BRANCH   7  11
ATOM     11  C   UNL     1      17.178   6.416  20.754  0.00  0.00    -0.013 C 
ATOM     16  C   UNL     1      15.694   6.767  20.732  0.00  0.00    +0.007 C 
ATOM     17  C   UNL     1      17.659   6.014  19.364  0.00  0.00    +0.007 C 
ENDBRANCH   7  11
BRANCH   8  14
ATOM     14  C   UNL     1      20.066   6.356  22.086  0.00  0.00    +0.113 C 
BRANCH  14   3
ATOM      2  O   UNL     1      22.816   5.558  22.447  0.00  0.00    -0.253 OA
ATOM      3  N   UNL     1      20.752   5.298  21.412  0.00  0.00    -0.299 N 
ATOM      5  N   UNL     1      22.508   3.901  20.853  0.00  0.00    -0.297 N 
ATOM     20  C   UNL     1      22.094   4.970  21.643  0.00  0.00    +0.300 C 
ATOM     32  H   UNL     1      20.225   4.706  20.778  0.00  0.00    +0.150 HD
ATOM     34  H   UNL     1      21.860   3.533  20.163  0.00  0.00    +0.150 HD
BRANCH   5  22
ATOM     22  C   UNL     1      23.848   3.366  20.899  0.00  0.00    +0.068 C 
ATOM     24  C   UNL     1      24.677   3.915  19.745  0.00  0.00    +0.027 C 
ATOM     25  C   UNL     1      23.818   1.843  20.882  0.00  0.00    +0.027 C 
ENDBRANCH   5  22
ENDBRANCH  14   3
ENDBRANCH   8  14
BRANCH  10  15
ATOM     15  C   UNL     1      17.734  10.571  22.480  0.00  0.00    +0.103 C 
BRANCH  15  19
ATOM      1  O   UNL     1      16.059  12.248  21.991  0.00  0.00    -0.276 OA
ATOM      4  N   UNL     1      15.394  10.147  22.727  0.00  0.00    -0.311 N 
ATOM     19  C   UNL     1      16.325  11.108  22.362  0.00  0.00    +0.214 C 
ATOM     33  H   UNL     1      15.712   9.227  23.018  0.00  0.00    +0.149 HD
BRANCH   4  21
ATOM     21  C   UNL     1      13.969  10.383  22.713  0.00  0.00    +0.139 C 
BRANCH  21  23
ATOM     23  C   UNL     1      13.326   9.869  21.457  0.00  0.00    -0.030 A 
ATOM     26  C   UNL     1      13.527  10.536  20.249  0.00  0.00    +0.006 A 
ATOM     27  C   UNL     1      12.530   8.725  21.500  0.00  0.00    +0.006 A 
ATOM     28  C   UNL     1      12.930  10.057  19.082  0.00  0.00    +0.019 A 
ATOM     29  C   UNL     1      11.933   8.247  20.332  0.00  0.00    +0.019 A 
ATOM     30  C   UNL     1      12.133   8.914  19.124  0.00  0.00    +0.052 A 
BRANCH  30  31
ATOM      6  N   UNL     1      11.025   8.026  16.958  0.00  0.00    -0.191 NA
ATOM     31  C   UNL     1      11.522   8.424  17.928  0.00  0.00    +0.099 C 
ENDBRANCH  30  31
ENDBRANCH  21  23
ENDBRANCH   4  21
ENDBRANCH  15  19
ENDBRANCH  10  15
TORSDOF 9
ENDMDL
MODEL 7
REMARK VINA RESULT:      -6.1      3.352      6.125
REMARK  Name = 38029331
REMARK  14 active torsions:
REMARK  status: ('A' for Active; 'I' for Inactive)
REMARK    1  A    between atoms: N_3  and  C_14
REMARK    2  A    between atoms: N_4  and  C_21
REMARK    3  A    between atoms: N_5  and  C_22
REMARK    4  A    between atoms: C_7  and  C_11
REMARK    5  A    between atoms: C_8  and  C_14
REMARK    6  A    between atoms: C_10  and  C_15
REMARK    7  A    between atoms: C_11  and  C_16
REMARK    8  A    between atoms: C_11  and  C_17
REMARK    9  A    between atoms: C_12  and  C_18
REMARK   10  A    between atoms: C_15  and  C_19
REMARK   11  A    between atoms: C_21  and  C_23
REMARK   12  A    between atoms: C_22  and  C_24
REMARK   13  A    between atoms: C_22  and  C_25
REMARK   14  A    between atoms: C_30  and  C_31
REMARK                            x       y       z     vdW  Elec       q    Type
REMARK                         _______ _______ _______ _____ _____    ______ ____
ROOT
ATOM      7  C   UNL     1      -7.395 -10.384  16.186  0.00  0.00    +0.000 C 
ATOM      8  C   UNL     1      -6.534 -10.120  14.926  0.00  0.00    +0.032 C 
ATOM      9  C   UNL     1      -6.674  -9.874  17.444  0.00  0.00    +0.012 C 
ATOM     10  C   UNL     1      -5.302 -10.545  17.641  0.00  0.00    +0.023 C 
ATOM     12  C   UNL     1      -4.495 -10.563  16.359  0.00  0.00    -0.073 C 
ATOM     13  C   UNL     1      -5.061 -10.358  15.157  0.00  0.00    -0.022 C 
ATOM     18  C   UNL     1      -3.013 -10.776  16.495  0.00  0.00    +0.039 C 
ENDROOT
BRANCH   7  11
ATOM     11  C   UNL     1      -8.777  -9.729  16.079  0.00  0.00    -0.013 C 
ATOM     16  C   UNL     1      -9.874 -10.784  16.179  0.00  0.00    +0.007 C 
ATOM     17  C   UNL     1      -8.947  -8.667  17.160  0.00  0.00    +0.007 C 
ENDBRANCH   7  11
BRANCH   8  14
ATOM     14  C   UNL     1      -7.010 -10.971  13.743  0.00  0.00    +0.113 C 
BRANCH  14   3
ATOM      2  O   UNL     1      -7.193  -9.813  11.107  0.00  0.00    -0.253 OA
ATOM      3  N   UNL     1      -6.019 -11.010  12.715  0.00  0.00    -0.299 N 
ATOM      5  N   UNL     1      -5.064 -10.610  10.646  0.00  0.00    -0.297 N 
ATOM     20  C   UNL     1      -6.182 -10.422  11.454  0.00  0.00    +0.300 C 
ATOM     32  H   UNL     1      -5.118 -11.429  12.925  0.00  0.00    +0.150 HD
ATOM     34  H   UNL     1      -4.310 -11.194  10.996  0.00  0.00    +0.150 HD
BRANCH   5  22
ATOM     22  C   UNL     1      -4.977 -10.102   9.297  0.00  0.00    +0.068 C 
ATOM     24  C   UNL     1      -4.545 -11.206   8.342  0.00  0.00    +0.027 C 
ATOM     25  C   UNL     1      -4.027  -8.913   9.233  0.00  0.00    +0.027 C 
ENDBRANCH   5  22
ENDBRANCH  14   3
ENDBRANCH   8  14
BRANCH  10  15
ATOM     15  C   UNL     1      -5.456 -11.959  18.213  0.00  0.00    +0.103 C 
BRANCH  15  19
ATOM      1  O   UNL     1      -6.231 -11.351  20.423  0.00  0.00    -0.276 OA
ATOM      4  N   UNL     1      -7.468 -12.848  19.148  0.00  0.00    -0.311 N 
ATOM     19  C   UNL     1      -6.402 -11.996  19.392  0.00  0.00    +0.214 C 
ATOM     33  H   UNL     1      -7.525 -13.338  18.259  0.00  0.00    +0.149 HD
BRANCH   4  21
ATOM     21  C   UNL     1      -8.528 -13.081  20.102  0.00  0.00    +0.139 C 
BRANCH  21  23
ATOM     23  C   UNL     1      -9.766 -12.299  19.769  0.00  0.00    -0.030 A 
ATOM     26  C   UNL     1     -10.857 -12.938  19.181  0.00  0.00    +0.006 A 
ATOM     27  C   UNL     1      -9.823 -10.934  20.048  0.00  0.00    +0.006 A 
ATOM     28  C   UNL     1     -12.007 -12.211  18.873  0.00  0.00    +0.019 A 
ATOM     29  C   UNL     1     -10.973 -10.207  19.738  0.00  0.00    +0.019 A 
ATOM     30  C   UNL     1     -12.065 -10.846  19.150  0.00  0.00    +0.052 A 
BRANCH  30  31
ATOM      6  N   UNL     1     -14.199  -9.497  18.577  0.00  0.00    -0.191 NA
ATOM     31  C   UNL     1     -13.243 -10.101  18.834  0.00  0.00    +0.099 C 
ENDBRANCH  30  31
ENDBRANCH  21  23
ENDBRANCH   4  21
ENDBRANCH  15  19
ENDBRANCH  10  15
TORSDOF 9
ENDMDL
MODEL 8
REMARK VINA RESULT:      -6.0     24.327     29.340
REMARK  Name = 38029331
REMARK  14 active torsions:
REMARK  status: ('A' for Active; 'I' for Inactive)
REMARK    1  A    between atoms: N_3  and  C_14
REMARK    2  A    between atoms: N_4  and  C_21
REMARK    3  A    between atoms: N_5  and  C_22
REMARK    4  A    between atoms: C_7  and  C_11
REMARK    5  A    between atoms: C_8  and  C_14
REMARK    6  A    between atoms: C_10  and  C_15
REMARK    7  A    between atoms: C_11  and  C_16
REMARK    8  A    between atoms: C_11  and  C_17
REMARK    9  A    between atoms: C_12  and  C_18
REMARK   10  A    between atoms: C_15  and  C_19
REMARK   11  A    between atoms: C_21  and  C_23
REMARK   12  A    between atoms: C_22  and  C_24
REMARK   13  A    between atoms: C_22  and  C_25
REMARK   14  A    between atoms: C_30  and  C_31
REMARK                            x       y       z     vdW  Elec       q    Type
REMARK                         _______ _______ _______ _____ _____    ______ ____
ROOT
ATOM      7  C   UNL     1     -11.606  10.213  32.107  0.00  0.00    +0.000 C 
ATOM      8  C   UNL     1     -10.814  10.462  33.414  0.00  0.00    +0.032 C 
ATOM      9  C   UNL     1     -13.083   9.925  32.421  0.00  0.00    +0.012 C 
ATOM     10  C   UNL     1     -13.254   8.699  33.338  0.00  0.00    +0.023 C 
ATOM     12  C   UNL     1     -12.307   8.742  34.519  0.00  0.00    -0.073 C 
ATOM     13  C   UNL     1     -11.229   9.546  34.541  0.00  0.00    -0.022 C 
ATOM     18  C   UNL     1     -12.652   7.872  35.696  0.00  0.00    +0.039 C 
ENDROOT
BRANCH   7  11
ATOM     11  C   UNL     1     -11.503  11.400  31.143  0.00  0.00    -0.013 C 
ATOM     16  C   UNL     1     -11.544  10.917  29.697  0.00  0.00    +0.007 C 
ATOM     17  C   UNL     1     -12.622  12.401  31.411  0.00  0.00    +0.007 C 
ENDBRANCH   7  11
BRANCH   8  14
ATOM     14  C   UNL     1      -9.305  10.332  33.180  0.00  0.00    +0.113 C 
BRANCH  14   3
ATOM      2  O   UNL     1      -7.433  11.620  34.959  0.00  0.00    -0.253 OA
ATOM      3  N   UNL     1      -8.662   9.755  34.319  0.00  0.00    -0.299 N 
ATOM      5  N   UNL     1      -7.284   9.649  36.173  0.00  0.00    -0.297 N 
ATOM     20  C   UNL     1      -7.761  10.448  35.137  0.00  0.00    +0.300 C 
ATOM     32  H   UNL     1      -8.918   8.812  34.594  0.00  0.00    +0.150 HD
ATOM     34  H   UNL     1      -7.554   8.670  36.190  0.00  0.00    +0.150 HD
BRANCH   5  22
ATOM     22  C   UNL     1      -6.341  10.124  37.158  0.00  0.00    +0.068 C 
ATOM     24  C   UNL     1      -5.311   9.046  37.467  0.00  0.00    +0.027 C 
ATOM     25  C   UNL     1      -7.066  10.572  38.421  0.00  0.00    +0.027 C 
ENDBRANCH   5  22
ENDBRANCH  14   3
ENDBRANCH   8  14
BRANCH  10  15
ATOM     15  C   UNL     1     -13.091   7.393  32.550  0.00  0.00    +0.103 C 
BRANCH  15  19
ATOM      1  O   UNL     1     -15.432   6.783  32.599  0.00  0.00    -0.276 OA
ATOM      4  N   UNL     1     -13.824   5.196  33.143  0.00  0.00    -0.311 N 
ATOM     19  C   UNL     1     -14.259   6.455  32.756  0.00  0.00    +0.214 C 
ATOM     33  H   UNL     1     -12.828   5.020  33.244  0.00  0.00    +0.149 HD
BRANCH   4  21
ATOM     21  C   UNL     1     -14.723   4.098  33.412  0.00  0.00    +0.139 C 
BRANCH  21  23
ATOM     23  C   UNL     1     -14.491   2.942  32.483  0.00  0.00    -0.030 A 
ATOM     26  C   UNL     1     -14.967   1.674  32.817  0.00  0.00    +0.006 A 
ATOM     27  C   UNL     1     -13.801   3.136  31.287  0.00  0.00    +0.006 A 
ATOM     28  C   UNL     1     -14.752   0.599  31.953  0.00  0.00    +0.019 A 
ATOM     29  C   UNL     1     -13.585   2.061  30.424  0.00  0.00    +0.019 A 
ATOM     30  C   UNL     1     -14.061   0.793  30.757  0.00  0.00    +0.052 A 
BRANCH  30  31
ATOM      6  N   UNL     1     -13.662  -1.201  29.155  0.00  0.00    -0.191 NA
ATOM     31  C   UNL     1     -13.840  -0.307  29.872  0.00  0.00    +0.099 C 
ENDBRANCH  30  31
ENDBRANCH  21  23
ENDBRANCH   4  21
ENDBRANCH  15  19
ENDBRANCH  10  15
TORSDOF 9
ENDMDL
MODEL 9
REMARK VINA RESULT:      -6.0     22.782     26.662
REMARK  Name = 38029331
REMARK  14 active torsions:
REMARK  status: ('A' for Active; 'I' for Inactive)
REMARK    1  A    between atoms: N_3  and  C_14
REMARK    2  A    between atoms: N_4  and  C_21
REMARK    3  A    between atoms: N_5  and  C_22
REMARK    4  A    between atoms: C_7  and  C_11
REMARK    5  A    between atoms: C_8  and  C_14
REMARK    6  A    between atoms: C_10  and  C_15
REMARK    7  A    between atoms: C_11  and  C_16
REMARK    8  A    between atoms: C_11  and  C_17
REMARK    9  A    between atoms: C_12  and  C_18
REMARK   10  A    between atoms: C_15  and  C_19
REMARK   11  A    between atoms: C_21  and  C_23
REMARK   12  A    between atoms: C_22  and  C_24
REMARK   13  A    between atoms: C_22  and  C_25
REMARK   14  A    between atoms: C_30  and  C_31
REMARK                            x       y       z     vdW  Elec       q    Type
REMARK                         _______ _______ _______ _____ _____    ______ ____
ROOT
ATOM      7  C   UNL     1       9.353   8.724   5.332  0.00  0.00    +0.000 C 
ATOM      8  C   UNL     1       9.189   8.202   6.781  0.00  0.00    +0.032 C 
ATOM      9  C   UNL     1       8.749   7.726   4.331  0.00  0.00    +0.012 C 
ATOM     10  C   UNL     1       9.405   6.336   4.427  0.00  0.00    +0.023 C 
ATOM     12  C   UNL     1       9.524   5.867   5.862  0.00  0.00    -0.073 C 
ATOM     13  C   UNL     1       9.411   6.713   6.902  0.00  0.00    -0.022 C 
ATOM     18  C   UNL     1       9.728   4.393   6.079  0.00  0.00    +0.039 C 
ENDROOT
BRANCH   7  11
ATOM     11  C   UNL     1       8.707  10.100   5.146  0.00  0.00    -0.013 C 
ATOM     16  C   UNL     1       9.518  10.941   4.166  0.00  0.00    +0.007 C 
ATOM     17  C   UNL     1       7.266   9.951   4.668  0.00  0.00    +0.007 C 
ENDBRANCH   7  11
BRANCH   8  14
ATOM     14  C   UNL     1      10.128   8.937   7.743  0.00  0.00    +0.113 C 
BRANCH  14   3
ATOM      2  O   UNL     1      10.162  11.765   8.320  0.00  0.00    -0.253 OA
ATOM      3  N   UNL     1       9.386   9.618   8.756  0.00  0.00    -0.299 N 
ATOM      5  N   UNL     1       8.632  11.400  10.024  0.00  0.00    -0.297 N 
ATOM     20  C   UNL     1       9.457  11.000   8.977  0.00  0.00    +0.300 C 
ATOM     32  H   UNL     1       8.719   9.088   9.309  0.00  0.00    +0.150 HD
ATOM     34  H   UNL     1       8.147  10.683  10.556  0.00  0.00    +0.150 HD
BRANCH   5  22
ATOM     22  C   UNL     1       8.521  12.774  10.454  0.00  0.00    +0.068 C 
ATOM     24  C   UNL     1       8.932  12.907  11.914  0.00  0.00    +0.027 C 
ATOM     25  C   UNL     1       7.106  13.292  10.230  0.00  0.00    +0.027 C 
ENDBRANCH   5  22
ENDBRANCH  14   3
ENDBRANCH   8  14
BRANCH  10  15
ATOM     15  C   UNL     1      10.771   6.320   3.730  0.00  0.00    +0.103 C 
BRANCH  15  19
ATOM      1  O   UNL     1      10.083   5.371   1.613  0.00  0.00    -0.276 OA
ATOM      4  N   UNL     1      11.792   4.360   2.820  0.00  0.00    -0.311 N 
ATOM     19  C   UNL     1      10.819   5.322   2.596  0.00  0.00    +0.214 C 
ATOM     33  H   UNL     1      12.355   4.405   3.664  0.00  0.00    +0.149 HD
BRANCH   4  21
ATOM     21  C   UNL     1      12.060   3.278   1.900  0.00  0.00    +0.139 C 
BRANCH  21  23
ATOM     23  C   UNL     1      13.256   3.557   1.037  0.00  0.00    -0.030 A 
ATOM     26  C   UNL     1      13.092   3.779  -0.330  0.00  0.00    +0.006 A 
ATOM     27  C   UNL     1      14.530   3.594   1.603  0.00  0.00    +0.006 A 
ATOM     28  C   UNL     1      14.204   4.039  -1.132  0.00  0.00    +0.019 A 
ATOM     29  C   UNL     1      15.642   3.854   0.801  0.00  0.00    +0.019 A 
ATOM     30  C   UNL     1      15.478   4.075  -0.567  0.00  0.00    +0.052 A 
BRANCH  30  31
ATOM      6  N   UNL     1      17.541   4.557  -2.056  0.00  0.00    -0.191 NA
ATOM     31  C   UNL     1      16.617   4.341  -1.388  0.00  0.00    +0.099 C 
ENDBRANCH  30  31
ENDBRANCH  21  23
ENDBRANCH   4  21
ENDBRANCH  15  19
ENDBRANCH  10  15
TORSDOF 9
ENDMDL
MODEL 10
REMARK VINA RESULT:      -5.8     24.041     27.457
REMARK  Name = 38029331
REMARK  14 active torsions:
REMARK  status: ('A' for Active; 'I' for Inactive)
REMARK    1  A    between atoms: N_3  and  C_14
REMARK    2  A    between atoms: N_4  and  C_21
REMARK    3  A    between atoms: N_5  and  C_22
REMARK    4  A    between atoms: C_7  and  C_11
REMARK    5  A    between atoms: C_8  and  C_14
REMARK    6  A    between atoms: C_10  and  C_15
REMARK    7  A    between atoms: C_11  and  C_16
REMARK    8  A    between atoms: C_11  and  C_17
REMARK    9  A    between atoms: C_12  and  C_18
REMARK   10  A    between atoms: C_15  and  C_19
REMARK   11  A    between atoms: C_21  and  C_23
REMARK   12  A    between atoms: C_22  and  C_24
REMARK   13  A    between atoms: C_22  and  C_25
REMARK   14  A    between atoms: C_30  and  C_31
REMARK                            x       y       z     vdW  Elec       q    Type
REMARK                         _______ _______ _______ _____ _____    ______ ____
ROOT
ATOM      7  C   UNL     1      15.298   6.238   0.221  0.00  0.00    +0.000 C 
ATOM      8  C   UNL     1      15.806   4.775   0.271  0.00  0.00    +0.032 C 
ATOM      9  C   UNL     1      14.380   6.528   1.419  0.00  0.00    +0.012 C 
ATOM     10  C   UNL     1      13.161   5.588   1.460  0.00  0.00    +0.023 C 
ATOM     12  C   UNL     1      13.557   4.142   1.245  0.00  0.00    -0.073 C 
ATOM     13  C   UNL     1      14.748   3.797   0.725  0.00  0.00    -0.022 C 
ATOM     18  C   UNL     1      12.569   3.097   1.686  0.00  0.00    +0.039 C 
ENDROOT
BRANCH   7  11
ATOM     11  C   UNL     1      16.455   7.242   0.198  0.00  0.00    -0.013 C 
ATOM     16  C   UNL     1      16.303   8.203  -0.976  0.00  0.00    +0.007 C 
ATOM     17  C   UNL     1      16.522   8.005   1.517  0.00  0.00    +0.007 C 
ENDBRANCH   7  11
BRANCH   8  14
ATOM     14  C   UNL     1      16.358   4.334  -1.089  0.00  0.00    +0.113 C 
BRANCH  14   3
ATOM      2  O   UNL     1      18.772   4.597  -2.648  0.00  0.00    -0.253 OA
ATOM      3  N   UNL     1      17.571   3.596  -0.930  0.00  0.00    -0.299 N 
ATOM      5  N   UNL     1      19.744   2.932  -1.360  0.00  0.00    -0.297 N 
ATOM     20  C   UNL     1      18.705   3.781  -1.731  0.00  0.00    +0.300 C 
ATOM     32  H   UNL     1      17.644   2.945  -0.154  0.00  0.00    +0.150 HD
ATOM     34  H   UNL     1      19.566   2.238  -0.639  0.00  0.00    +0.150 HD
BRANCH   5  22
ATOM     22  C   UNL     1      21.025   2.922  -2.027  0.00  0.00    +0.068 C 
ATOM     24  C   UNL     1      21.151   1.690  -2.913  0.00  0.00    +0.027 C 
ATOM     25  C   UNL     1      22.158   2.990  -1.011  0.00  0.00    +0.027 C 
ENDBRANCH   5  22
ENDBRANCH  14   3
ENDBRANCH   8  14
BRANCH  10  15
ATOM     15  C   UNL     1      12.096   6.022   0.445  0.00  0.00    +0.103 C 
BRANCH  15  19
ATOM      1  O   UNL     1       9.785   5.322   0.602  0.00  0.00    -0.276 OA
ATOM      4  N   UNL     1      10.619   6.865   2.126  0.00  0.00    -0.311 N 
ATOM     19  C   UNL     1      10.705   6.007   1.039  0.00  0.00    +0.214 C 
ATOM     33  H   UNL     1      11.440   7.390   2.415  0.00  0.00    +0.149 HD
BRANCH   4  21
ATOM     21  C   UNL     1       9.407   7.055   2.888  0.00  0.00    +0.139 C 
BRANCH  21  23
ATOM     23  C   UNL     1       9.497   6.431   4.251  0.00  0.00    -0.030 A 
ATOM     26  C   UNL     1       9.066   7.141   5.372  0.00  0.00    +0.006 A 
ATOM     27  C   UNL     1      10.011   5.143   4.395  0.00  0.00    +0.006 A 
ATOM     28  C   UNL     1       9.149   6.561   6.638  0.00  0.00    +0.019 A 
ATOM     29  C   UNL     1      10.095   4.563   5.662  0.00  0.00    +0.019 A 
ATOM     30  C   UNL     1       9.664   5.273   6.783  0.00  0.00    +0.052 A 
BRANCH  30  31
ATOM      6  N   UNL     1       9.819   4.197   9.133  0.00  0.00    -0.191 NA
ATOM     31  C   UNL     1       9.749   4.679   8.080  0.00  0.00    +0.099 C 
ENDBRANCH  30  31
ENDBRANCH  21  23
ENDBRANCH   4  21
ENDBRANCH  15  19
ENDBRANCH  10  15
TORSDOF 9
ENDMDL
