MODEL 1
REMARK VINA RESULT:      -7.2      0.000      0.000
REMARK  Name = 56774180
REMARK  8 active torsions:
REMARK  status: ('A' for Active; 'I' for Inactive)
REMARK    1  A    between atoms: N_3  and  C_7
REMARK    2  A    between atoms: C_5  and  C_10
REMARK    3  A    between atoms: C_5  and  C_11
REMARK    4  A    between atoms: C_6  and  C_9
REMARK    5  A    between atoms: C_9  and  C_12
REMARK    6  A    between atoms: C_13  and  C_14
REMARK    7  A    between atoms: C_20  and  C_21
REMARK    8  A    between atoms: C_21  and  C_22
REMARK                            x       y       z     vdW  Elec       q    Type
REMARK                         _______ _______ _______ _____ _____    ______ ____
ROOT
ATOM      5  C   UNL     1      21.357   6.530  20.962  0.00  0.00    -0.013 C 
ATOM      6  C   UNL     1      20.029   6.083  20.315  0.00  0.00    +0.004 C 
ATOM      7  C   UNL     1      21.979   5.237  20.395  0.00  0.00    +0.079 C 
ATOM      8  C   UNL     1      20.558   4.636  20.411  0.00  0.00    +0.027 C 
ATOM     10  C   UNL     1      21.984   7.786  20.385  0.00  0.00    +0.013 C 
ATOM     11  C   UNL     1      21.291   6.635  22.469  0.00  0.00    +0.013 C 
ENDROOT
BRANCH   7   3
ATOM      1  O   UNL     1      24.588   4.199  19.700  0.00  0.00    -0.276 OA
ATOM      3  N   UNL     1      22.922   4.542  21.281  0.00  0.00    -0.312 N 
ATOM     13  C   UNL     1      24.157   4.081  20.846  0.00  0.00    +0.216 C 
ATOM     28  H   UNL     1      22.664   4.368  22.250  0.00  0.00    +0.149 HD
BRANCH  13  14
ATOM     14  C   UNL     1      24.950   3.390  21.913  0.00  0.00    +0.075 C 
ATOM     15  C   UNL     1      24.036   2.554  22.810  0.00  0.00    +0.013 C 
ATOM     16  C   UNL     1      25.946   2.409  21.282  0.00  0.00    +0.013 C 
ATOM     17  C   UNL     1      24.177   1.132  22.285  0.00  0.00    +0.001 C 
ATOM     18  C   UNL     1      25.646   1.051  21.908  0.00  0.00    +0.001 C 
ENDBRANCH  13  14
ENDBRANCH   7   3
BRANCH   6   9
ATOM      9  C   UNL     1      18.739   6.351  21.101  0.00  0.00    +0.063 C 
BRANCH   9  12
ATOM      2  O   UNL     1      16.283   5.991  18.534  0.00  0.00    -0.359 OA
ATOM      4  N   UNL     1      17.468   5.625  19.162  0.00  0.00    -0.083 NA
ATOM     12  C   UNL     1      17.580   6.457  20.200  0.00  0.00    +0.084 A 
ATOM     19  C   UNL     1      16.508   7.361  20.278  0.00  0.00    +0.071 A 
ATOM     22  C   UNL     1      15.720   7.026  19.208  0.00  0.00    +0.138 A 
BRANCH  22  21
ATOM     21  C   UNL     1      14.421   7.555  18.665  0.00  0.00    +0.080 C 
BRANCH  21  20
ATOM     20  C   UNL     1      13.480   7.900  19.818  0.00  0.00    -0.004 C 
ATOM     23  C   UNL     1      12.661   6.670  20.235  0.00  0.00    +0.004 C 
ATOM     24  C   UNL     1      12.559   9.066  19.437  0.00  0.00    +0.004 C 
ATOM     25  C   UNL     1      11.675   7.003  21.352  0.00  0.00    +0.000 C 
ATOM     26  C   UNL     1      11.573   9.395  20.555  0.00  0.00    +0.000 C 
ATOM     27  C   UNL     1      10.766   8.169  20.973  0.00  0.00    +0.000 C 
ENDBRANCH  21  20
ENDBRANCH  22  21
ENDBRANCH   9  12
ENDBRANCH   6   9
TORSDOF 6
ENDMDL
MODEL 2
REMARK VINA RESULT:      -6.9     27.951     31.464
REMARK  Name = 56774180
REMARK  8 active torsions:
REMARK  status: ('A' for Active; 'I' for Inactive)
REMARK    1  A    between atoms: N_3  and  C_7
REMARK    2  A    between atoms: C_5  and  C_10
REMARK    3  A    between atoms: C_5  and  C_11
REMARK    4  A    between atoms: C_6  and  C_9
REMARK    5  A    between atoms: C_9  and  C_12
REMARK    6  A    between atoms: C_13  and  C_14
REMARK    7  A    between atoms: C_20  and  C_21
REMARK    8  A    between atoms: C_21  and  C_22
REMARK                            x       y       z     vdW  Elec       q    Type
REMARK                         _______ _______ _______ _____ _____    ______ ____
ROOT
ATOM      5  C   UNL     1      -6.256 -10.605  16.578  0.00  0.00    -0.013 C 
ATOM      6  C   UNL     1      -4.853 -10.315  17.154  0.00  0.00    +0.004 C 
ATOM      7  C   UNL     1      -6.828 -10.045  17.898  0.00  0.00    +0.079 C 
ATOM      8  C   UNL     1      -5.487 -10.435  18.556  0.00  0.00    +0.027 C 
ATOM     10  C   UNL     1      -6.656  -9.782  15.368  0.00  0.00    +0.013 C 
ATOM     11  C   UNL     1      -6.508 -12.071  16.309  0.00  0.00    +0.013 C 
ENDROOT
BRANCH   7   3
ATOM      1  O   UNL     1      -9.617  -9.333  17.626  0.00  0.00    -0.276 OA
ATOM      3  N   UNL     1      -7.984 -10.765  18.446  0.00  0.00    -0.312 N 
ATOM     13  C   UNL     1      -9.291 -10.337  18.257  0.00  0.00    +0.216 C 
ATOM     28  H   UNL     1      -7.835 -11.602  19.005  0.00  0.00    +0.149 HD
BRANCH  13  14
ATOM     14  C   UNL     1     -10.312 -11.214  18.915  0.00  0.00    +0.075 C 
ATOM     15  C   UNL     1     -10.762 -10.612  20.247  0.00  0.00    +0.013 C 
ATOM     16  C   UNL     1     -11.569 -11.311  18.042  0.00  0.00    +0.013 C 
ATOM     17  C   UNL     1     -12.082  -9.922  19.932  0.00  0.00    +0.001 C 
ATOM     18  C   UNL     1     -12.726 -10.860  18.927  0.00  0.00    +0.001 C 
ENDBRANCH  13  14
ENDBRANCH   7   3
BRANCH   6   9
ATOM      9  C   UNL     1      -3.747 -11.337  16.857  0.00  0.00    +0.063 C 
BRANCH   9  12
ATOM      2  O   UNL     1      -1.282 -10.068  14.607  0.00  0.00    -0.359 OA
ATOM      4  N   UNL     1      -1.771 -10.310  15.885  0.00  0.00    -0.083 NA
ATOM     12  C   UNL     1      -2.941 -10.926  15.697  0.00  0.00    +0.084 A 
ATOM     19  C   UNL     1      -3.241 -11.097  14.335  0.00  0.00    +0.071 A 
ATOM     22  C   UNL     1      -2.167 -10.541  13.692  0.00  0.00    +0.138 A 
BRANCH  22  21
ATOM     21  C   UNL     1      -1.796 -10.364  12.245  0.00  0.00    +0.080 C 
BRANCH  21  20
ATOM     20  C   UNL     1      -3.062 -10.296  11.392  0.00  0.00    -0.004 C 
ATOM     23  C   UNL     1      -3.335 -11.649  10.719  0.00  0.00    +0.004 C 
ATOM     24  C   UNL     1      -2.953  -9.179  10.346  0.00  0.00    +0.004 C 
ATOM     25  C   UNL     1      -4.566 -11.592   9.819  0.00  0.00    +0.000 C 
ATOM     26  C   UNL     1      -4.185  -9.126   9.447  0.00  0.00    +0.000 C 
ATOM     27  C   UNL     1      -4.458 -10.474   8.786  0.00  0.00    +0.000 C 
ENDBRANCH  21  20
ENDBRANCH  22  21
ENDBRANCH   9  12
ENDBRANCH   6   9
TORSDOF 6
ENDMDL
MODEL 3
REMARK VINA RESULT:      -6.7     27.719     32.044
REMARK  Name = 56774180
REMARK  8 active torsions:
REMARK  status: ('A' for Active; 'I' for Inactive)
REMARK    1  A    between atoms: N_3  and  C_7
REMARK    2  A    between atoms: C_5  and  C_10
REMARK    3  A    between atoms: C_5  and  C_11
REMARK    4  A    between atoms: C_6  and  C_9
REMARK    5  A    between atoms: C_9  and  C_12
REMARK    6  A    between atoms: C_13  and  C_14
REMARK    7  A    between atoms: C_20  and  C_21
REMARK    8  A    between atoms: C_21  and  C_22
REMARK                            x       y       z     vdW  Elec       q    Type
REMARK                         _______ _______ _______ _____ _____    ______ ____
ROOT
ATOM      5  C   UNL     1     -12.957   8.555  20.021  0.00  0.00    -0.013 C 
ATOM      6  C   UNL     1     -11.442   8.347  19.812  0.00  0.00    +0.004 C 
ATOM      7  C   UNL     1     -12.812   7.734  21.320  0.00  0.00    +0.079 C 
ATOM      8  C   UNL     1     -11.575   7.074  20.675  0.00  0.00    +0.027 C 
ATOM     10  C   UNL     1     -13.400   9.984  20.275  0.00  0.00    +0.013 C 
ATOM     11  C   UNL     1     -13.808   7.940  18.932  0.00  0.00    +0.013 C 
ENDROOT
BRANCH   7   3
ATOM      1  O   UNL     1     -14.980   8.085  23.201  0.00  0.00    -0.276 OA
ATOM      3  N   UNL     1     -13.902   6.791  21.602  0.00  0.00    -0.312 N 
ATOM     13  C   UNL     1     -14.900   7.057  22.529  0.00  0.00    +0.216 C 
ATOM     28  H   UNL     1     -13.928   5.896  21.120  0.00  0.00    +0.149 HD
BRANCH  13  14
ATOM     14  C   UNL     1     -15.902   5.953  22.667  0.00  0.00    +0.075 C 
ATOM     15  C   UNL     1     -15.203   4.593  22.725  0.00  0.00    +0.013 C 
ATOM     16  C   UNL     1     -16.671   6.096  23.987  0.00  0.00    +0.013 C 
ATOM     17  C   UNL     1     -15.153   4.249  24.207  0.00  0.00    +0.001 C 
ATOM     18  C   UNL     1     -16.479   4.775  24.725  0.00  0.00    +0.001 C 
ENDBRANCH  13  14
ENDBRANCH   7   3
BRANCH   6   9
ATOM      9  C   UNL     1     -10.957   8.105  18.376  0.00  0.00    +0.063 C 
BRANCH   9  12
ATOM      2  O   UNL     1      -9.909  10.712  16.172  0.00  0.00    -0.359 OA
ATOM      4  N   UNL     1     -10.316   9.408  16.427  0.00  0.00    -0.083 NA
ATOM     12  C   UNL     1     -10.512   9.359  17.748  0.00  0.00    +0.084 A 
ATOM     19  C   UNL     1     -10.246  10.589  18.372  0.00  0.00    +0.071 A 
ATOM     22  C   UNL     1      -9.871  11.406  17.338  0.00  0.00    +0.138 A 
BRANCH  22  21
ATOM     21  C   UNL     1      -9.448  12.847  17.249  0.00  0.00    +0.080 C 
BRANCH  21  20
ATOM     20  C   UNL     1      -8.348  12.999  16.200  0.00  0.00    -0.004 C 
ATOM     23  C   UNL     1      -7.080  13.595  16.827  0.00  0.00    +0.004 C 
ATOM     24  C   UNL     1      -8.833  13.860  15.027  0.00  0.00    +0.004 C 
ATOM     25  C   UNL     1      -5.983  13.806  15.786  0.00  0.00    +0.000 C 
ATOM     26  C   UNL     1      -7.733  14.071  13.989  0.00  0.00    +0.000 C 
ATOM     27  C   UNL     1      -6.472  14.655  14.616  0.00  0.00    +0.000 C 
ENDBRANCH  21  20
ENDBRANCH  22  21
ENDBRANCH   9  12
ENDBRANCH   6   9
TORSDOF 6
ENDMDL
MODEL 4
REMARK VINA RESULT:      -6.5     32.294     34.914
REMARK  Name = 56774180
REMARK  8 active torsions:
REMARK  status: ('A' for Active; 'I' for Inactive)
REMARK    1  A    between atoms: N_3  and  C_7
REMARK    2  A    between atoms: C_5  and  C_10
REMARK    3  A    between atoms: C_5  and  C_11
REMARK    4  A    between atoms: C_6  and  C_9
REMARK    5  A    between atoms: C_9  and  C_12
REMARK    6  A    between atoms: C_13  and  C_14
REMARK    7  A    between atoms: C_20  and  C_21
REMARK    8  A    between atoms: C_21  and  C_22
REMARK                            x       y       z     vdW  Elec       q    Type
REMARK                         _______ _______ _______ _____ _____    ______ ____
ROOT
ATOM      5  C   UNL     1     -15.550   5.857  32.942  0.00  0.00    -0.013 C 
ATOM      6  C   UNL     1     -14.656   7.022  33.419  0.00  0.00    +0.004 C 
ATOM      7  C   UNL     1     -14.255   5.035  32.772  0.00  0.00    +0.079 C 
ATOM      8  C   UNL     1     -13.514   6.379  32.604  0.00  0.00    +0.027 C 
ATOM     10  C   UNL     1     -16.485   5.272  33.983  0.00  0.00    +0.013 C 
ATOM     11  C   UNL     1     -16.318   6.163  31.675  0.00  0.00    +0.013 C 
ENDROOT
BRANCH   7   3
ATOM      1  O   UNL     1     -13.493   2.248  32.664  0.00  0.00    -0.276 OA
ATOM      3  N   UNL     1     -14.196   4.178  31.581  0.00  0.00    -0.312 N 
ATOM     13  C   UNL     1     -13.816   2.844  31.638  0.00  0.00    +0.216 C 
ATOM     28  H   UNL     1     -14.422   4.569  30.670  0.00  0.00    +0.149 HD
BRANCH  13  14
ATOM     14  C   UNL     1     -13.814   2.162  30.304  0.00  0.00    +0.075 C 
ATOM     15  C   UNL     1     -13.860   0.643  30.473  0.00  0.00    +0.013 C 
ATOM     16  C   UNL     1     -15.069   2.544  29.510  0.00  0.00    +0.013 C 
ATOM     17  C   UNL     1     -15.322   0.276  30.257  0.00  0.00    +0.001 C 
ATOM     18  C   UNL     1     -15.753   1.228  29.156  0.00  0.00    +0.001 C 
ENDBRANCH  13  14
ENDBRANCH   7   3
BRANCH   6   9
ATOM      9  C   UNL     1     -15.049   8.437  32.973  0.00  0.00    +0.063 C 
BRANCH   9  12
ATOM      2  O   UNL     1     -12.013  10.306  32.776  0.00  0.00    -0.359 OA
ATOM      4  N   UNL     1     -12.988   9.617  33.487  0.00  0.00    -0.083 NA
ATOM     12  C   UNL     1     -13.867   9.212  32.566  0.00  0.00    +0.084 A 
ATOM     19  C   UNL     1     -13.504   9.615  31.269  0.00  0.00    +0.071 A 
ATOM     22  C   UNL     1     -12.332  10.299  31.457  0.00  0.00    +0.138 A 
BRANCH  22  21
ATOM     21  C   UNL     1     -11.379  11.005  30.531  0.00  0.00    +0.080 C 
BRANCH  21  20
ATOM     20  C   UNL     1     -11.912  10.951  29.100  0.00  0.00    -0.004 C 
ATOM     23  C   UNL     1     -11.180   9.871  28.291  0.00  0.00    +0.004 C 
ATOM     24  C   UNL     1     -11.786  12.321  28.422  0.00  0.00    +0.004 C 
ATOM     25  C   UNL     1     -11.659   9.833  26.841  0.00  0.00    +0.000 C 
ATOM     26  C   UNL     1     -12.263  12.279  26.973  0.00  0.00    +0.000 C 
ATOM     27  C   UNL     1     -11.541  11.199  26.173  0.00  0.00    +0.000 C 
ENDBRANCH  21  20
ENDBRANCH  22  21
ENDBRANCH   9  12
ENDBRANCH   6   9
TORSDOF 6
ENDMDL
MODEL 5
REMARK VINA RESULT:      -6.5     28.084     31.228
REMARK  Name = 56774180
REMARK  8 active torsions:
REMARK  status: ('A' for Active; 'I' for Inactive)
REMARK    1  A    between atoms: N_3  and  C_7
REMARK    2  A    between atoms: C_5  and  C_10
REMARK    3  A    between atoms: C_5  and  C_11
REMARK    4  A    between atoms: C_6  and  C_9
REMARK    5  A    between atoms: C_9  and  C_12
REMARK    6  A    between atoms: C_13  and  C_14
REMARK    7  A    between atoms: C_20  and  C_21
REMARK    8  A    between atoms: C_21  and  C_22
REMARK                            x       y       z     vdW  Elec       q    Type
REMARK                         _______ _______ _______ _____ _____    ______ ____
ROOT
ATOM      5  C   UNL     1      -4.253  -9.926  10.717  0.00  0.00    -0.013 C 
ATOM      6  C   UNL     1      -3.637 -11.034  11.597  0.00  0.00    +0.004 C 
ATOM      7  C   UNL     1      -4.830 -11.053   9.835  0.00  0.00    +0.079 C 
ATOM      8  C   UNL     1      -3.677 -11.941  10.349  0.00  0.00    +0.027 C 
ATOM     10  C   UNL     1      -5.330  -9.083  11.373  0.00  0.00    +0.013 C 
ATOM     11  C   UNL     1      -3.224  -9.028  10.065  0.00  0.00    +0.013 C 
ENDROOT
BRANCH   7   3
ATOM      1  O   UNL     1      -6.957 -10.012   8.176  0.00  0.00    -0.276 OA
ATOM      3  N   UNL     1      -4.789 -10.814   8.387  0.00  0.00    -0.312 N 
ATOM     13  C   UNL     1      -5.871 -10.308   7.681  0.00  0.00    +0.216 C 
ATOM     28  H   UNL     1      -3.945 -11.042   7.865  0.00  0.00    +0.149 HD
BRANCH  13  14
ATOM     14  C   UNL     1      -5.614 -10.156   6.213  0.00  0.00    +0.075 C 
ATOM     15  C   UNL     1      -5.663 -11.515   5.513  0.00  0.00    +0.013 C 
ATOM     16  C   UNL     1      -6.711  -9.301   5.568  0.00  0.00    +0.013 C 
ATOM     17  C   UNL     1      -7.054 -11.581   4.898  0.00  0.00    +0.001 C 
ATOM     18  C   UNL     1      -7.296 -10.152   4.445  0.00  0.00    +0.001 C 
ENDBRANCH  13  14
ENDBRANCH   7   3
BRANCH   6   9
ATOM      9  C   UNL     1      -2.234 -10.781  12.166  0.00  0.00    +0.063 C 
BRANCH   9  12
ATOM      2  O   UNL     1      -1.696 -10.034  15.616  0.00  0.00    -0.359 OA
ATOM      4  N   UNL     1      -1.393  -9.896  14.267  0.00  0.00    -0.083 NA
ATOM     12  C   UNL     1      -2.266 -10.684  13.633  0.00  0.00    +0.084 A 
ATOM     19  C   UNL     1      -3.136 -11.338  14.522  0.00  0.00    +0.071 A 
ATOM     22  C   UNL     1      -2.736 -10.895  15.755  0.00  0.00    +0.138 A 
BRANCH  22  21
ATOM     21  C   UNL     1      -3.202 -11.165  17.160  0.00  0.00    +0.080 C 
BRANCH  21  20
ATOM     20  C   UNL     1      -4.709 -11.413  17.166  0.00  0.00    -0.004 C 
ATOM     23  C   UNL     1      -5.382 -10.633  18.304  0.00  0.00    +0.004 C 
ATOM     24  C   UNL     1      -5.011 -12.914  17.281  0.00  0.00    +0.004 C 
ATOM     25  C   UNL     1      -6.883 -10.906  18.364  0.00  0.00    +0.000 C 
ATOM     26  C   UNL     1      -6.512 -13.183  17.343  0.00  0.00    +0.000 C 
ATOM     27  C   UNL     1      -7.180 -12.400  18.468  0.00  0.00    +0.000 C 
ENDBRANCH  21  20
ENDBRANCH  22  21
ENDBRANCH   9  12
ENDBRANCH   6   9
TORSDOF 6
ENDMDL
MODEL 6
REMARK VINA RESULT:      -6.4     30.101     33.759
REMARK  Name = 56774180
REMARK  8 active torsions:
REMARK  status: ('A' for Active; 'I' for Inactive)
REMARK    1  A    between atoms: N_3  and  C_7
REMARK    2  A    between atoms: C_5  and  C_10
REMARK    3  A    between atoms: C_5  and  C_11
REMARK    4  A    between atoms: C_6  and  C_9
REMARK    5  A    between atoms: C_9  and  C_12
REMARK    6  A    between atoms: C_13  and  C_14
REMARK    7  A    between atoms: C_20  and  C_21
REMARK    8  A    between atoms: C_21  and  C_22
REMARK                            x       y       z     vdW  Elec       q    Type
REMARK                         _______ _______ _______ _____ _____    ______ ____
ROOT
ATOM      5  C   UNL     1     -13.971   7.809  20.152  0.00  0.00    -0.013 C 
ATOM      6  C   UNL     1     -13.801   6.605  21.103  0.00  0.00    +0.004 C 
ATOM      7  C   UNL     1     -12.554   7.494  19.626  0.00  0.00    +0.079 C 
ATOM      8  C   UNL     1     -12.278   6.828  20.991  0.00  0.00    +0.027 C 
ATOM     10  C   UNL     1     -15.039   7.663  19.085  0.00  0.00    +0.013 C 
ATOM     11  C   UNL     1     -14.139   9.129  20.871  0.00  0.00    +0.013 C 
ENDROOT
BRANCH   7   3
ATOM      1  O   UNL     1     -10.709   7.836  17.426  0.00  0.00    -0.276 OA
ATOM      3  N   UNL     1     -11.702   8.659  19.357  0.00  0.00    -0.312 N 
ATOM     13  C   UNL     1     -10.847   8.724  18.266  0.00  0.00    +0.216 C 
ATOM     28  H   UNL     1     -11.715   9.450  19.998  0.00  0.00    +0.149 HD
BRANCH  13  14
ATOM     14  C   UNL     1     -10.061   9.998  18.192  0.00  0.00    +0.075 C 
ATOM     15  C   UNL     1      -9.903  10.452  16.740  0.00  0.00    +0.013 C 
ATOM     16  C   UNL     1     -10.809  11.125  18.914  0.00  0.00    +0.013 C 
ATOM     17  C   UNL     1     -10.971  11.520  16.552  0.00  0.00    +0.001 C 
ATOM     18  C   UNL     1     -10.973  12.241  17.887  0.00  0.00    +0.001 C 
ENDBRANCH  13  14
ENDBRANCH   7   3
BRANCH   6   9
ATOM      9  C   UNL     1     -14.371   6.744  22.521  0.00  0.00    +0.063 C 
BRANCH   9  12
ATOM      2  O   UNL     1     -15.806   3.489  22.830  0.00  0.00    -0.359 OA
ATOM      4  N   UNL     1     -15.008   4.424  22.181  0.00  0.00    -0.083 NA
ATOM     12  C   UNL     1     -15.103   5.532  22.921  0.00  0.00    +0.084 A 
ATOM     19  C   UNL     1     -15.941   5.359  24.036  0.00  0.00    +0.071 A 
ATOM     22  C   UNL     1     -16.356   4.058  23.932  0.00  0.00    +0.138 A 
BRANCH  22  21
ATOM     21  C   UNL     1     -17.257   3.183  24.761  0.00  0.00    +0.080 C 
BRANCH  21  20
ATOM     20  C   UNL     1     -16.515   2.713  26.011  0.00  0.00    -0.004 C 
ATOM     23  C   UNL     1     -17.125   1.409  26.545  0.00  0.00    +0.004 C 
ATOM     24  C   UNL     1     -16.525   3.803  27.090  0.00  0.00    +0.004 C 
ATOM     25  C   UNL     1     -16.433   0.947  27.825  0.00  0.00    +0.000 C 
ATOM     26  C   UNL     1     -15.834   3.337  28.369  0.00  0.00    +0.000 C 
ATOM     27  C   UNL     1     -16.437   2.037  28.893  0.00  0.00    +0.000 C 
ENDBRANCH  21  20
ENDBRANCH  22  21
ENDBRANCH   9  12
ENDBRANCH   6   9
TORSDOF 6
ENDMDL
MODEL 7
REMARK VINA RESULT:      -6.4     19.589     22.890
REMARK  Name = 56774180
REMARK  8 active torsions:
REMARK  status: ('A' for Active; 'I' for Inactive)
REMARK    1  A    between atoms: N_3  and  C_7
REMARK    2  A    between atoms: C_5  and  C_10
REMARK    3  A    between atoms: C_5  and  C_11
REMARK    4  A    between atoms: C_6  and  C_9
REMARK    5  A    between atoms: C_9  and  C_12
REMARK    6  A    between atoms: C_13  and  C_14
REMARK    7  A    between atoms: C_20  and  C_21
REMARK    8  A    between atoms: C_21  and  C_22
REMARK                            x       y       z     vdW  Elec       q    Type
REMARK                         _______ _______ _______ _____ _____    ______ ____
ROOT
ATOM      5  C   UNL     1      12.245   4.432   1.728  0.00  0.00    -0.013 C 
ATOM      6  C   UNL     1      11.204   4.479   0.590  0.00  0.00    +0.004 C 
ATOM      7  C   UNL     1      11.057   4.426   2.712  0.00  0.00    +0.079 C 
ATOM      8  C   UNL     1      10.236   5.122   1.606  0.00  0.00    +0.027 C 
ATOM     10  C   UNL     1      13.081   3.169   1.808  0.00  0.00    +0.013 C 
ATOM     11  C   UNL     1      13.145   5.647   1.775  0.00  0.00    +0.013 C 
ENDROOT
BRANCH   7   3
ATOM      1  O   UNL     1       9.471   4.319   5.128  0.00  0.00    -0.276 OA
ATOM      3  N   UNL     1      11.227   5.242   3.921  0.00  0.00    -0.312 N 
ATOM     13  C   UNL     1      10.407   5.111   5.034  0.00  0.00    +0.216 C 
ATOM     28  H   UNL     1      11.958   5.949   3.951  0.00  0.00    +0.149 HD
BRANCH  13  14
ATOM     14  C   UNL     1      10.750   6.052   6.148  0.00  0.00    +0.075 C 
ATOM     15  C   UNL     1      10.100   7.418   5.921  0.00  0.00    +0.013 C 
ATOM     16  C   UNL     1      10.192   5.528   7.476  0.00  0.00    +0.013 C 
ATOM     17  C   UNL     1       8.856   7.403   6.797  0.00  0.00    +0.001 C 
ATOM     18  C   UNL     1       9.316   6.646   8.030  0.00  0.00    +0.001 C 
ENDBRANCH  13  14
ENDBRANCH   7   3
BRANCH   6   9
ATOM      9  C   UNL     1      11.533   5.351  -0.628  0.00  0.00    +0.063 C 
BRANCH   9  12
ATOM      2  O   UNL     1       9.214   4.058  -3.017  0.00  0.00    -0.359 OA
ATOM      4  N   UNL     1      10.092   3.908  -1.950  0.00  0.00    -0.083 NA
ATOM     12  C   UNL     1      10.562   5.135  -1.713  0.00  0.00    +0.084 A 
ATOM     19  C   UNL     1      10.023   6.091  -2.591  0.00  0.00    +0.071 A 
ATOM     22  C   UNL     1       9.182   5.363  -3.390  0.00  0.00    +0.138 A 
BRANCH  22  21
ATOM     21  C   UNL     1       8.278   5.711  -4.540  0.00  0.00    +0.080 C 
BRANCH  21  20
ATOM     20  C   UNL     1       6.819   5.649  -4.088  0.00  0.00    -0.004 C 
ATOM     23  C   UNL     1       5.877   5.638  -5.300  0.00  0.00    +0.004 C 
ATOM     24  C   UNL     1       6.491   6.820  -3.152  0.00  0.00    +0.004 C 
ATOM     25  C   UNL     1       4.411   5.629  -4.873  0.00  0.00    +0.000 C 
ATOM     26  C   UNL     1       5.025   6.809  -2.729  0.00  0.00    +0.000 C 
ATOM     27  C   UNL     1       4.091   6.789  -3.935  0.00  0.00    +0.000 C 
ENDBRANCH  21  20
ENDBRANCH  22  21
ENDBRANCH   9  12
ENDBRANCH   6   9
TORSDOF 6
ENDMDL
MODEL 8
REMARK VINA RESULT:      -6.4      3.713     10.933
REMARK  Name = 56774180
REMARK  8 active torsions:
REMARK  status: ('A' for Active; 'I' for Inactive)
REMARK    1  A    between atoms: N_3  and  C_7
REMARK    2  A    between atoms: C_5  and  C_10
REMARK    3  A    between atoms: C_5  and  C_11
REMARK    4  A    between atoms: C_6  and  C_9
REMARK    5  A    between atoms: C_9  and  C_12
REMARK    6  A    between atoms: C_13  and  C_14
REMARK    7  A    between atoms: C_20  and  C_21
REMARK    8  A    between atoms: C_21  and  C_22
REMARK                            x       y       z     vdW  Elec       q    Type
REMARK                         _______ _______ _______ _____ _____    ______ ____
ROOT
ATOM      5  C   UNL     1      12.226   8.683  20.518  0.00  0.00    -0.013 C 
ATOM      6  C   UNL     1      13.493   8.041  19.915  0.00  0.00    +0.004 C 
ATOM      7  C   UNL     1      12.880  10.052  20.237  0.00  0.00    +0.079 C 
ATOM      8  C   UNL     1      14.242   9.331  20.309  0.00  0.00    +0.027 C 
ATOM     10  C   UNL     1      10.943   8.473  19.738  0.00  0.00    +0.013 C 
ATOM     11  C   UNL     1      12.005   8.334  21.973  0.00  0.00    +0.013 C 
ENDROOT
BRANCH   7   3
ATOM      1  O   UNL     1      12.705  12.915  19.868  0.00  0.00    -0.276 OA
ATOM      3  N   UNL     1      12.697  11.071  21.279  0.00  0.00    -0.312 N 
ATOM     13  C   UNL     1      12.625  12.427  20.994  0.00  0.00    +0.216 C 
ATOM     28  H   UNL     1      12.639  10.786  22.254  0.00  0.00    +0.149 HD
BRANCH  13  14
ATOM     14  C   UNL     1      12.450  13.288  22.208  0.00  0.00    +0.075 C 
ATOM     15  C   UNL     1      11.460  14.421  21.930  0.00  0.00    +0.013 C 
ATOM     16  C   UNL     1      11.852  12.469  23.358  0.00  0.00    +0.013 C 
ATOM     17  C   UNL     1      10.145  13.937  22.525  0.00  0.00    +0.001 C 
ATOM     18  C   UNL     1      10.586  13.207  23.781  0.00  0.00    +0.001 C 
ENDBRANCH  13  14
ENDBRANCH   7   3
BRANCH   6   9
ATOM      9  C   UNL     1      14.018   6.762  20.581  0.00  0.00    +0.063 C 
BRANCH   9  12
ATOM      2  O   UNL     1      17.216   6.130  19.121  0.00  0.00    -0.359 OA
ATOM      4  N   UNL     1      15.832   6.246  19.048  0.00  0.00    -0.083 NA
ATOM     12  C   UNL     1      15.446   6.558  20.288  0.00  0.00    +0.084 A 
ATOM     19  C   UNL     1      16.530   6.651  21.178  0.00  0.00    +0.071 A 
ATOM     22  C   UNL     1      17.619   6.373  20.394  0.00  0.00    +0.138 A 
BRANCH  22  21
ATOM     21  C   UNL     1      19.097   6.290  20.658  0.00  0.00    +0.080 C 
BRANCH  21  20
ATOM     20  C   UNL     1      19.423   6.956  21.994  0.00  0.00    -0.004 C 
ATOM     23  C   UNL     1      19.709   8.452  21.798  0.00  0.00    +0.004 C 
ATOM     24  C   UNL     1      20.608   6.259  22.674  0.00  0.00    +0.004 C 
ATOM     25  C   UNL     1      20.088   9.129  23.113  0.00  0.00    +0.000 C 
ATOM     26  C   UNL     1      20.986   6.940  23.987  0.00  0.00    +0.000 C 
ATOM     27  C   UNL     1      21.261   8.427  23.791  0.00  0.00    +0.000 C 
ENDBRANCH  21  20
ENDBRANCH  22  21
ENDBRANCH   9  12
ENDBRANCH   6   9
TORSDOF 6
ENDMDL
MODEL 9
REMARK VINA RESULT:      -6.3      8.134     10.990
REMARK  Name = 56774180
REMARK  8 active torsions:
REMARK  status: ('A' for Active; 'I' for Inactive)
REMARK    1  A    between atoms: N_3  and  C_7
REMARK    2  A    between atoms: C_5  and  C_10
REMARK    3  A    between atoms: C_5  and  C_11
REMARK    4  A    between atoms: C_6  and  C_9
REMARK    5  A    between atoms: C_9  and  C_12
REMARK    6  A    between atoms: C_13  and  C_14
REMARK    7  A    between atoms: C_20  and  C_21
REMARK    8  A    between atoms: C_21  and  C_22
REMARK                            x       y       z     vdW  Elec       q    Type
REMARK                         _______ _______ _______ _____ _____    ______ ____
ROOT
ATOM      5  C   UNL     1      12.904   7.873  19.927  0.00  0.00    -0.013 C 
ATOM      6  C   UNL     1      12.637   7.612  18.430  0.00  0.00    +0.004 C 
ATOM      7  C   UNL     1      11.575   8.658  19.948  0.00  0.00    +0.079 C 
ATOM      8  C   UNL     1      11.779   8.895  18.437  0.00  0.00    +0.027 C 
ATOM     10  C   UNL     1      12.880   6.652  20.826  0.00  0.00    +0.013 C 
ATOM     11  C   UNL     1      14.159   8.677  20.187  0.00  0.00    +0.013 C 
ENDROOT
BRANCH   7   3
ATOM      1  O   UNL     1      10.680   8.975  22.679  0.00  0.00    -0.276 OA
ATOM      3  N   UNL     1      11.577   9.892  20.744  0.00  0.00    -0.312 N 
ATOM     13  C   UNL     1      11.123   9.938  22.055  0.00  0.00    +0.216 C 
ATOM     28  H   UNL     1      11.903  10.759  20.323  0.00  0.00    +0.149 HD
BRANCH  13  14
ATOM     14  C   UNL     1      11.202  11.301  22.671  0.00  0.00    +0.075 C 
ATOM     15  C   UNL     1      12.445  11.423  23.555  0.00  0.00    +0.013 C 
ATOM     16  C   UNL     1      11.345  12.369  21.580  0.00  0.00    +0.013 C 
ATOM     17  C   UNL     1      13.464  12.149  22.688  0.00  0.00    +0.001 C 
ATOM     18  C   UNL     1      12.613  13.145  21.922  0.00  0.00    +0.001 C 
ENDBRANCH  13  14
ENDBRANCH   7   3
BRANCH   6   9
ATOM      9  C   UNL     1      13.845   7.649  17.484  0.00  0.00    +0.063 C 
BRANCH   9  12
ATOM      2  O   UNL     1      13.005   9.907  14.848  0.00  0.00    -0.359 OA
ATOM      4  N   UNL     1      12.841   8.715  15.544  0.00  0.00    -0.083 NA
ATOM     12  C   UNL     1      13.739   8.766  16.532  0.00  0.00    +0.084 A 
ATOM     19  C   UNL     1      14.491   9.953  16.509  0.00  0.00    +0.071 A 
ATOM     22  C   UNL     1      13.990  10.635  15.432  0.00  0.00    +0.138 A 
BRANCH  22  21
ATOM     21  C   UNL     1      14.305  11.966  14.804  0.00  0.00    +0.080 C 
BRANCH  21  20
ATOM     20  C   UNL     1      15.484  11.819  13.844  0.00  0.00    -0.004 C 
ATOM     23  C   UNL     1      16.734  12.507  14.413  0.00  0.00    +0.004 C 
ATOM     24  C   UNL     1      15.132  12.383  12.462  0.00  0.00    +0.004 C 
ATOM     25  C   UNL     1      17.913  12.419  13.447  0.00  0.00    +0.000 C 
ATOM     26  C   UNL     1      16.314  12.296  11.500  0.00  0.00    +0.000 C 
ATOM     27  C   UNL     1      17.556  12.972  12.070  0.00  0.00    +0.000 C 
ENDBRANCH  21  20
ENDBRANCH  22  21
ENDBRANCH   9  12
ENDBRANCH   6   9
TORSDOF 6
ENDMDL
MODEL 10
REMARK VINA RESULT:      -6.3     31.325     34.914
REMARK  Name = 56774180
REMARK  8 active torsions:
REMARK  status: ('A' for Active; 'I' for Inactive)
REMARK    1  A    between atoms: N_3  and  C_7
REMARK    2  A    between atoms: C_5  and  C_10
REMARK    3  A    between atoms: C_5  and  C_11
REMARK    4  A    between atoms: C_6  and  C_9
REMARK    5  A    between atoms: C_9  and  C_12
REMARK    6  A    between atoms: C_13  and  C_14
REMARK    7  A    between atoms: C_20  and  C_21
REMARK    8  A    between atoms: C_21  and  C_22
REMARK                            x       y       z     vdW  Elec       q    Type
REMARK                         _______ _______ _______ _____ _____    ______ ____
ROOT
ATOM      5  C   UNL     1     -15.834   5.736  21.944  0.00  0.00    -0.013 C 
ATOM      6  C   UNL     1     -15.580   4.683  23.043  0.00  0.00    +0.004 C 
ATOM      7  C   UNL     1     -14.313   5.717  21.683  0.00  0.00    +0.079 C 
ATOM      8  C   UNL     1     -14.145   5.242  23.142  0.00  0.00    +0.027 C 
ATOM     10  C   UNL     1     -16.642   5.264  20.750  0.00  0.00    +0.013 C 
ATOM     11  C   UNL     1     -16.406   7.034  22.470  0.00  0.00    +0.013 C 
ENDROOT
BRANCH   7   3
ATOM      1  O   UNL     1     -11.623   6.218  20.749  0.00  0.00    -0.276 OA
ATOM      3  N   UNL     1     -13.697   7.022  21.414  0.00  0.00    -0.312 N 
ATOM     13  C   UNL     1     -12.390   7.155  20.965  0.00  0.00    +0.216 C 
ATOM     28  H   UNL     1     -14.231   7.873  21.577  0.00  0.00    +0.149 HD
BRANCH  13  14
ATOM     14  C   UNL     1     -11.963   8.577  20.769  0.00  0.00    +0.075 C 
ATOM     15  C   UNL     1     -11.517   8.814  19.325  0.00  0.00    +0.013 C 
ATOM     16  C   UNL     1     -13.143   9.525  21.014  0.00  0.00    +0.013 C 
ATOM     17  C   UNL     1     -12.720   9.459  18.652  0.00  0.00    +0.001 C 
ATOM     18  C   UNL     1     -13.282  10.354  19.742  0.00  0.00    +0.001 C 
ENDBRANCH  13  14
ENDBRANCH   7   3
BRANCH   6   9
ATOM      9  C   UNL     1     -16.407   4.798  24.331  0.00  0.00    +0.063 C 
BRANCH   9  12
ATOM      2  O   UNL     1     -16.307   1.390  25.393  0.00  0.00    -0.359 OA
ATOM      4  N   UNL     1     -16.243   2.375  24.415  0.00  0.00    -0.083 NA
ATOM     12  C   UNL     1     -16.419   3.525  25.070  0.00  0.00    +0.084 A 
ATOM     19  C   UNL     1     -16.599   3.331  26.450  0.00  0.00    +0.071 A 
ATOM     22  C   UNL     1     -16.520   1.972  26.601  0.00  0.00    +0.138 A 
BRANCH  22  21
ATOM     21  C   UNL     1     -16.619   1.048  27.784  0.00  0.00    +0.080 C 
BRANCH  21  20
ATOM     20  C   UNL     1     -15.688   1.530  28.896  0.00  0.00    -0.004 C 
ATOM     23  C   UNL     1     -14.949   0.346  29.535  0.00  0.00    +0.004 C 
ATOM     24  C   UNL     1     -16.471   2.320  29.953  0.00  0.00    +0.004 C 
ATOM     25  C   UNL     1     -14.052   0.798  30.685  0.00  0.00    +0.000 C 
ATOM     26  C   UNL     1     -15.571   2.768  31.102  0.00  0.00    +0.000 C 
ATOM     27  C   UNL     1     -14.831   1.591  31.730  0.00  0.00    +0.000 C 
ENDBRANCH  21  20
ENDBRANCH  22  21
ENDBRANCH   9  12
ENDBRANCH   6   9
TORSDOF 6
ENDMDL
