MODEL 1
REMARK VINA RESULT:      -5.7      0.000      0.000
REMARK  Name = 38029925
REMARK  11 active torsions:
REMARK  status: ('A' for Active; 'I' for Inactive)
REMARK    1  A    between atoms: O_2  and  C_25
REMARK    2  A    between atoms: N_4  and  C_24
REMARK    3  A    between atoms: C_6  and  C_10
REMARK    4  A    between atoms: C_8  and  C_13
REMARK    5  A    between atoms: C_9  and  C_14
REMARK    6  A    between atoms: C_10  and  C_15
REMARK    7  A    between atoms: C_10  and  C_16
REMARK    8  A    between atoms: C_11  and  C_18
REMARK    9  A    between atoms: C_13  and  C_17
REMARK   10  A    between atoms: C_14  and  C_23
REMARK   11  A    between atoms: C_24  and  C_25
REMARK                            x       y       z     vdW  Elec       q    Type
REMARK                         _______ _______ _______ _____ _____    ______ ____
ROOT
ATOM      6  C   UNL     1      21.489   5.725  21.911  0.00  0.00    -0.000 C 
ATOM      7  C   UNL     1      20.811   6.003  20.562  0.00  0.00    +0.012 C 
ATOM      8  C   UNL     1      19.746   7.112  20.662  0.00  0.00    +0.023 C 
ATOM      9  C   UNL     1      22.166   7.010  22.452  0.00  0.00    +0.029 C 
ATOM     11  C   UNL     1      20.257   8.317  21.423  0.00  0.00    -0.073 C 
ATOM     12  C   UNL     1      21.348   8.256  22.208  0.00  0.00    -0.023 C 
ATOM     18  C   UNL     1      19.513   9.609  21.227  0.00  0.00    +0.039 C 
ENDROOT
BRANCH   6  10
ATOM     10  C   UNL     1      22.490   4.575  21.763  0.00  0.00    -0.013 C 
ATOM     15  C   UNL     1      21.785   3.320  21.254  0.00  0.00    +0.007 C 
ATOM     16  C   UNL     1      23.625   4.975  20.827  0.00  0.00    +0.007 C 
ENDBRANCH   6  10
BRANCH   8  13
ATOM     13  C   UNL     1      18.451   6.579  21.285  0.00  0.00    +0.103 C 
BRANCH  13  17
ATOM      1  O   UNL     1      17.534   5.765  19.257  0.00  0.00    -0.276 OA
ATOM      3  N   UNL     1      16.233   7.274  20.450  0.00  0.00    -0.299 N 
ATOM      4  N   UNL     1      13.618   8.189  21.179  0.00  0.00    -0.297 NA
ATOM     17  C   UNL     1      17.371   6.498  20.234  0.00  0.00    +0.216 C 
ATOM     19  C   UNL     1      15.139   7.246  19.480  0.00  0.00    +0.123 C 
ATOM     20  C   UNL     1      16.065   8.251  21.529  0.00  0.00    +0.123 C 
ATOM     21  C   UNL     1      13.783   7.127  20.175  0.00  0.00    +0.103 C 
ATOM     22  C   UNL     1      14.689   8.119  22.184  0.00  0.00    +0.103 C 
BRANCH   4  24
ATOM     24  C   UNL     1      12.307   8.091  21.818  0.00  0.00    +0.112 C 
BRANCH  24  25
ATOM     25  C   UNL     1      11.535   6.880  21.325  0.00  0.00    +0.171 C 
BRANCH  25   2
ATOM      2  O   UNL     1      10.178   7.241  21.106  0.00  0.00    -0.394 OA
ATOM     26  H   UNL     1       9.668   6.912  21.866  0.00  0.00    +0.209 HD
ENDBRANCH  25   2
ENDBRANCH  24  25
ENDBRANCH   4  24
ENDBRANCH  13  17
ENDBRANCH   8  13
BRANCH   9  14
ATOM     14  C   UNL     1      22.473   6.886  23.948  0.00  0.00    +0.126 C 
BRANCH  14  23
ATOM      5  N   UNL     1      20.255   6.806  25.345  0.00  0.00    -0.197 NA
ATOM     23  C   UNL     1      21.238   6.835  24.729  0.00  0.00    +0.063 C 
ENDBRANCH  14  23
ENDBRANCH   9  14
TORSDOF 8
ENDMDL
MODEL 2
REMARK VINA RESULT:      -5.5     27.675     30.761
REMARK  Name = 38029925
REMARK  11 active torsions:
REMARK  status: ('A' for Active; 'I' for Inactive)
REMARK    1  A    between atoms: O_2  and  C_25
REMARK    2  A    between atoms: N_4  and  C_24
REMARK    3  A    between atoms: C_6  and  C_10
REMARK    4  A    between atoms: C_8  and  C_13
REMARK    5  A    between atoms: C_9  and  C_14
REMARK    6  A    between atoms: C_10  and  C_15
REMARK    7  A    between atoms: C_10  and  C_16
REMARK    8  A    between atoms: C_11  and  C_18
REMARK    9  A    between atoms: C_13  and  C_17
REMARK   10  A    between atoms: C_14  and  C_23
REMARK   11  A    between atoms: C_24  and  C_25
REMARK                            x       y       z     vdW  Elec       q    Type
REMARK                         _______ _______ _______ _____ _____    ______ ____
ROOT
ATOM      6  C   UNL     1      -4.762 -10.970  13.081  0.00  0.00    -0.000 C 
ATOM      7  C   UNL     1      -4.949 -10.277  14.438  0.00  0.00    +0.012 C 
ATOM      8  C   UNL     1      -3.840 -10.649  15.441  0.00  0.00    +0.023 C 
ATOM      9  C   UNL     1      -3.393 -10.590  12.462  0.00  0.00    +0.029 C 
ATOM     11  C   UNL     1      -2.463 -10.556  14.818  0.00  0.00    -0.073 C 
ATOM     12  C   UNL     1      -2.283 -10.517  13.485  0.00  0.00    -0.023 C 
ATOM     18  C   UNL     1      -1.297 -10.462  15.762  0.00  0.00    +0.039 C 
ENDROOT
BRANCH   6  10
ATOM     10  C   UNL     1      -5.925 -10.611  12.149  0.00  0.00    -0.013 C 
ATOM     15  C   UNL     1      -7.248 -11.079  12.748  0.00  0.00    +0.007 C 
ATOM     16  C   UNL     1      -5.951  -9.110  11.885  0.00  0.00    +0.007 C 
ENDBRANCH   6  10
BRANCH   8  13
ATOM     13  C   UNL     1      -4.080 -12.041  16.036  0.00  0.00    +0.103 C 
BRANCH  13  17
ATOM      1  O   UNL     1      -3.514 -11.706  18.313  0.00  0.00    -0.276 OA
ATOM      3  N   UNL     1      -5.761 -12.060  17.846  0.00  0.00    -0.299 N 
ATOM      4  N   UNL     1      -8.497 -11.560  18.529  0.00  0.00    -0.297 NA
ATOM     17  C   UNL     1      -4.417 -11.920  17.502  0.00  0.00    +0.216 C 
ATOM     19  C   UNL     1      -6.169 -11.952  19.246  0.00  0.00    +0.123 C 
ATOM     20  C   UNL     1      -6.835 -12.445  16.926  0.00  0.00    +0.123 C 
ATOM     21  C   UNL     1      -7.413 -11.076  19.395  0.00  0.00    +0.103 C 
ATOM     22  C   UNL     1      -8.071 -11.564  17.122  0.00  0.00    +0.103 C 
BRANCH   4  24
ATOM     24  C   UNL     1      -9.695 -10.740  18.700  0.00  0.00    +0.112 C 
BRANCH  24  25
ATOM     25  C   UNL     1     -10.425 -11.080  19.987  0.00  0.00    +0.171 C 
BRANCH  25   2
ATOM      2  O   UNL     1     -10.332  -9.983  20.888  0.00  0.00    -0.394 OA
ATOM     26  H   UNL     1     -10.522  -9.178  20.378  0.00  0.00    +0.209 HD
ENDBRANCH  25   2
ENDBRANCH  24  25
ENDBRANCH   4  24
ENDBRANCH  13  17
ENDBRANCH   8  13
BRANCH   9  14
ATOM     14  C   UNL     1      -2.998 -11.566  11.349  0.00  0.00    +0.126 C 
BRANCH  14  23
ATOM      5  N   UNL     1      -2.812 -14.015  12.269  0.00  0.00    -0.197 NA
ATOM     23  C   UNL     1      -2.899 -12.930  11.866  0.00  0.00    +0.063 C 
ENDBRANCH  14  23
ENDBRANCH   9  14
TORSDOF 8
ENDMDL
MODEL 3
REMARK VINA RESULT:      -5.5     28.205     30.591
REMARK  Name = 38029925
REMARK  11 active torsions:
REMARK  status: ('A' for Active; 'I' for Inactive)
REMARK    1  A    between atoms: O_2  and  C_25
REMARK    2  A    between atoms: N_4  and  C_24
REMARK    3  A    between atoms: C_6  and  C_10
REMARK    4  A    between atoms: C_8  and  C_13
REMARK    5  A    between atoms: C_9  and  C_14
REMARK    6  A    between atoms: C_10  and  C_15
REMARK    7  A    between atoms: C_10  and  C_16
REMARK    8  A    between atoms: C_11  and  C_18
REMARK    9  A    between atoms: C_13  and  C_17
REMARK   10  A    between atoms: C_14  and  C_23
REMARK   11  A    between atoms: C_24  and  C_25
REMARK                            x       y       z     vdW  Elec       q    Type
REMARK                         _______ _______ _______ _____ _____    ______ ____
ROOT
ATOM      6  C   UNL     1      -3.369 -10.763  11.432  0.00  0.00    -0.000 C 
ATOM      7  C   UNL     1      -2.380 -10.625  12.598  0.00  0.00    +0.012 C 
ATOM      8  C   UNL     1      -2.671 -11.629  13.731  0.00  0.00    +0.023 C 
ATOM      9  C   UNL     1      -3.316 -12.196  10.843  0.00  0.00    +0.029 C 
ATOM     11  C   UNL     1      -2.898 -13.028  13.198  0.00  0.00    -0.073 C 
ATOM     12  C   UNL     1      -3.172 -13.264  11.902  0.00  0.00    -0.023 C 
ATOM     18  C   UNL     1      -2.757 -14.158  14.180  0.00  0.00    +0.039 C 
ENDROOT
BRANCH   6  10
ATOM     10  C   UNL     1      -3.070  -9.701  10.368  0.00  0.00    -0.013 C 
ATOM     15  C   UNL     1      -4.241  -8.731  10.242  0.00  0.00    +0.007 C 
ATOM     16  C   UNL     1      -1.783  -8.956  10.709  0.00  0.00    +0.007 C 
ENDBRANCH   6  10
BRANCH   8  13
ATOM     13  C   UNL     1      -3.857 -11.168  14.586  0.00  0.00    +0.103 C 
BRANCH  13  17
ATOM      1  O   UNL     1      -2.435 -10.479  16.352  0.00  0.00    -0.276 OA
ATOM      3  N   UNL     1      -4.271 -11.771  16.945  0.00  0.00    -0.299 N 
ATOM      4  N   UNL     1      -6.262 -12.420  18.899  0.00  0.00    -0.297 NA
ATOM     17  C   UNL     1      -3.449 -11.104  16.037  0.00  0.00    +0.216 C 
ATOM     19  C   UNL     1      -3.946 -11.752  18.370  0.00  0.00    +0.123 C 
ATOM     20  C   UNL     1      -5.404 -12.630  16.589  0.00  0.00    +0.123 C 
ATOM     21  C   UNL     1      -5.186 -11.470  19.218  0.00  0.00    +0.103 C 
ATOM     22  C   UNL     1      -6.617 -12.337  17.475  0.00  0.00    +0.103 C 
BRANCH   4  24
ATOM     24  C   UNL     1      -7.434 -12.167  19.736  0.00  0.00    +0.112 C 
BRANCH  24  25
ATOM     25  C   UNL     1      -8.364 -11.149  19.101  0.00  0.00    +0.171 C 
BRANCH  25   2
ATOM      2  O   UNL     1      -9.119 -10.500  20.116  0.00  0.00    -0.394 OA
ATOM     26  H   UNL     1     -10.028 -10.410  19.783  0.00  0.00    +0.209 HD
ENDBRANCH  25   2
ENDBRANCH  24  25
ENDBRANCH   4  24
ENDBRANCH  13  17
ENDBRANCH   8  13
BRANCH   9  14
ATOM     14  C   UNL     1      -4.553 -12.489   9.988  0.00  0.00    +0.126 C 
BRANCH  14  23
ATOM      5  N   UNL     1      -6.755 -12.084  11.355  0.00  0.00    -0.197 NA
ATOM     23  C   UNL     1      -5.778 -12.268  10.755  0.00  0.00    +0.063 C 
ENDBRANCH  14  23
ENDBRANCH   9  14
TORSDOF 8
ENDMDL
MODEL 4
REMARK VINA RESULT:      -5.4      9.850     12.468
REMARK  Name = 38029925
REMARK  11 active torsions:
REMARK  status: ('A' for Active; 'I' for Inactive)
REMARK    1  A    between atoms: O_2  and  C_25
REMARK    2  A    between atoms: N_4  and  C_24
REMARK    3  A    between atoms: C_6  and  C_10
REMARK    4  A    between atoms: C_8  and  C_13
REMARK    5  A    between atoms: C_9  and  C_14
REMARK    6  A    between atoms: C_10  and  C_15
REMARK    7  A    between atoms: C_10  and  C_16
REMARK    8  A    between atoms: C_11  and  C_18
REMARK    9  A    between atoms: C_13  and  C_17
REMARK   10  A    between atoms: C_14  and  C_23
REMARK   11  A    between atoms: C_24  and  C_25
REMARK                            x       y       z     vdW  Elec       q    Type
REMARK                         _______ _______ _______ _____ _____    ______ ____
ROOT
ATOM      6  C   UNL     1      17.910  -3.137  23.727  0.00  0.00    -0.000 C 
ATOM      7  C   UNL     1      18.852  -2.047  24.258  0.00  0.00    +0.012 C 
ATOM      8  C   UNL     1      19.825  -2.585  25.324  0.00  0.00    +0.023 C 
ATOM      9  C   UNL     1      18.725  -4.300  23.105  0.00  0.00    +0.029 C 
ATOM     11  C   UNL     1      20.472  -3.884  24.892  0.00  0.00    -0.073 C 
ATOM     12  C   UNL     1      19.974  -4.631  23.889  0.00  0.00    -0.023 C 
ATOM     18  C   UNL     1      21.731  -4.285  25.607  0.00  0.00    +0.039 C 
ENDROOT
BRANCH   6  10
ATOM     10  C   UNL     1      16.928  -2.530  22.719  0.00  0.00    -0.013 C 
ATOM     15  C   UNL     1      15.493  -2.874  23.104  0.00  0.00    +0.007 C 
ATOM     16  C   UNL     1      17.120  -1.020  22.634  0.00  0.00    +0.007 C 
ENDBRANCH   6  10
BRANCH   8  13
ATOM     13  C   UNL     1      19.126  -2.744  26.679  0.00  0.00    +0.103 C 
BRANCH  13  17
ATOM      1  O   UNL     1      20.883  -1.337  27.420  0.00  0.00    -0.276 OA
ATOM      3  N   UNL     1      19.318  -1.967  29.016  0.00  0.00    -0.299 N 
ATOM      4  N   UNL     1      17.887  -1.319  31.411  0.00  0.00    -0.297 NA
ATOM     17  C   UNL     1      19.862  -1.951  27.732  0.00  0.00    +0.216 C 
ATOM     19  C   UNL     1      19.969  -1.220  30.090  0.00  0.00    +0.123 C 
ATOM     20  C   UNL     1      18.185  -2.791  29.446  0.00  0.00    +0.123 C 
ATOM     21  C   UNL     1      18.951  -0.433  30.916  0.00  0.00    +0.103 C 
ATOM     22  C   UNL     1      17.201  -1.977  30.290  0.00  0.00    +0.103 C 
BRANCH   4  24
ATOM     24  C   UNL     1      16.934  -0.568  32.227  0.00  0.00    +0.112 C 
BRANCH  24  25
ATOM     25  C   UNL     1      17.391   0.863  32.443  0.00  0.00    +0.171 C 
BRANCH  25   2
ATOM      2  O   UNL     1      16.360   1.754  32.036  0.00  0.00    -0.394 OA
ATOM     26  H   UNL     1      16.793   2.539  31.660  0.00  0.00    +0.209 HD
ENDBRANCH  25   2
ENDBRANCH  24  25
ENDBRANCH   4  24
ENDBRANCH  13  17
ENDBRANCH   8  13
BRANCH   9  14
ATOM     14  C   UNL     1      17.866  -5.560  22.958  0.00  0.00    +0.126 C 
BRANCH  14  23
ATOM      5  N   UNL     1      17.047  -6.405  25.302  0.00  0.00    -0.197 NA
ATOM     23  C   UNL     1      17.403  -6.029  24.264  0.00  0.00    +0.063 C 
ENDBRANCH  14  23
ENDBRANCH   9  14
TORSDOF 8
ENDMDL
MODEL 5
REMARK VINA RESULT:      -5.3     27.501     30.437
REMARK  Name = 38029925
REMARK  11 active torsions:
REMARK  status: ('A' for Active; 'I' for Inactive)
REMARK    1  A    between atoms: O_2  and  C_25
REMARK    2  A    between atoms: N_4  and  C_24
REMARK    3  A    between atoms: C_6  and  C_10
REMARK    4  A    between atoms: C_8  and  C_13
REMARK    5  A    between atoms: C_9  and  C_14
REMARK    6  A    between atoms: C_10  and  C_15
REMARK    7  A    between atoms: C_10  and  C_16
REMARK    8  A    between atoms: C_11  and  C_18
REMARK    9  A    between atoms: C_13  and  C_17
REMARK   10  A    between atoms: C_14  and  C_23
REMARK   11  A    between atoms: C_24  and  C_25
REMARK                            x       y       z     vdW  Elec       q    Type
REMARK                         _______ _______ _______ _____ _____    ______ ____
ROOT
ATOM      6  C   UNL     1      -5.028 -12.302  15.933  0.00  0.00    -0.000 C 
ATOM      7  C   UNL     1      -4.124 -12.694  14.756  0.00  0.00    +0.012 C 
ATOM      8  C   UNL     1      -3.278 -11.510  14.251  0.00  0.00    +0.023 C 
ATOM      9  C   UNL     1      -4.178 -11.767  17.114  0.00  0.00    +0.029 C 
ATOM     11  C   UNL     1      -2.617 -10.763  15.391  0.00  0.00    -0.073 C 
ATOM     12  C   UNL     1      -3.024 -10.901  16.666  0.00  0.00    -0.023 C 
ATOM     18  C   UNL     1      -1.447  -9.887  15.039  0.00  0.00    +0.039 C 
ENDROOT
BRANCH   6  10
ATOM     10  C   UNL     1      -5.888 -13.500  16.350  0.00  0.00    -0.013 C 
ATOM     15  C   UNL     1      -6.857 -13.872  15.231  0.00  0.00    +0.007 C 
ATOM     16  C   UNL     1      -5.004 -14.686  16.718  0.00  0.00    +0.007 C 
ENDBRANCH   6  10
BRANCH   8  13
ATOM     13  C   UNL     1      -4.116 -10.561  13.386  0.00  0.00    +0.103 C 
BRANCH  13  17
ATOM      1  O   UNL     1      -2.416 -10.982  11.790  0.00  0.00    -0.276 OA
ATOM      3  N   UNL     1      -4.189  -9.655  11.090  0.00  0.00    -0.299 N 
ATOM      4  N   UNL     1      -5.882  -8.786   8.949  0.00  0.00    -0.297 NA
ATOM     17  C   UNL     1      -3.490 -10.422  12.021  0.00  0.00    +0.216 C 
ATOM     19  C   UNL     1      -3.650  -9.476   9.743  0.00  0.00    +0.123 C 
ATOM     20  C   UNL     1      -5.395  -8.872  11.372  0.00  0.00    +0.123 C 
ATOM     21  C   UNL     1      -4.734  -9.665   8.682  0.00  0.00    +0.103 C 
ATOM     22  C   UNL     1      -6.447  -9.065  10.278  0.00  0.00    +0.103 C 
BRANCH   4  24
ATOM     24  C   UNL     1      -6.902  -8.945   7.914  0.00  0.00    +0.112 C 
BRANCH  24  25
ATOM     25  C   UNL     1      -7.964  -7.864   8.006  0.00  0.00    +0.171 C 
BRANCH  25   2
ATOM      2  O   UNL     1      -7.370  -6.596   7.760  0.00  0.00    -0.394 OA
ATOM     26  H   UNL     1      -6.660  -6.733   7.110  0.00  0.00    +0.209 HD
ENDBRANCH  25   2
ENDBRANCH  24  25
ENDBRANCH   4  24
ENDBRANCH  13  17
ENDBRANCH   8  13
BRANCH   9  14
ATOM     14  C   UNL     1      -5.043 -10.989  18.111  0.00  0.00    +0.126 C 
BRANCH  14  23
ATOM      5  N   UNL     1      -6.766  -9.454  16.866  0.00  0.00    -0.197 NA
ATOM     23  C   UNL     1      -6.000 -10.134  17.411  0.00  0.00    +0.063 C 
ENDBRANCH  14  23
ENDBRANCH   9  14
TORSDOF 8
ENDMDL
MODEL 6
REMARK VINA RESULT:      -5.2     29.452     32.032
REMARK  Name = 38029925
REMARK  11 active torsions:
REMARK  status: ('A' for Active; 'I' for Inactive)
REMARK    1  A    between atoms: O_2  and  C_25
REMARK    2  A    between atoms: N_4  and  C_24
REMARK    3  A    between atoms: C_6  and  C_10
REMARK    4  A    between atoms: C_8  and  C_13
REMARK    5  A    between atoms: C_9  and  C_14
REMARK    6  A    between atoms: C_10  and  C_15
REMARK    7  A    between atoms: C_10  and  C_16
REMARK    8  A    between atoms: C_11  and  C_18
REMARK    9  A    between atoms: C_13  and  C_17
REMARK   10  A    between atoms: C_14  and  C_23
REMARK   11  A    between atoms: C_24  and  C_25
REMARK                            x       y       z     vdW  Elec       q    Type
REMARK                         _______ _______ _______ _____ _____    ______ ____
ROOT
ATOM      6  C   UNL     1     -12.349   8.569  19.753  0.00  0.00    -0.000 C 
ATOM      7  C   UNL     1     -11.728   7.774  18.595  0.00  0.00    +0.012 C 
ATOM      8  C   UNL     1     -11.332   8.679  17.413  0.00  0.00    +0.023 C 
ATOM      9  C   UNL     1     -11.356   9.643  20.267  0.00  0.00    +0.029 C 
ATOM     11  C   UNL     1     -10.575   9.908  17.872  0.00  0.00    -0.073 C 
ATOM     12  C   UNL     1     -10.587  10.316  19.155  0.00  0.00    -0.023 C 
ATOM     18  C   UNL     1      -9.766  10.634  16.834  0.00  0.00    +0.039 C 
ENDROOT
BRANCH   6  10
ATOM     10  C   UNL     1     -12.778   7.611  20.869  0.00  0.00    -0.013 C 
ATOM     15  C   UNL     1     -14.197   7.108  20.621  0.00  0.00    +0.007 C 
ATOM     16  C   UNL     1     -11.801   6.445  20.974  0.00  0.00    +0.007 C 
ENDBRANCH   6  10
BRANCH   8  13
ATOM     13  C   UNL     1     -12.559   9.070  16.582  0.00  0.00    +0.103 C 
BRANCH  13  17
ATOM      1  O   UNL     1     -11.323   8.377  14.683  0.00  0.00    -0.276 OA
ATOM      3  N   UNL     1     -13.630   8.142  14.559  0.00  0.00    -0.299 N 
ATOM      4  N   UNL     1     -15.878   6.692  13.534  0.00  0.00    -0.297 NA
ATOM     17  C   UNL     1     -12.440   8.501  15.190  0.00  0.00    +0.216 C 
ATOM     19  C   UNL     1     -13.598   7.578  13.211  0.00  0.00    +0.123 C 
ATOM     20  C   UNL     1     -14.976   8.398  15.080  0.00  0.00    +0.123 C 
ATOM     21  C   UNL     1     -14.514   6.360  13.096  0.00  0.00    +0.103 C 
ATOM     22  C   UNL     1     -15.871   7.167  14.926  0.00  0.00    +0.103 C 
BRANCH   4  24
ATOM     24  C   UNL     1     -16.758   5.533  13.391  0.00  0.00    +0.112 C 
BRANCH  24  25
ATOM     25  C   UNL     1     -17.058   4.891  14.734  0.00  0.00    +0.171 C 
BRANCH  25   2
ATOM      2  O   UNL     1     -17.651   3.616  14.526  0.00  0.00    -0.394 OA
ATOM     26  H   UNL     1     -18.611   3.755  14.454  0.00  0.00    +0.209 HD
ENDBRANCH  25   2
ENDBRANCH  24  25
ENDBRANCH   4  24
ENDBRANCH  13  17
ENDBRANCH   8  13
BRANCH   9  14
ATOM     14  C   UNL     1     -12.075  10.705  21.105  0.00  0.00    +0.126 C 
BRANCH  14  23
ATOM      5  N   UNL     1     -13.936  11.911  19.704  0.00  0.00    -0.197 NA
ATOM     23  C   UNL     1     -13.110  11.375  20.318  0.00  0.00    +0.063 C 
ENDBRANCH  14  23
ENDBRANCH   9  14
TORSDOF 8
ENDMDL
MODEL 7
REMARK VINA RESULT:      -5.2     17.086     20.326
REMARK  Name = 38029925
REMARK  11 active torsions:
REMARK  status: ('A' for Active; 'I' for Inactive)
REMARK    1  A    between atoms: O_2  and  C_25
REMARK    2  A    between atoms: N_4  and  C_24
REMARK    3  A    between atoms: C_6  and  C_10
REMARK    4  A    between atoms: C_8  and  C_13
REMARK    5  A    between atoms: C_9  and  C_14
REMARK    6  A    between atoms: C_10  and  C_15
REMARK    7  A    between atoms: C_10  and  C_16
REMARK    8  A    between atoms: C_11  and  C_18
REMARK    9  A    between atoms: C_13  and  C_17
REMARK   10  A    between atoms: C_14  and  C_23
REMARK   11  A    between atoms: C_24  and  C_25
REMARK                            x       y       z     vdW  Elec       q    Type
REMARK                         _______ _______ _______ _____ _____    ______ ____
ROOT
ATOM      6  C   UNL     1      10.652   7.102   4.812  0.00  0.00    -0.000 C 
ATOM      7  C   UNL     1      10.718   8.417   4.021  0.00  0.00    +0.012 C 
ATOM      8  C   UNL     1       9.358   8.795   3.404  0.00  0.00    +0.023 C 
ATOM      9  C   UNL     1       9.607   7.207   5.952  0.00  0.00    +0.029 C 
ATOM     11  C   UNL     1       8.228   8.663   4.404  0.00  0.00    -0.073 C 
ATOM     12  C   UNL     1       8.362   7.960   5.544  0.00  0.00    -0.023 C 
ATOM     18  C   UNL     1       6.954   9.395   4.088  0.00  0.00    +0.039 C 
ENDROOT
BRANCH   6  10
ATOM     10  C   UNL     1      12.043   6.748   5.348  0.00  0.00    -0.013 C 
ATOM     15  C   UNL     1      13.091   6.905   4.249  0.00  0.00    +0.007 C 
ATOM     16  C   UNL     1      12.386   7.618   6.552  0.00  0.00    +0.007 C 
ENDBRANCH   6  10
BRANCH   8  13
ATOM     13  C   UNL     1       9.075   7.968   2.145  0.00  0.00    +0.103 C 
BRANCH  13  17
ATOM      1  O   UNL     1      10.816   8.952   0.874  0.00  0.00    -0.276 OA
ATOM      3  N   UNL     1      10.813   6.633   1.006  0.00  0.00    -0.299 N 
ATOM      4  N   UNL     1      12.316   4.195   1.042  0.00  0.00    -0.297 NA
ATOM     17  C   UNL     1      10.312   7.904   1.283  0.00  0.00    +0.216 C 
ATOM     19  C   UNL     1      12.012   6.487   0.182  0.00  0.00    +0.123 C 
ATOM     20  C   UNL     1      10.164   5.369   1.365  0.00  0.00    +0.123 C 
ATOM     21  C   UNL     1      12.986   5.479   0.792  0.00  0.00    +0.103 C 
ATOM     22  C   UNL     1      11.173   4.377   1.948  0.00  0.00    +0.103 C 
BRANCH   4  24
ATOM     24  C   UNL     1      13.259   3.223   1.593  0.00  0.00    +0.112 C 
BRANCH  24  25
ATOM     25  C   UNL     1      14.696   3.606   1.288  0.00  0.00    +0.171 C 
BRANCH  25   2
ATOM      2  O   UNL     1      15.531   3.211   2.370  0.00  0.00    -0.394 OA
ATOM     26  H   UNL     1      16.447   3.404   2.109  0.00  0.00    +0.209 HD
ENDBRANCH  25   2
ENDBRANCH  24  25
ENDBRANCH   4  24
ENDBRANCH  13  17
ENDBRANCH   8  13
BRANCH   9  14
ATOM     14  C   UNL     1       9.217   5.820   6.473  0.00  0.00    +0.126 C 
BRANCH  14  23
ATOM      5  N   UNL     1      10.271   5.391   8.836  0.00  0.00    -0.197 NA
ATOM     23  C   UNL     1       9.806   5.575   7.788  0.00  0.00    +0.063 C 
ENDBRANCH  14  23
ENDBRANCH   9  14
TORSDOF 8
ENDMDL
MODEL 8
REMARK VINA RESULT:      -5.1     28.207     31.017
REMARK  Name = 38029925
REMARK  11 active torsions:
REMARK  status: ('A' for Active; 'I' for Inactive)
REMARK    1  A    between atoms: O_2  and  C_25
REMARK    2  A    between atoms: N_4  and  C_24
REMARK    3  A    between atoms: C_6  and  C_10
REMARK    4  A    between atoms: C_8  and  C_13
REMARK    5  A    between atoms: C_9  and  C_14
REMARK    6  A    between atoms: C_10  and  C_15
REMARK    7  A    between atoms: C_10  and  C_16
REMARK    8  A    between atoms: C_11  and  C_18
REMARK    9  A    between atoms: C_13  and  C_17
REMARK   10  A    between atoms: C_14  and  C_23
REMARK   11  A    between atoms: C_24  and  C_25
REMARK                            x       y       z     vdW  Elec       q    Type
REMARK                         _______ _______ _______ _____ _____    ______ ____
ROOT
ATOM      6  C   UNL     1      -5.981 -10.078  10.062  0.00  0.00    -0.000 C 
ATOM      7  C   UNL     1      -5.570  -9.395  11.374  0.00  0.00    +0.012 C 
ATOM      8  C   UNL     1      -4.069  -9.568  11.676  0.00  0.00    +0.023 C 
ATOM      9  C   UNL     1      -5.171  -9.500   8.873  0.00  0.00    +0.029 C 
ATOM     11  C   UNL     1      -3.212  -9.272  10.462  0.00  0.00    -0.073 C 
ATOM     12  C   UNL     1      -3.725  -9.233   9.219  0.00  0.00    -0.023 C 
ATOM     18  C   UNL     1      -1.760  -8.978  10.714  0.00  0.00    +0.039 C 
ENDROOT
BRANCH   6  10
ATOM     10  C   UNL     1      -7.491  -9.925   9.847  0.00  0.00    -0.013 C 
ATOM     15  C   UNL     1      -8.255 -10.462  11.054  0.00  0.00    +0.007 C 
ATOM     16  C   UNL     1      -7.846  -8.465   9.588  0.00  0.00    +0.007 C 
ENDBRANCH   6  10
BRANCH   8  13
ATOM     13  C   UNL     1      -3.775 -10.967  12.227  0.00  0.00    +0.103 C 
BRANCH  13  17
ATOM      1  O   UNL     1      -1.976 -10.542  13.710  0.00  0.00    -0.276 OA
ATOM      3  N   UNL     1      -4.003 -11.130  14.681  0.00  0.00    -0.299 N 
ATOM      4  N   UNL     1      -5.794 -10.900  16.904  0.00  0.00    -0.297 NA
ATOM     17  C   UNL     1      -3.162 -10.860  13.602  0.00  0.00    +0.216 C 
ATOM     19  C   UNL     1      -3.485 -11.042  16.046  0.00  0.00    +0.123 C 
ATOM     20  C   UNL     1      -5.374 -11.636  14.581  0.00  0.00    +0.123 C 
ATOM     21  C   UNL     1      -4.455 -10.295  16.960  0.00  0.00    +0.103 C 
ATOM     22  C   UNL     1      -6.311 -10.882  15.528  0.00  0.00    +0.103 C 
BRANCH   4  24
ATOM     24  C   UNL     1      -6.710 -10.203  17.806  0.00  0.00    +0.112 C 
BRANCH  24  25
ATOM     25  C   UNL     1      -7.155 -11.096  18.950  0.00  0.00    +0.171 C 
BRANCH  25   2
ATOM      2  O   UNL     1      -7.446 -10.297  20.089  0.00  0.00    -0.394 OA
ATOM     26  H   UNL     1      -7.463 -10.890  20.858  0.00  0.00    +0.209 HD
ENDBRANCH  25   2
ENDBRANCH  24  25
ENDBRANCH   4  24
ENDBRANCH  13  17
ENDBRANCH   8  13
BRANCH   9  14
ATOM     14  C   UNL     1      -5.242 -10.424   7.654  0.00  0.00    +0.126 C 
BRANCH  14  23
ATOM      5  N   UNL     1      -6.672  -9.343   5.739  0.00  0.00    -0.197 NA
ATOM     23  C   UNL     1      -6.035  -9.816   6.586  0.00  0.00    +0.063 C 
ENDBRANCH  14  23
ENDBRANCH   9  14
TORSDOF 8
ENDMDL
MODEL 9
REMARK VINA RESULT:      -5.1     29.957     32.171
REMARK  Name = 38029925
REMARK  11 active torsions:
REMARK  status: ('A' for Active; 'I' for Inactive)
REMARK    1  A    between atoms: O_2  and  C_25
REMARK    2  A    between atoms: N_4  and  C_24
REMARK    3  A    between atoms: C_6  and  C_10
REMARK    4  A    between atoms: C_8  and  C_13
REMARK    5  A    between atoms: C_9  and  C_14
REMARK    6  A    between atoms: C_10  and  C_15
REMARK    7  A    between atoms: C_10  and  C_16
REMARK    8  A    between atoms: C_11  and  C_18
REMARK    9  A    between atoms: C_13  and  C_17
REMARK   10  A    between atoms: C_14  and  C_23
REMARK   11  A    between atoms: C_24  and  C_25
REMARK                            x       y       z     vdW  Elec       q    Type
REMARK                         _______ _______ _______ _____ _____    ______ ____
ROOT
ATOM      6  C   UNL     1     -13.409   7.660  21.033  0.00  0.00    -0.000 C 
ATOM      7  C   UNL     1     -12.216   7.260  20.153  0.00  0.00    +0.012 C 
ATOM      8  C   UNL     1     -11.795   8.388  19.192  0.00  0.00    +0.023 C 
ATOM      9  C   UNL     1     -13.065   8.917  21.872  0.00  0.00    +0.029 C 
ATOM     11  C   UNL     1     -11.695   9.723  19.900  0.00  0.00    -0.073 C 
ATOM     12  C   UNL     1     -12.257   9.937  21.104  0.00  0.00    -0.023 C 
ATOM     18  C   UNL     1     -10.893  10.795  19.216  0.00  0.00    +0.039 C 
ENDROOT
BRANCH   6  10
ATOM     10  C   UNL     1     -13.820   6.480  21.920  0.00  0.00    -0.013 C 
ATOM     15  C   UNL     1     -15.118   5.861  21.411  0.00  0.00    +0.007 C 
ATOM     16  C   UNL     1     -12.706   5.440  21.970  0.00  0.00    +0.007 C 
ENDBRANCH   6  10
BRANCH   8  13
ATOM     13  C   UNL     1     -12.745   8.474  17.992  0.00  0.00    +0.103 C 
BRANCH  13  17
ATOM      1  O   UNL     1     -10.733   8.269  16.756  0.00  0.00    -0.276 OA
ATOM      3  N   UNL     1     -12.703   8.330  15.527  0.00  0.00    -0.299 N 
ATOM      4  N   UNL     1     -14.137   7.513  13.186  0.00  0.00    -0.297 NA
ATOM     17  C   UNL     1     -11.962   8.350  16.708  0.00  0.00    +0.216 C 
ATOM     19  C   UNL     1     -12.018   8.207  14.241  0.00  0.00    +0.123 C 
ATOM     20  C   UNL     1     -14.147   8.556  15.428  0.00  0.00    +0.123 C 
ATOM     21  C   UNL     1     -12.712   7.188  13.338  0.00  0.00    +0.103 C 
ATOM     22  C   UNL     1     -14.803   7.534  14.497  0.00  0.00    +0.103 C 
BRANCH   4  24
ATOM     24  C   UNL     1     -14.790   6.555  12.295  0.00  0.00    +0.112 C 
BRANCH  24  25
ATOM     25  C   UNL     1     -15.797   5.697  13.039  0.00  0.00    +0.171 C 
BRANCH  25   2
ATOM      2  O   UNL     1     -15.544   4.325  12.765  0.00  0.00    -0.394 OA
ATOM     26  H   UNL     1     -16.036   4.099  11.958  0.00  0.00    +0.209 HD
ENDBRANCH  25   2
ENDBRANCH  24  25
ENDBRANCH   4  24
ENDBRANCH  13  17
ENDBRANCH   8  13
BRANCH   9  14
ATOM     14  C   UNL     1     -14.332   9.579  22.422  0.00  0.00    +0.126 C 
BRANCH  14  23
ATOM      5  N   UNL     1     -15.983  10.206  20.482  0.00  0.00    -0.197 NA
ATOM     23  C   UNL     1     -15.247   9.930  21.336  0.00  0.00    +0.063 C 
ENDBRANCH  14  23
ENDBRANCH   9  14
TORSDOF 8
ENDMDL
MODEL 10
REMARK VINA RESULT:      -5.0     17.132     20.510
REMARK  Name = 38029925
REMARK  11 active torsions:
REMARK  status: ('A' for Active; 'I' for Inactive)
REMARK    1  A    between atoms: O_2  and  C_25
REMARK    2  A    between atoms: N_4  and  C_24
REMARK    3  A    between atoms: C_6  and  C_10
REMARK    4  A    between atoms: C_8  and  C_13
REMARK    5  A    between atoms: C_9  and  C_14
REMARK    6  A    between atoms: C_10  and  C_15
REMARK    7  A    between atoms: C_10  and  C_16
REMARK    8  A    between atoms: C_11  and  C_18
REMARK    9  A    between atoms: C_13  and  C_17
REMARK   10  A    between atoms: C_14  and  C_23
REMARK   11  A    between atoms: C_24  and  C_25
REMARK                            x       y       z     vdW  Elec       q    Type
REMARK                         _______ _______ _______ _____ _____    ______ ____
ROOT
ATOM      6  C   UNL     1       8.853   8.572   4.713  0.00  0.00    -0.000 C 
ATOM      7  C   UNL     1       8.408   7.103   4.715  0.00  0.00    +0.012 C 
ATOM      8  C   UNL     1       9.061   6.296   5.854  0.00  0.00    +0.023 C 
ATOM      9  C   UNL     1       8.494   9.248   6.061  0.00  0.00    +0.029 C 
ATOM     11  C   UNL     1       8.983   7.028   7.178  0.00  0.00    -0.073 C 
ATOM     12  C   UNL     1       8.716   8.345   7.252  0.00  0.00    -0.023 C 
ATOM     18  C   UNL     1       9.175   6.203   8.420  0.00  0.00    +0.039 C 
ENDROOT
BRANCH   6  10
ATOM     10  C   UNL     1       8.221   9.305   3.525  0.00  0.00    -0.013 C 
ATOM     15  C   UNL     1       8.383   8.485   2.249  0.00  0.00    +0.007 C 
ATOM     16  C   UNL     1       6.750   9.595   3.800  0.00  0.00    +0.007 C 
ENDBRANCH   6  10
BRANCH   8  13
ATOM     13  C   UNL     1      10.510   5.933   5.512  0.00  0.00    +0.103 C 
BRANCH  13  17
ATOM      1  O   UNL     1      10.062   3.655   5.034  0.00  0.00    -0.276 OA
ATOM      3  N   UNL     1      11.109   4.879   3.360  0.00  0.00    -0.299 N 
ATOM      4  N   UNL     1      11.529   5.308   0.559  0.00  0.00    -0.297 NA
ATOM     17  C   UNL     1      10.537   4.715   4.621  0.00  0.00    +0.216 C 
ATOM     19  C   UNL     1      11.169   3.748   2.436  0.00  0.00    +0.123 C 
ATOM     20  C   UNL     1      11.797   6.085   2.892  0.00  0.00    +0.123 C 
ATOM     21  C   UNL     1      10.742   4.158   1.027  0.00  0.00    +0.103 C 
ATOM     22  C   UNL     1      11.364   6.451   1.470  0.00  0.00    +0.103 C 
BRANCH   4  24
ATOM     24  C   UNL     1      11.141   5.676  -0.801  0.00  0.00    +0.112 C 
BRANCH  24  25
ATOM     25  C   UNL     1       9.692   5.320  -1.084  0.00  0.00    +0.171 C 
BRANCH  25   2
ATOM      2  O   UNL     1       9.629   4.456  -2.211  0.00  0.00    -0.394 OA
ATOM     26  H   UNL     1       9.783   3.552  -1.888  0.00  0.00    +0.209 HD
ENDBRANCH  25   2
ENDBRANCH  24  25
ENDBRANCH   4  24
ENDBRANCH  13  17
ENDBRANCH   8  13
BRANCH   9  14
ATOM     14  C   UNL     1       9.281  10.549   6.254  0.00  0.00    +0.126 C 
BRANCH  14  23
ATOM      5  N   UNL     1      11.863  10.088   6.308  0.00  0.00    -0.197 NA
ATOM     23  C   UNL     1      10.719  10.286   6.286  0.00  0.00    +0.063 C 
ENDBRANCH  14  23
ENDBRANCH   9  14
TORSDOF 8
ENDMDL
