MODEL 1
REMARK VINA RESULT:      -6.7      0.000      0.000
REMARK  Name = 51137385
REMARK  4 active torsions:
REMARK  status: ('A' for Active; 'I' for Inactive)
REMARK    1  A    between atoms: N_2  and  C_5
REMARK    2  A    between atoms: C_10  and  C_13
REMARK    3  A    between atoms: C_14  and  C_15
REMARK    4  A    between atoms: C_15  and  C_16
REMARK                            x       y       z     vdW  Elec       q    Type
REMARK                         _______ _______ _______ _____ _____    ______ ____
ROOT
ATOM      1  O   UNL     1      12.272   9.523  21.380  0.00  0.00    -0.424 OA
ATOM      3  N   UNL     1      10.786   8.203  22.406  0.00  0.00    -0.112 NA
ATOM      4  N   UNL     1      10.405   9.517  22.612  0.00  0.00    -0.112 NA
ATOM     13  C   UNL     1      11.879   8.255  21.683  0.00  0.00    +0.222 A 
ATOM     14  C   UNL     1      11.301  10.251  21.996  0.00  0.00    +0.222 A 
ENDROOT
BRANCH  13  10
ATOM      2  N   UNL     1      14.835   6.660  20.214  0.00  0.00    -0.299 NA
ATOM      9  C   UNL     1      14.240   7.385  21.341  0.00  0.00    +0.097 C 
ATOM     10  C   UNL     1      12.739   7.130  21.154  0.00  0.00    +0.092 C 
ATOM     11  C   UNL     1      13.979   6.977  19.071  0.00  0.00    +0.085 C 
ATOM     12  C   UNL     1      12.577   6.846  19.650  0.00  0.00    +0.029 C 
BRANCH   2   5
ATOM      5  C   UNL     1      16.212   7.110  19.975  0.00  0.00    +0.057 C 
ATOM      6  C   UNL     1      16.970   6.042  19.159  0.00  0.00    +0.019 C 
ATOM      7  C   UNL     1      17.100   6.715  21.173  0.00  0.00    +0.019 C 
ATOM      8  C   UNL     1      18.143   6.234  20.141  0.00  0.00    +0.003 C 
ENDBRANCH   2   5
ENDBRANCH  13  10
BRANCH  14  15
ATOM     15  C   UNL     1      11.394  11.712  21.880  0.00  0.00    +0.132 C 
BRANCH  15  16
ATOM     16  C   UNL     1      11.145  12.472  23.180  0.00  0.00    -0.038 A 
ATOM     17  C   UNL     1      11.763  12.057  24.359  0.00  0.00    +0.004 A 
ATOM     18  C   UNL     1      10.299  13.581  23.187  0.00  0.00    +0.004 A 
ATOM     19  C   UNL     1      11.534  12.751  25.548  0.00  0.00    +0.000 A 
ATOM     20  C   UNL     1      10.071  14.275  24.375  0.00  0.00    +0.000 A 
ATOM     21  C   UNL     1      10.688  13.860  25.555  0.00  0.00    +0.000 A 
ENDBRANCH  15  16
ENDBRANCH  14  15
TORSDOF 4
ENDMDL
MODEL 2
REMARK VINA RESULT:      -6.7      1.836      7.045
REMARK  Name = 51137385
REMARK  4 active torsions:
REMARK  status: ('A' for Active; 'I' for Inactive)
REMARK    1  A    between atoms: N_2  and  C_5
REMARK    2  A    between atoms: C_10  and  C_13
REMARK    3  A    between atoms: C_14  and  C_15
REMARK    4  A    between atoms: C_15  and  C_16
REMARK                            x       y       z     vdW  Elec       q    Type
REMARK                         _______ _______ _______ _____ _____    ______ ____
ROOT
ATOM      1  O   UNL     1      13.042   8.718  19.664  0.00  0.00    -0.424 OA
ATOM      3  N   UNL     1      11.481   7.221  20.233  0.00  0.00    -0.112 NA
ATOM      4  N   UNL     1      12.453   6.566  19.499  0.00  0.00    -0.112 NA
ATOM     13  C   UNL     1      11.866   8.472  20.304  0.00  0.00    +0.222 A 
ATOM     14  C   UNL     1      13.343   7.479  19.188  0.00  0.00    +0.222 A 
ENDROOT
BRANCH  13  10
ATOM      2  N   UNL     1      11.573  11.376  22.523  0.00  0.00    -0.299 NA
ATOM      9  C   UNL     1      12.184  10.771  21.336  0.00  0.00    +0.097 C 
ATOM     10  C   UNL     1      11.200   9.648  20.982  0.00  0.00    +0.092 C 
ATOM     11  C   UNL     1      11.134  10.243  23.337  0.00  0.00    +0.085 C 
ATOM     12  C   UNL     1      10.497   9.314  22.311  0.00  0.00    +0.029 C 
BRANCH   2   5
ATOM      5  C   UNL     1      12.551  12.192  23.253  0.00  0.00    +0.057 C 
ATOM      6  C   UNL     1      13.942  11.529  23.172  0.00  0.00    +0.019 C 
ATOM      7  C   UNL     1      12.537  11.804  24.746  0.00  0.00    +0.019 C 
ATOM      8  C   UNL     1      14.079  11.810  24.682  0.00  0.00    +0.003 C 
ENDBRANCH   2   5
ENDBRANCH  13  10
BRANCH  14  15
ATOM     15  C   UNL     1      14.588   7.348  18.420  0.00  0.00    +0.132 C 
BRANCH  15  16
ATOM     16  C   UNL     1      15.833   7.088  19.263  0.00  0.00    -0.038 A 
ATOM     17  C   UNL     1      16.087   7.868  20.390  0.00  0.00    +0.004 A 
ATOM     18  C   UNL     1      16.716   6.069  18.905  0.00  0.00    +0.004 A 
ATOM     19  C   UNL     1      17.226   7.630  21.161  0.00  0.00    +0.000 A 
ATOM     20  C   UNL     1      17.854   5.831  19.675  0.00  0.00    +0.000 A 
ATOM     21  C   UNL     1      18.110   6.612  20.802  0.00  0.00    +0.000 A 
ENDBRANCH  15  16
ENDBRANCH  14  15
TORSDOF 4
ENDMDL
MODEL 3
REMARK VINA RESULT:      -6.6     28.215     30.896
REMARK  Name = 51137385
REMARK  4 active torsions:
REMARK  status: ('A' for Active; 'I' for Inactive)
REMARK    1  A    between atoms: N_2  and  C_5
REMARK    2  A    between atoms: C_10  and  C_13
REMARK    3  A    between atoms: C_14  and  C_15
REMARK    4  A    between atoms: C_15  and  C_16
REMARK                            x       y       z     vdW  Elec       q    Type
REMARK                         _______ _______ _______ _____ _____    ______ ____
ROOT
ATOM      1  O   UNL     1       1.592   2.838  -5.867  0.00  0.00    -0.424 OA
ATOM      3  N   UNL     1       0.655   3.976  -4.184  0.00  0.00    -0.112 NA
ATOM      4  N   UNL     1       0.255   2.656  -4.082  0.00  0.00    -0.112 NA
ATOM     13  C   UNL     1       1.432   4.036  -5.239  0.00  0.00    +0.222 A 
ATOM     14  C   UNL     1       0.826   2.030  -5.084  0.00  0.00    +0.222 A 
ENDROOT
BRANCH  13  10
ATOM      2  N   UNL     1       3.705   6.911  -5.338  0.00  0.00    -0.299 NA
ATOM      9  C   UNL     1       3.533   5.462  -5.201  0.00  0.00    +0.097 C 
ATOM     10  C   UNL     1       2.157   5.220  -5.835  0.00  0.00    +0.092 C 
ATOM     11  C   UNL     1       2.406   7.478  -4.972  0.00  0.00    +0.085 C 
ATOM     12  C   UNL     1       1.422   6.566  -5.693  0.00  0.00    +0.029 C 
BRANCH   2   5
ATOM      5  C   UNL     1       4.757   7.398  -4.438  0.00  0.00    +0.057 C 
ATOM      6  C   UNL     1       4.816   6.506  -3.181  0.00  0.00    +0.019 C 
ATOM      7  C   UNL     1       4.188   8.508  -3.530  0.00  0.00    +0.019 C 
ATOM      8  C   UNL     1       4.902   7.806  -2.356  0.00  0.00    +0.003 C 
ENDBRANCH   2   5
ENDBRANCH  13  10
BRANCH  14  15
ATOM     15  C   UNL     1       0.755   0.613  -5.465  0.00  0.00    +0.132 C 
BRANCH  15  16
ATOM     16  C   UNL     1      -0.480   0.231  -6.276  0.00  0.00    -0.038 A 
ATOM     17  C   UNL     1      -1.021   1.135  -7.190  0.00  0.00    +0.004 A 
ATOM     18  C   UNL     1      -1.068  -1.021  -6.101  0.00  0.00    +0.004 A 
ATOM     19  C   UNL     1      -2.150   0.786  -7.931  0.00  0.00    +0.000 A 
ATOM     20  C   UNL     1      -2.197  -1.370  -6.842  0.00  0.00    +0.000 A 
ATOM     21  C   UNL     1      -2.738  -0.467  -7.756  0.00  0.00    +0.000 A 
ENDBRANCH  15  16
ENDBRANCH  14  15
TORSDOF 4
ENDMDL
MODEL 4
REMARK VINA RESULT:      -6.5     29.165     31.668
REMARK  Name = 51137385
REMARK  4 active torsions:
REMARK  status: ('A' for Active; 'I' for Inactive)
REMARK    1  A    between atoms: N_2  and  C_5
REMARK    2  A    between atoms: C_10  and  C_13
REMARK    3  A    between atoms: C_14  and  C_15
REMARK    4  A    between atoms: C_15  and  C_16
REMARK                            x       y       z     vdW  Elec       q    Type
REMARK                         _______ _______ _______ _____ _____    ______ ____
ROOT
ATOM      1  O   UNL     1       2.005   2.706  -5.305  0.00  0.00    -0.424 OA
ATOM      3  N   UNL     1       0.627   3.718  -3.863  0.00  0.00    -0.112 NA
ATOM      4  N   UNL     1       0.109   2.467  -4.142  0.00  0.00    -0.112 NA
ATOM     13  C   UNL     1       1.732   3.814  -4.563  0.00  0.00    +0.222 A 
ATOM     14  C   UNL     1       0.945   1.913  -4.988  0.00  0.00    +0.222 A 
ENDROOT
BRANCH  13  10
ATOM      2  N   UNL     1       3.157   6.964  -5.784  0.00  0.00    -0.299 NA
ATOM      9  C   UNL     1       2.067   6.277  -5.084  0.00  0.00    +0.097 C 
ATOM     10  C   UNL     1       2.719   4.956  -4.655  0.00  0.00    +0.092 C 
ATOM     11  C   UNL     1       3.782   5.931  -6.610  0.00  0.00    +0.085 C 
ATOM     12  C   UNL     1       3.863   4.741  -5.661  0.00  0.00    +0.029 C 
BRANCH   2   5
ATOM      5  C   UNL     1       2.635   8.052  -6.619  0.00  0.00    +0.057 C 
ATOM      6  C   UNL     1       1.151   8.301  -6.276  0.00  0.00    +0.019 C 
ATOM      7  C   UNL     1       2.148   7.481  -7.967  0.00  0.00    +0.019 C 
ATOM      8  C   UNL     1       0.888   8.356  -7.794  0.00  0.00    +0.003 C 
ENDBRANCH   2   5
ENDBRANCH  13  10
BRANCH  14  15
ATOM     15  C   UNL     1       0.896   0.587  -5.619  0.00  0.00    +0.132 C 
BRANCH  15  16
ATOM     16  C   UNL     1      -0.396   0.288  -6.374  0.00  0.00    -0.038 A 
ATOM     17  C   UNL     1      -0.900   1.212  -7.288  0.00  0.00    +0.004 A 
ATOM     18  C   UNL     1      -1.072  -0.911  -6.148  0.00  0.00    +0.004 A 
ATOM     19  C   UNL     1      -2.082   0.938  -7.977  0.00  0.00    +0.000 A 
ATOM     20  C   UNL     1      -2.253  -1.185  -6.837  0.00  0.00    +0.000 A 
ATOM     21  C   UNL     1      -2.758  -0.261  -7.751  0.00  0.00    +0.000 A 
ENDBRANCH  15  16
ENDBRANCH  14  15
TORSDOF 4
ENDMDL
MODEL 5
REMARK VINA RESULT:      -6.5      1.299      2.116
REMARK  Name = 51137385
REMARK  4 active torsions:
REMARK  status: ('A' for Active; 'I' for Inactive)
REMARK    1  A    between atoms: N_2  and  C_5
REMARK    2  A    between atoms: C_10  and  C_13
REMARK    3  A    between atoms: C_14  and  C_15
REMARK    4  A    between atoms: C_15  and  C_16
REMARK                            x       y       z     vdW  Elec       q    Type
REMARK                         _______ _______ _______ _____ _____    ______ ____
ROOT
ATOM      1  O   UNL     1      12.755   9.076  21.836  0.00  0.00    -0.424 OA
ATOM      3  N   UNL     1      10.847   7.910  21.792  0.00  0.00    -0.112 NA
ATOM      4  N   UNL     1      10.611   9.089  22.474  0.00  0.00    -0.112 NA
ATOM     13  C   UNL     1      12.110   7.945  21.439  0.00  0.00    +0.222 A 
ATOM     14  C   UNL     1      11.752   9.737  22.475  0.00  0.00    +0.222 A 
ENDROOT
BRANCH  13  10
ATOM      2  N   UNL     1      15.033   6.558  19.715  0.00  0.00    -0.299 NA
ATOM      9  C   UNL     1      14.427   7.018  20.968  0.00  0.00    +0.097 C 
ATOM     10  C   UNL     1      12.924   6.929  20.671  0.00  0.00    +0.092 C 
ATOM     11  C   UNL     1      14.259   7.214  18.661  0.00  0.00    +0.085 C 
ATOM     12  C   UNL     1      12.822   7.044  19.140  0.00  0.00    +0.029 C 
BRANCH   2   5
ATOM      5  C   UNL     1      16.445   6.952  19.645  0.00  0.00    +0.057 C 
ATOM      6  C   UNL     1      17.261   5.833  18.964  0.00  0.00    +0.019 C 
ATOM      7  C   UNL     1      17.155   6.565  20.959  0.00  0.00    +0.019 C 
ATOM      8  C   UNL     1      18.303   6.015  20.085  0.00  0.00    +0.003 C 
ENDBRANCH   2   5
ENDBRANCH  13  10
BRANCH  14  15
ATOM     15  C   UNL     1      12.084  11.046  23.054  0.00  0.00    +0.132 C 
BRANCH  15  16
ATOM     16  C   UNL     1      11.806  12.236  22.141  0.00  0.00    -0.038 A 
ATOM     17  C   UNL     1      10.737  13.089  22.413  0.00  0.00    +0.004 A 
ATOM     18  C   UNL     1      12.622  12.469  21.034  0.00  0.00    +0.004 A 
ATOM     19  C   UNL     1      10.483  14.177  21.577  0.00  0.00    +0.000 A 
ATOM     20  C   UNL     1      12.367  13.557  20.198  0.00  0.00    +0.000 A 
ATOM     21  C   UNL     1      11.298  14.410  20.469  0.00  0.00    +0.000 A 
ENDBRANCH  15  16
ENDBRANCH  14  15
TORSDOF 4
ENDMDL
MODEL 6
REMARK VINA RESULT:      -6.4      1.746      7.263
REMARK  Name = 51137385
REMARK  4 active torsions:
REMARK  status: ('A' for Active; 'I' for Inactive)
REMARK    1  A    between atoms: N_2  and  C_5
REMARK    2  A    between atoms: C_10  and  C_13
REMARK    3  A    between atoms: C_14  and  C_15
REMARK    4  A    between atoms: C_15  and  C_16
REMARK                            x       y       z     vdW  Elec       q    Type
REMARK                         _______ _______ _______ _____ _____    ______ ____
ROOT
ATOM      1  O   UNL     1      13.650   7.628  20.555  0.00  0.00    -0.424 OA
ATOM      3  N   UNL     1      13.570   8.498  18.496  0.00  0.00    -0.112 NA
ATOM      4  N   UNL     1      14.670   7.663  18.565  0.00  0.00    -0.112 NA
ATOM     13  C   UNL     1      13.006   8.447  19.679  0.00  0.00    +0.222 A 
ATOM     14  C   UNL     1      14.677   7.178  19.784  0.00  0.00    +0.222 A 
ENDROOT
BRANCH  13  10
ATOM      2  N   UNL     1      11.013  10.652  21.825  0.00  0.00    -0.299 NA
ATOM      9  C   UNL     1      12.079  10.513  20.828  0.00  0.00    +0.097 C 
ATOM     10  C   UNL     1      11.770   9.153  20.188  0.00  0.00    +0.092 C 
ATOM     11  C   UNL     1      10.914   9.335  22.455  0.00  0.00    +0.085 C 
ATOM     12  C   UNL     1      10.985   8.384  21.267  0.00  0.00    +0.029 C 
BRANCH   2   5
ATOM      5  C   UNL     1      11.357  11.679  22.816  0.00  0.00    +0.057 C 
ATOM      6  C   UNL     1      12.838  11.529  23.222  0.00  0.00    +0.019 C 
ATOM      7  C   UNL     1      10.998  11.174  24.229  0.00  0.00    +0.019 C 
ATOM      8  C   UNL     1      12.376  11.702  24.682  0.00  0.00    +0.003 C 
ENDBRANCH   2   5
ENDBRANCH  13  10
BRANCH  14  15
ATOM     15  C   UNL     1      15.616   6.238  20.411  0.00  0.00    +0.132 C 
BRANCH  15  16
ATOM     16  C   UNL     1      16.987   6.824  20.732  0.00  0.00    -0.038 A 
ATOM     17  C   UNL     1      18.143   6.138  20.361  0.00  0.00    +0.004 A 
ATOM     18  C   UNL     1      17.084   8.047  21.396  0.00  0.00    +0.004 A 
ATOM     19  C   UNL     1      19.397   6.674  20.655  0.00  0.00    +0.000 A 
ATOM     20  C   UNL     1      18.338   8.583  21.689  0.00  0.00    +0.000 A 
ATOM     21  C   UNL     1      19.494   7.897  21.319  0.00  0.00    +0.000 A 
ENDBRANCH  15  16
ENDBRANCH  14  15
TORSDOF 4
ENDMDL
MODEL 7
REMARK VINA RESULT:      -6.4      4.743      7.590
REMARK  Name = 51137385
REMARK  4 active torsions:
REMARK  status: ('A' for Active; 'I' for Inactive)
REMARK    1  A    between atoms: N_2  and  C_5
REMARK    2  A    between atoms: C_10  and  C_13
REMARK    3  A    between atoms: C_14  and  C_15
REMARK    4  A    between atoms: C_15  and  C_16
REMARK                            x       y       z     vdW  Elec       q    Type
REMARK                         _______ _______ _______ _____ _____    ______ ____
ROOT
ATOM      1  O   UNL     1      14.453   9.866  17.076  0.00  0.00    -0.424 OA
ATOM      3  N   UNL     1      13.636   8.664  15.375  0.00  0.00    -0.112 NA
ATOM      4  N   UNL     1      13.908   9.937  14.907  0.00  0.00    -0.112 NA
ATOM     13  C   UNL     1      13.968   8.669  16.644  0.00  0.00    +0.222 A 
ATOM     14  C   UNL     1      14.382  10.602  15.934  0.00  0.00    +0.222 A 
ENDROOT
BRANCH  13  10
ATOM      2  N   UNL     1      12.894   6.949  19.698  0.00  0.00    -0.299 NA
ATOM      9  C   UNL     1      12.539   7.500  18.387  0.00  0.00    +0.097 C 
ATOM     10  C   UNL     1      13.891   7.556  17.664  0.00  0.00    +0.092 C 
ATOM     11  C   UNL     1      14.118   7.653  20.081  0.00  0.00    +0.085 C 
ATOM     12  C   UNL     1      14.933   7.642  18.794  0.00  0.00    +0.029 C 
BRANCH   2   5
ATOM      5  C   UNL     1      11.825   7.195  20.673  0.00  0.00    +0.057 C 
ATOM      6  C   UNL     1      10.949   8.371  20.195  0.00  0.00    +0.019 C 
ATOM      7  C   UNL     1      12.344   8.133  21.783  0.00  0.00    +0.019 C 
ATOM      8  C   UNL     1      11.019   8.911  21.637  0.00  0.00    +0.003 C 
ENDBRANCH   2   5
ENDBRANCH  13  10
BRANCH  14  15
ATOM     15  C   UNL     1      14.838  11.997  16.015  0.00  0.00    +0.132 C 
BRANCH  15  16
ATOM     16  C   UNL     1      16.347  12.182  15.889  0.00  0.00    -0.038 A 
ATOM     17  C   UNL     1      17.061  12.803  16.913  0.00  0.00    +0.004 A 
ATOM     18  C   UNL     1      17.012  11.730  14.749  0.00  0.00    +0.004 A 
ATOM     19  C   UNL     1      18.441  12.973  16.797  0.00  0.00    +0.000 A 
ATOM     20  C   UNL     1      18.391  11.900  14.634  0.00  0.00    +0.000 A 
ATOM     21  C   UNL     1      19.106  12.522  15.657  0.00  0.00    +0.000 A 
ENDBRANCH  15  16
ENDBRANCH  14  15
TORSDOF 4
ENDMDL
MODEL 8
REMARK VINA RESULT:      -6.4     26.449     27.661
REMARK  Name = 51137385
REMARK  4 active torsions:
REMARK  status: ('A' for Active; 'I' for Inactive)
REMARK    1  A    between atoms: N_2  and  C_5
REMARK    2  A    between atoms: C_10  and  C_13
REMARK    3  A    between atoms: C_14  and  C_15
REMARK    4  A    between atoms: C_15  and  C_16
REMARK                            x       y       z     vdW  Elec       q    Type
REMARK                         _______ _______ _______ _____ _____    ______ ____
ROOT
ATOM      1  O   UNL     1      -2.903 -11.628  14.820  0.00  0.00    -0.424 OA
ATOM      3  N   UNL     1      -1.408 -10.017  14.403  0.00  0.00    -0.112 NA
ATOM      4  N   UNL     1      -1.731  -9.963  15.747  0.00  0.00    -0.112 NA
ATOM     13  C   UNL     1      -2.115 -11.003  13.903  0.00  0.00    +0.222 A 
ATOM     14  C   UNL     1      -2.606 -10.920  15.944  0.00  0.00    +0.222 A 
ENDROOT
BRANCH  13  10
ATOM      2  N   UNL     1      -3.297 -11.278  10.444  0.00  0.00    -0.299 NA
ATOM      9  C   UNL     1      -2.642 -10.470  11.477  0.00  0.00    +0.097 C 
ATOM     10  C   UNL     1      -2.171 -11.525  12.486  0.00  0.00    +0.092 C 
ATOM     11  C   UNL     1      -4.084 -12.265  11.183  0.00  0.00    +0.085 C 
ATOM     12  C   UNL     1      -3.121 -12.717  12.274  0.00  0.00    +0.029 C 
BRANCH   2   5
ATOM      5  C   UNL     1      -4.165 -10.444   9.604  0.00  0.00    +0.057 C 
ATOM      6  C   UNL     1      -3.665  -8.985   9.631  0.00  0.00    +0.019 C 
ATOM      7  C   UNL     1      -5.377  -9.963  10.431  0.00  0.00    +0.019 C 
ATOM      8  C   UNL     1      -5.136  -8.564   9.824  0.00  0.00    +0.003 C 
ENDBRANCH   2   5
ENDBRANCH  13  10
BRANCH  14  15
ATOM     15  C   UNL     1      -3.288 -11.323  17.181  0.00  0.00    +0.132 C 
BRANCH  15  16
ATOM     16  C   UNL     1      -4.687 -10.741  17.357  0.00  0.00    -0.038 A 
ATOM     17  C   UNL     1      -5.370 -10.915  18.561  0.00  0.00    +0.004 A 
ATOM     18  C   UNL     1      -5.283 -10.034  16.312  0.00  0.00    +0.004 A 
ATOM     19  C   UNL     1      -6.650 -10.383  18.720  0.00  0.00    +0.000 A 
ATOM     20  C   UNL     1      -6.563  -9.501  16.473  0.00  0.00    +0.000 A 
ATOM     21  C   UNL     1      -7.246  -9.676  17.676  0.00  0.00    +0.000 A 
ENDBRANCH  15  16
ENDBRANCH  14  15
TORSDOF 4
ENDMDL
MODEL 9
REMARK VINA RESULT:      -6.3     26.572     28.551
REMARK  Name = 51137385
REMARK  4 active torsions:
REMARK  status: ('A' for Active; 'I' for Inactive)
REMARK    1  A    between atoms: N_2  and  C_5
REMARK    2  A    between atoms: C_10  and  C_13
REMARK    3  A    between atoms: C_14  and  C_15
REMARK    4  A    between atoms: C_15  and  C_16
REMARK                            x       y       z     vdW  Elec       q    Type
REMARK                         _______ _______ _______ _____ _____    ______ ____
ROOT
ATOM      1  O   UNL     1      -3.293 -11.233  14.726  0.00  0.00    -0.424 OA
ATOM      3  N   UNL     1      -1.843 -10.741  16.356  0.00  0.00    -0.112 NA
ATOM      4  N   UNL     1      -1.128 -11.245  15.285  0.00  0.00    -0.112 NA
ATOM     13  C   UNL     1      -3.101 -10.753  15.985  0.00  0.00    +0.222 A 
ATOM     14  C   UNL     1      -2.015 -11.519  14.358  0.00  0.00    +0.222 A 
ENDROOT
BRANCH  13  10
ATOM      2  N   UNL     1      -6.316 -11.112  17.709  0.00  0.00    -0.299 NA
ATOM      9  C   UNL     1      -4.880 -11.406  17.675  0.00  0.00    +0.097 C 
ATOM     10  C   UNL     1      -4.333 -10.316  16.744  0.00  0.00    +0.092 C 
ATOM     11  C   UNL     1      -6.672 -10.818  16.321  0.00  0.00    +0.085 C 
ATOM     12  C   UNL     1      -5.530  -9.921  15.861  0.00  0.00    +0.029 C 
BRANCH   2   5
ATOM      5  C   UNL     1      -7.072 -12.268  18.206  0.00  0.00    +0.057 C 
ATOM      6  C   UNL     1      -8.584 -11.995  18.067  0.00  0.00    +0.019 C 
ATOM      7  C   UNL     1      -7.268 -12.140  19.732  0.00  0.00    +0.019 C 
ATOM      8  C   UNL     1      -8.739 -12.547  19.498  0.00  0.00    +0.003 C 
ENDBRANCH   2   5
ENDBRANCH  13  10
BRANCH  14  15
ATOM     15  C   UNL     1      -1.821 -12.073  13.011  0.00  0.00    +0.132 C 
BRANCH  15  16
ATOM     16  C   UNL     1      -2.471 -11.268  11.890  0.00  0.00    -0.038 A 
ATOM     17  C   UNL     1      -1.991  -9.997  11.575  0.00  0.00    +0.004 A 
ATOM     18  C   UNL     1      -3.547 -11.804  11.182  0.00  0.00    +0.004 A 
ATOM     19  C   UNL     1      -2.587  -9.261  10.550  0.00  0.00    +0.000 A 
ATOM     20  C   UNL     1      -4.142 -11.068  10.157  0.00  0.00    +0.000 A 
ATOM     21  C   UNL     1      -3.662  -9.797   9.842  0.00  0.00    +0.000 A 
ENDBRANCH  15  16
ENDBRANCH  14  15
TORSDOF 4
ENDMDL
MODEL 10
REMARK VINA RESULT:      -6.3      2.399      3.944
REMARK  Name = 51137385
REMARK  4 active torsions:
REMARK  status: ('A' for Active; 'I' for Inactive)
REMARK    1  A    between atoms: N_2  and  C_5
REMARK    2  A    between atoms: C_10  and  C_13
REMARK    3  A    between atoms: C_14  and  C_15
REMARK    4  A    between atoms: C_15  and  C_16
REMARK                            x       y       z     vdW  Elec       q    Type
REMARK                         _______ _______ _______ _____ _____    ______ ____
ROOT
ATOM      1  O   UNL     1      13.604   7.145  20.359  0.00  0.00    -0.424 OA
ATOM      3  N   UNL     1      14.603   7.598  18.409  0.00  0.00    -0.112 NA
ATOM      4  N   UNL     1      13.342   8.166  18.386  0.00  0.00    -0.112 NA
ATOM     13  C   UNL     1      14.712   7.013  19.578  0.00  0.00    +0.222 A 
ATOM     14  C   UNL     1      12.797   7.875  19.543  0.00  0.00    +0.222 A 
ENDROOT
BRANCH  13  10
ATOM      2  N   UNL     1      17.981   6.483  21.150  0.00  0.00    -0.299 NA
ATOM      9  C   UNL     1      16.616   7.005  21.259  0.00  0.00    +0.097 C 
ATOM     10  C   UNL     1      15.869   6.235  20.162  0.00  0.00    +0.092 C 
ATOM     11  C   UNL     1      18.249   6.430  19.713  0.00  0.00    +0.085 C 
ATOM     12  C   UNL     1      16.961   5.844  19.149  0.00  0.00    +0.029 C 
BRANCH   2   5
ATOM      5  C   UNL     1      18.934   7.373  21.824  0.00  0.00    +0.057 C 
ATOM      6  C   UNL     1      20.198   7.533  20.953  0.00  0.00    +0.019 C 
ATOM      7  C   UNL     1      19.804   6.554  22.800  0.00  0.00    +0.019 C 
ATOM      8  C   UNL     1      21.020   7.324  22.241  0.00  0.00    +0.003 C 
ENDBRANCH   2   5
ENDBRANCH  13  10
BRANCH  14  15
ATOM     15  C   UNL     1      11.469   8.226  20.066  0.00  0.00    +0.132 C 
BRANCH  15  16
ATOM     16  C   UNL     1      11.456   9.402  21.037  0.00  0.00    -0.038 A 
ATOM     17  C   UNL     1      12.089  10.596  20.694  0.00  0.00    +0.004 A 
ATOM     18  C   UNL     1      10.811   9.282  22.268  0.00  0.00    +0.004 A 
ATOM     19  C   UNL     1      12.078  11.672  21.583  0.00  0.00    +0.000 A 
ATOM     20  C   UNL     1      10.800  10.357  23.156  0.00  0.00    +0.000 A 
ATOM     21  C   UNL     1      11.433  11.552  22.814  0.00  0.00    +0.000 A 
ENDBRANCH  15  16
ENDBRANCH  14  15
TORSDOF 4
ENDMDL
