MODEL 1
REMARK VINA RESULT:      -7.0      0.000      0.000
REMARK  Name = 7049032
REMARK  13 active torsions:
REMARK  status: ('A' for Active; 'I' for Inactive)
REMARK    1  A    between atoms: O_1  and  C_11
REMARK    2  A    between atoms: O_2  and  C_12
REMARK    3  A    between atoms: N_7  and  C_13
REMARK    4  A    between atoms: N_8  and  C_17
REMARK    5  A    between atoms: N_9  and  C_25
REMARK    6  A    between atoms: C_15  and  C_18
REMARK    7  A    between atoms: C_17  and  C_19
REMARK    8  A    between atoms: C_17  and  C_24
REMARK    9  A    between atoms: C_19  and  C_20
REMARK   10  A    between atoms: C_20  and  C_22
REMARK   11  A    between atoms: C_20  and  C_23
REMARK   12  A    between atoms: C_30  and  C_31
REMARK   13  A    between atoms: C_31  and  C_32
REMARK                            x       y       z     vdW  Elec       q    Type
REMARK                         _______ _______ _______ _____ _____    ______ ____
ROOT
ATOM     11  C   UNL     1      12.245   6.947  20.703  0.00  0.00    +0.167 C 
ATOM     12  C   UNL     1      10.909   7.678  20.522  0.00  0.00    +0.149 C 
ATOM     13  C   UNL     1      13.397   7.934  20.972  0.00  0.00    +0.129 C 
ATOM     14  C   UNL     1      10.572   8.575  21.725  0.00  0.00    +0.074 C 
ATOM     15  C   UNL     1      11.769   9.281  22.296  0.00  0.00    +0.015 C 
ATOM     16  C   UNL     1      13.039   9.010  21.961  0.00  0.00    +0.006 C 
ENDROOT
BRANCH  13   7
ATOM      4  O   UNL     1      16.068   8.317  20.015  0.00  0.00    -0.252 OA
ATOM      7  N   UNL     1      14.583   7.254  21.431  0.00  0.00    -0.290 N 
ATOM      9  N   UNL     1      16.808   6.698  21.544  0.00  0.00    -0.269 N 
ATOM     21  C   UNL     1      15.858   7.501  20.908  0.00  0.00    +0.304 C 
ATOM     33  H   UNL     1      14.486   6.529  22.136  0.00  0.00    +0.151 HD
ATOM     37  H   UNL     1      16.465   6.072  22.268  0.00  0.00    +0.156 HD
BRANCH   9  25
ATOM     25  C   UNL     1      18.202   6.648  21.306  0.00  0.00    +0.035 A 
ATOM     26  C   UNL     1      18.716   5.648  20.496  0.00  0.00    +0.024 A 
ATOM     27  C   UNL     1      19.023   7.602  21.885  0.00  0.00    +0.024 A 
ATOM     28  C   UNL     1      20.090   5.601  20.259  0.00  0.00    +0.013 A 
ATOM     29  C   UNL     1      20.397   7.554  21.649  0.00  0.00    +0.013 A 
ATOM     30  C   UNL     1      20.930   6.553  20.836  0.00  0.00    +0.017 A 
BRANCH  30  31
ATOM      6  O   UNL     1      23.041   7.542  20.478  0.00  0.00    -0.292 OA
ATOM     31  C   UNL     1      22.363   6.503  20.590  0.00  0.00    +0.160 C 
ATOM     32  C   UNL     1      23.074   5.159  20.464  0.00  0.00    +0.091 C 
ENDBRANCH  30  31
ENDBRANCH   9  25
ENDBRANCH  13   7
BRANCH  15  18
ATOM      3  O   UNL     1      10.404  10.616  23.652  0.00  0.00    -0.271 OA
ATOM      8  N   UNL     1      12.707  10.980  23.664  0.00  0.00    -0.300 N 
ATOM     18  C   UNL     1      11.539  10.352  23.269  0.00  0.00    +0.241 C 
ATOM     34  H   UNL     1      13.607  10.600  23.399  0.00  0.00    +0.150 HD
BRANCH   8  17
ATOM     17  C   UNL     1      12.733  12.065  24.610  0.00  0.00    +0.159 C 
BRANCH  17  24
ATOM      5  O   UNL     1      14.984  12.910  24.973  0.00  0.00    -0.274 OA
ATOM     10  N   UNL     1      14.292  11.079  26.174  0.00  0.00    -0.328 N 
ATOM     24  C   UNL     1      14.121  12.076  25.237  0.00  0.00    +0.231 C 
ATOM     38  H   UNL     1      13.561  10.410  26.399  0.00  0.00    +0.145 HD
ATOM     39  H   UNL     1      15.167  10.982  26.678  0.00  0.00    +0.145 HD
ENDBRANCH  17  24
BRANCH  17  19
ATOM     19  C   UNL     1      12.436  13.419  23.952  0.00  0.00    +0.034 C 
BRANCH  19  20
ATOM     20  C   UNL     1      11.145  14.106  24.441  0.00  0.00    -0.015 C 
ATOM     22  C   UNL     1      10.042  14.096  23.381  0.00  0.00    +0.007 C 
ATOM     23  C   UNL     1      10.642  13.417  25.712  0.00  0.00    +0.007 C 
ENDBRANCH  19  20
ENDBRANCH  17  19
ENDBRANCH   8  17
ENDBRANCH  15  18
BRANCH  11   1
ATOM      1  O   UNL     1      12.126   6.038  21.799  0.00  0.00    -0.387 OA
ATOM     35  H   UNL     1      12.618   6.418  22.546  0.00  0.00    +0.210 HD
ENDBRANCH  11   1
BRANCH  12   2
ATOM      2  O   UNL     1      10.931   8.453  19.325  0.00  0.00    -0.389 OA
ATOM     36  H   UNL     1      10.868   9.389  19.581  0.00  0.00    +0.210 HD
ENDBRANCH  12   2
TORSDOF 10
ENDMDL
MODEL 2
REMARK VINA RESULT:      -6.9      3.924     11.705
REMARK  Name = 7049032
REMARK  13 active torsions:
REMARK  status: ('A' for Active; 'I' for Inactive)
REMARK    1  A    between atoms: O_1  and  C_11
REMARK    2  A    between atoms: O_2  and  C_12
REMARK    3  A    between atoms: N_7  and  C_13
REMARK    4  A    between atoms: N_8  and  C_17
REMARK    5  A    between atoms: N_9  and  C_25
REMARK    6  A    between atoms: C_15  and  C_18
REMARK    7  A    between atoms: C_17  and  C_19
REMARK    8  A    between atoms: C_17  and  C_24
REMARK    9  A    between atoms: C_19  and  C_20
REMARK   10  A    between atoms: C_20  and  C_22
REMARK   11  A    between atoms: C_20  and  C_23
REMARK   12  A    between atoms: C_30  and  C_31
REMARK   13  A    between atoms: C_31  and  C_32
REMARK                            x       y       z     vdW  Elec       q    Type
REMARK                         _______ _______ _______ _____ _____    ______ ____
ROOT
ATOM     11  C   UNL     1      20.495   7.453  23.804  0.00  0.00    +0.167 C 
ATOM     12  C   UNL     1      22.015   7.516  23.999  0.00  0.00    +0.149 C 
ATOM     13  C   UNL     1      20.125   6.830  22.445  0.00  0.00    +0.129 C 
ATOM     14  C   UNL     1      22.676   6.135  23.849  0.00  0.00    +0.074 C 
ATOM     15  C   UNL     1      22.070   5.300  22.756  0.00  0.00    +0.015 C 
ATOM     16  C   UNL     1      20.933   5.604  22.113  0.00  0.00    +0.006 C 
ENDROOT
BRANCH  13   7
ATOM      4  O   UNL     1      18.136   8.122  20.840  0.00  0.00    -0.252 OA
ATOM      7  N   UNL     1      18.723   6.498  22.376  0.00  0.00    -0.290 N 
ATOM      9  N   UNL     1      16.533   6.640  21.701  0.00  0.00    -0.269 N 
ATOM     21  C   UNL     1      17.814   7.182  21.562  0.00  0.00    +0.304 C 
ATOM     33  H   UNL     1      18.368   5.761  22.978  0.00  0.00    +0.151 HD
ATOM     37  H   UNL     1      16.436   5.858  22.344  0.00  0.00    +0.156 HD
BRANCH   9  25
ATOM     25  C   UNL     1      15.343   7.047  21.054  0.00  0.00    +0.035 A 
ATOM     26  C   UNL     1      15.197   6.819  19.695  0.00  0.00    +0.024 A 
ATOM     27  C   UNL     1      14.346   7.663  21.793  0.00  0.00    +0.024 A 
ATOM     28  C   UNL     1      14.022   7.218  19.057  0.00  0.00    +0.013 A 
ATOM     29  C   UNL     1      13.171   8.064  21.155  0.00  0.00    +0.013 A 
ATOM     30  C   UNL     1      13.010   7.841  19.787  0.00  0.00    +0.017 A 
BRANCH  30  31
ATOM      6  O   UNL     1      10.705   8.337  19.738  0.00  0.00    -0.292 OA
ATOM     31  C   UNL     1      11.786   8.259  19.123  0.00  0.00    +0.160 C 
ATOM     32  C   UNL     1      11.800   8.615  17.640  0.00  0.00    +0.091 C 
ENDBRANCH  30  31
ENDBRANCH   9  25
ENDBRANCH  13   7
BRANCH  15  18
ATOM      3  O   UNL     1      22.437   2.988  22.786  0.00  0.00    -0.271 OA
ATOM      8  N   UNL     1      23.805   4.330  21.458  0.00  0.00    -0.300 N 
ATOM     18  C   UNL     1      22.775   4.082  22.347  0.00  0.00    +0.241 C 
ATOM     34  H   UNL     1      23.917   5.249  21.047  0.00  0.00    +0.150 HD
BRANCH   8  17
ATOM     17  C   UNL     1      24.642   3.290  20.917  0.00  0.00    +0.159 C 
BRANCH  17  24
ATOM      5  O   UNL     1      25.784   4.769  19.361  0.00  0.00    -0.274 OA
ATOM     10  N   UNL     1      24.729   2.904  18.531  0.00  0.00    -0.328 N 
ATOM     24  C   UNL     1      25.107   3.760  19.545  0.00  0.00    +0.231 C 
ATOM     38  H   UNL     1      24.188   2.062  18.701  0.00  0.00    +0.145 HD
ATOM     39  H   UNL     1      24.986   3.093  17.569  0.00  0.00    +0.145 HD
ENDBRANCH  17  24
BRANCH  17  19
ATOM     19  C   UNL     1      25.850   2.991  21.814  0.00  0.00    +0.034 C 
BRANCH  19  20
ATOM     20  C   UNL     1      25.886   1.562  22.394  0.00  0.00    -0.015 C 
ATOM     22  C   UNL     1      25.632   1.538  23.901  0.00  0.00    +0.007 C 
ATOM     23  C   UNL     1      24.849   0.689  21.683  0.00  0.00    +0.007 C 
ENDBRANCH  19  20
ENDBRANCH  17  19
ENDBRANCH   8  17
ENDBRANCH  15  18
BRANCH  11   1
ATOM      1  O   UNL     1      19.928   6.673  24.859  0.00  0.00    -0.387 OA
ATOM     35  H   UNL     1      20.630   6.094  25.202  0.00  0.00    +0.210 HD
ENDBRANCH  11   1
BRANCH  12   2
ATOM      2  O   UNL     1      22.591   8.437  23.076  0.00  0.00    -0.389 OA
ATOM     36  H   UNL     1      23.312   8.900  23.535  0.00  0.00    +0.210 HD
ENDBRANCH  12   2
TORSDOF 10
ENDMDL
MODEL 3
REMARK VINA RESULT:      -6.9     27.143     30.922
REMARK  Name = 7049032
REMARK  13 active torsions:
REMARK  status: ('A' for Active; 'I' for Inactive)
REMARK    1  A    between atoms: O_1  and  C_11
REMARK    2  A    between atoms: O_2  and  C_12
REMARK    3  A    between atoms: N_7  and  C_13
REMARK    4  A    between atoms: N_8  and  C_17
REMARK    5  A    between atoms: N_9  and  C_25
REMARK    6  A    between atoms: C_15  and  C_18
REMARK    7  A    between atoms: C_17  and  C_19
REMARK    8  A    between atoms: C_17  and  C_24
REMARK    9  A    between atoms: C_19  and  C_20
REMARK   10  A    between atoms: C_20  and  C_22
REMARK   11  A    between atoms: C_20  and  C_23
REMARK   12  A    between atoms: C_30  and  C_31
REMARK   13  A    between atoms: C_31  and  C_32
REMARK                            x       y       z     vdW  Elec       q    Type
REMARK                         _______ _______ _______ _____ _____    ______ ____
ROOT
ATOM     11  C   UNL     1     -17.275   5.561  22.449  0.00  0.00    +0.167 C 
ATOM     12  C   UNL     1     -17.059   5.835  20.955  0.00  0.00    +0.149 C 
ATOM     13  C   UNL     1     -16.156   4.674  23.028  0.00  0.00    +0.129 C 
ATOM     14  C   UNL     1     -15.683   6.462  20.675  0.00  0.00    +0.074 C 
ATOM     15  C   UNL     1     -14.583   5.891  21.523  0.00  0.00    +0.015 C 
ATOM     16  C   UNL     1     -14.780   5.081  22.574  0.00  0.00    +0.006 C 
ENDROOT
BRANCH  13   7
ATOM      4  O   UNL     1     -15.715   2.406  24.719  0.00  0.00    -0.252 OA
ATOM      7  N   UNL     1     -16.185   4.655  24.470  0.00  0.00    -0.290 N 
ATOM      9  N   UNL     1     -16.049   3.783  26.590  0.00  0.00    -0.269 N 
ATOM     21  C   UNL     1     -15.957   3.498  25.224  0.00  0.00    +0.304 C 
ATOM     33  H   UNL     1     -16.426   5.510  24.963  0.00  0.00    +0.151 HD
ATOM     37  H   UNL     1     -16.257   4.746  26.842  0.00  0.00    +0.156 HD
BRANCH   9  25
ATOM     25  C   UNL     1     -15.885   2.891  27.676  0.00  0.00    +0.035 A 
ATOM     26  C   UNL     1     -15.143   3.289  28.776  0.00  0.00    +0.024 A 
ATOM     27  C   UNL     1     -16.472   1.637  27.617  0.00  0.00    +0.024 A 
ATOM     28  C   UNL     1     -14.984   2.410  29.847  0.00  0.00    +0.013 A 
ATOM     29  C   UNL     1     -16.312   0.757  28.687  0.00  0.00    +0.013 A 
ATOM     30  C   UNL     1     -15.567   1.145  29.802  0.00  0.00    +0.017 A 
BRANCH  30  31
ATOM      6  O   UNL     1     -15.768  -0.962  30.845  0.00  0.00    -0.292 OA
ATOM     31  C   UNL     1     -15.400   0.227  30.918  0.00  0.00    +0.160 C 
ATOM     32  C   UNL     1     -14.763   0.706  32.218  0.00  0.00    +0.091 C 
ENDBRANCH  30  31
ENDBRANCH   9  25
ENDBRANCH  13   7
BRANCH  15  18
ATOM      3  O   UNL     1     -12.262   5.694  21.763  0.00  0.00    -0.271 OA
ATOM      8  N   UNL     1     -13.110   7.142  20.144  0.00  0.00    -0.300 N 
ATOM     18  C   UNL     1     -13.199   6.219  21.170  0.00  0.00    +0.241 C 
ATOM     34  H   UNL     1     -13.936   7.411  19.624  0.00  0.00    +0.150 HD
BRANCH   8  17
ATOM     17  C   UNL     1     -11.854   7.621  19.627  0.00  0.00    +0.159 C 
BRANCH  17  24
ATOM      5  O   UNL     1     -13.094   8.118  17.594  0.00  0.00    -0.274 OA
ATOM     10  N   UNL     1     -10.857   7.624  17.423  0.00  0.00    -0.328 N 
ATOM     24  C   UNL     1     -12.031   7.803  18.125  0.00  0.00    +0.231 C 
ATOM     38  H   UNL     1      -9.981   7.385  17.878  0.00  0.00    +0.145 HD
ATOM     39  H   UNL     1     -10.832   7.729  16.415  0.00  0.00    +0.145 HD
ENDBRANCH  17  24
BRANCH  17  19
ATOM     19  C   UNL     1     -11.424   8.943  20.274  0.00  0.00    +0.034 C 
BRANCH  19  20
ATOM     20  C   UNL     1     -12.580   9.918  20.582  0.00  0.00    -0.015 C 
ATOM     22  C   UNL     1     -12.761  10.154  22.082  0.00  0.00    +0.007 C 
ATOM     23  C   UNL     1     -12.329  11.254  19.877  0.00  0.00    +0.007 C 
ENDBRANCH  19  20
ENDBRANCH  17  19
ENDBRANCH   8  17
ENDBRANCH  15  18
BRANCH  11   1
ATOM      1  O   UNL     1     -17.307   6.808  23.145  0.00  0.00    -0.387 OA
ATOM     35  H   UNL     1     -17.426   6.611  24.089  0.00  0.00    +0.210 HD
ENDBRANCH  11   1
BRANCH  12   2
ATOM      2  O   UNL     1     -17.209   4.629  20.208  0.00  0.00    -0.389 OA
ATOM     36  H   UNL     1     -17.218   3.892  20.842  0.00  0.00    +0.210 HD
ENDBRANCH  12   2
TORSDOF 10
ENDMDL
MODEL 4
REMARK VINA RESULT:      -6.5      1.666      2.310
REMARK  Name = 7049032
REMARK  13 active torsions:
REMARK  status: ('A' for Active; 'I' for Inactive)
REMARK    1  A    between atoms: O_1  and  C_11
REMARK    2  A    between atoms: O_2  and  C_12
REMARK    3  A    between atoms: N_7  and  C_13
REMARK    4  A    between atoms: N_8  and  C_17
REMARK    5  A    between atoms: N_9  and  C_25
REMARK    6  A    between atoms: C_15  and  C_18
REMARK    7  A    between atoms: C_17  and  C_19
REMARK    8  A    between atoms: C_17  and  C_24
REMARK    9  A    between atoms: C_19  and  C_20
REMARK   10  A    between atoms: C_20  and  C_22
REMARK   11  A    between atoms: C_20  and  C_23
REMARK   12  A    between atoms: C_30  and  C_31
REMARK   13  A    between atoms: C_31  and  C_32
REMARK                            x       y       z     vdW  Elec       q    Type
REMARK                         _______ _______ _______ _____ _____    ______ ____
ROOT
ATOM     11  C   UNL     1      13.068   7.156  20.413  0.00  0.00    +0.167 C 
ATOM     12  C   UNL     1      11.716   7.649  19.882  0.00  0.00    +0.149 C 
ATOM     13  C   UNL     1      14.116   8.285  20.426  0.00  0.00    +0.129 C 
ATOM     14  C   UNL     1      11.188   8.855  20.676  0.00  0.00    +0.074 C 
ATOM     15  C   UNL     1      12.265   9.826  21.072  0.00  0.00    +0.015 C 
ATOM     16  C   UNL     1      13.580   9.587  20.957  0.00  0.00    +0.006 C 
ENDROOT
BRANCH  13   7
ATOM      4  O   UNL     1      16.494   7.046  19.421  0.00  0.00    -0.252 OA
ATOM      7  N   UNL     1      15.285   7.917  21.188  0.00  0.00    -0.290 N 
ATOM      9  N   UNL     1      17.382   7.074  21.594  0.00  0.00    -0.269 N 
ATOM     21  C   UNL     1      16.411   7.313  20.617  0.00  0.00    +0.304 C 
ATOM     33  H   UNL     1      15.276   8.062  22.194  0.00  0.00    +0.151 HD
ATOM     37  H   UNL     1      17.153   7.357  22.543  0.00  0.00    +0.156 HD
BRANCH   9  25
ATOM     25  C   UNL     1      18.656   6.482  21.425  0.00  0.00    +0.035 A 
ATOM     26  C   UNL     1      19.661   6.762  22.336  0.00  0.00    +0.024 A 
ATOM     27  C   UNL     1      18.870   5.631  20.353  0.00  0.00    +0.024 A 
ATOM     28  C   UNL     1      20.916   6.176  22.171  0.00  0.00    +0.013 A 
ATOM     29  C   UNL     1      20.126   5.046  20.186  0.00  0.00    +0.013 A 
ATOM     30  C   UNL     1      21.148   5.319  21.096  0.00  0.00    +0.017 A 
BRANCH  30  31
ATOM      6  O   UNL     1      23.417   5.350  20.451  0.00  0.00    -0.292 OA
ATOM     31  C   UNL     1      22.457   4.709  20.922  0.00  0.00    +0.160 C 
ATOM     32  C   UNL     1      22.685   3.253  21.317  0.00  0.00    +0.091 C 
ENDBRANCH  30  31
ENDBRANCH   9  25
ENDBRANCH  13   7
BRANCH  15  18
ATOM      3  O   UNL     1      11.609  12.062  20.840  0.00  0.00    -0.271 OA
ATOM      8  N   UNL     1      11.798  11.157  22.981  0.00  0.00    -0.300 N 
ATOM     18  C   UNL     1      11.857  11.131  21.599  0.00  0.00    +0.241 C 
ATOM     34  H   UNL     1      11.885  10.301  23.514  0.00  0.00    +0.150 HD
BRANCH   8  17
ATOM     17  C   UNL     1      11.424  12.331  23.728  0.00  0.00    +0.159 C 
BRANCH  17  24
ATOM      5  O   UNL     1      11.173  10.715  25.528  0.00  0.00    -0.274 OA
ATOM     10  N   UNL     1      10.493  12.879  25.892  0.00  0.00    -0.328 N 
ATOM     24  C   UNL     1      11.015  11.863  25.118  0.00  0.00    +0.231 C 
ATOM     38  H   UNL     1      10.389  13.828  25.547  0.00  0.00    +0.145 HD
ATOM     39  H   UNL     1      10.193  12.705  26.845  0.00  0.00    +0.145 HD
ENDBRANCH  17  24
BRANCH  17  19
ATOM     19  C   UNL     1      12.569  13.348  23.825  0.00  0.00    +0.034 C 
BRANCH  19  20
ATOM     20  C   UNL     1      13.956  12.734  24.106  0.00  0.00    -0.015 C 
ATOM     22  C   UNL     1      14.945  12.983  22.967  0.00  0.00    +0.007 C 
ATOM     23  C   UNL     1      14.519  13.306  25.410  0.00  0.00    +0.007 C 
ENDBRANCH  19  20
ENDBRANCH  17  19
ENDBRANCH   8  17
ENDBRANCH  15  18
BRANCH  11   1
ATOM      1  O   UNL     1      12.886   6.654  21.739  0.00  0.00    -0.387 OA
ATOM     35  H   UNL     1      11.943   6.444  21.843  0.00  0.00    +0.210 HD
ENDBRANCH  11   1
BRANCH  12   2
ATOM      2  O   UNL     1      11.824   7.981  18.500  0.00  0.00    -0.389 OA
ATOM     36  H   UNL     1      12.760   7.899  18.250  0.00  0.00    +0.210 HD
ENDBRANCH  12   2
TORSDOF 10
ENDMDL
MODEL 5
REMARK VINA RESULT:      -6.4      3.656      6.056
REMARK  Name = 7049032
REMARK  13 active torsions:
REMARK  status: ('A' for Active; 'I' for Inactive)
REMARK    1  A    between atoms: O_1  and  C_11
REMARK    2  A    between atoms: O_2  and  C_12
REMARK    3  A    between atoms: N_7  and  C_13
REMARK    4  A    between atoms: N_8  and  C_17
REMARK    5  A    between atoms: N_9  and  C_25
REMARK    6  A    between atoms: C_15  and  C_18
REMARK    7  A    between atoms: C_17  and  C_19
REMARK    8  A    between atoms: C_17  and  C_24
REMARK    9  A    between atoms: C_19  and  C_20
REMARK   10  A    between atoms: C_20  and  C_22
REMARK   11  A    between atoms: C_20  and  C_23
REMARK   12  A    between atoms: C_30  and  C_31
REMARK   13  A    between atoms: C_31  and  C_32
REMARK                            x       y       z     vdW  Elec       q    Type
REMARK                         _______ _______ _______ _____ _____    ______ ____
ROOT
ATOM     11  C   UNL     1      18.127  10.278  21.649  0.00  0.00    +0.167 C 
ATOM     12  C   UNL     1      16.728  10.893  21.781  0.00  0.00    +0.149 C 
ATOM     13  C   UNL     1      18.082   8.742  21.758  0.00  0.00    +0.129 C 
ATOM     14  C   UNL     1      15.743  10.315  20.752  0.00  0.00    +0.074 C 
ATOM     15  C   UNL     1      15.921   8.842  20.516  0.00  0.00    +0.015 C 
ATOM     16  C   UNL     1      16.960   8.123  20.969  0.00  0.00    +0.006 C 
ENDROOT
BRANCH  13   7
ATOM      4  O   UNL     1      19.153   6.238  22.641  0.00  0.00    -0.252 OA
ATOM      7  N   UNL     1      19.328   8.143  21.345  0.00  0.00    -0.290 N 
ATOM      9  N   UNL     1      21.012   6.586  21.251  0.00  0.00    -0.269 N 
ATOM     21  C   UNL     1      19.781   6.910  21.827  0.00  0.00    +0.304 C 
ATOM     33  H   UNL     1      19.929   8.660  20.708  0.00  0.00    +0.151 HD
ATOM     37  H   UNL     1      21.397   7.255  20.591  0.00  0.00    +0.156 HD
BRANCH   9  25
ATOM     25  C   UNL     1      21.798   5.430  21.475  0.00  0.00    +0.035 A 
ATOM     26  C   UNL     1      21.405   4.224  20.918  0.00  0.00    +0.024 A 
ATOM     27  C   UNL     1      22.945   5.529  22.245  0.00  0.00    +0.024 A 
ATOM     28  C   UNL     1      22.181   3.085  21.137  0.00  0.00    +0.013 A 
ATOM     29  C   UNL     1      23.720   4.391  22.465  0.00  0.00    +0.013 A 
ATOM     30  C   UNL     1      23.338   3.169  21.910  0.00  0.00    +0.017 A 
BRANCH  30  31
ATOM      6  O   UNL     1      24.957   1.571  21.288  0.00  0.00    -0.292 OA
ATOM     31  C   UNL     1      24.146   1.982  22.140  0.00  0.00    +0.160 C 
ATOM     32  C   UNL     1      24.016   1.205  23.447  0.00  0.00    +0.091 C 
ENDBRANCH  30  31
ENDBRANCH   9  25
ENDBRANCH  13   7
BRANCH  15  18
ATOM      3  O   UNL     1      15.150   7.590  18.694  0.00  0.00    -0.271 OA
ATOM      8  N   UNL     1      13.650   8.164  20.384  0.00  0.00    -0.300 N 
ATOM     18  C   UNL     1      14.885   8.133  19.761  0.00  0.00    +0.241 C 
ATOM     34  H   UNL     1      13.562   8.516  21.329  0.00  0.00    +0.150 HD
BRANCH   8  17
ATOM     17  C   UNL     1      12.477   7.538  19.831  0.00  0.00    +0.159 C 
BRANCH  17  24
ATOM      5  O   UNL     1      11.388   7.611  22.004  0.00  0.00    -0.274 OA
ATOM     10  N   UNL     1      11.284   5.665  20.789  0.00  0.00    -0.328 N 
ATOM     24  C   UNL     1      11.683   6.968  20.999  0.00  0.00    +0.231 C 
ATOM     38  H   UNL     1      11.516   5.153  19.943  0.00  0.00    +0.145 HD
ATOM     39  H   UNL     1      10.736   5.170  21.483  0.00  0.00    +0.145 HD
ENDBRANCH  17  24
BRANCH  17  19
ATOM     19  C   UNL     1      11.614   8.523  19.032  0.00  0.00    +0.034 C 
BRANCH  19  20
ATOM     20  C   UNL     1      11.861   8.512  17.510  0.00  0.00    -0.015 C 
ATOM     22  C   UNL     1      10.561   8.576  16.707  0.00  0.00    +0.007 C 
ATOM     23  C   UNL     1      12.762   9.689  17.124  0.00  0.00    +0.007 C 
ENDBRANCH  19  20
ENDBRANCH  17  19
ENDBRANCH   8  17
ENDBRANCH  15  18
BRANCH  11   1
ATOM      1  O   UNL     1      18.676  10.654  20.384  0.00  0.00    -0.387 OA
ATOM     35  H   UNL     1      19.238   9.921  20.082  0.00  0.00    +0.210 HD
ENDBRANCH  11   1
BRANCH  12   2
ATOM      2  O   UNL     1      16.228  10.696  23.102  0.00  0.00    -0.389 OA
ATOM     36  H   UNL     1      16.746  11.262  23.699  0.00  0.00    +0.210 HD
ENDBRANCH  12   2
TORSDOF 10
ENDMDL
MODEL 6
REMARK VINA RESULT:      -6.3      5.487      6.862
REMARK  Name = 7049032
REMARK  13 active torsions:
REMARK  status: ('A' for Active; 'I' for Inactive)
REMARK    1  A    between atoms: O_1  and  C_11
REMARK    2  A    between atoms: O_2  and  C_12
REMARK    3  A    between atoms: N_7  and  C_13
REMARK    4  A    between atoms: N_8  and  C_17
REMARK    5  A    between atoms: N_9  and  C_25
REMARK    6  A    between atoms: C_15  and  C_18
REMARK    7  A    between atoms: C_17  and  C_19
REMARK    8  A    between atoms: C_17  and  C_24
REMARK    9  A    between atoms: C_19  and  C_20
REMARK   10  A    between atoms: C_20  and  C_22
REMARK   11  A    between atoms: C_20  and  C_23
REMARK   12  A    between atoms: C_30  and  C_31
REMARK   13  A    between atoms: C_31  and  C_32
REMARK                            x       y       z     vdW  Elec       q    Type
REMARK                         _______ _______ _______ _____ _____    ______ ____
ROOT
ATOM     11  C   UNL     1      13.845   7.781  19.187  0.00  0.00    +0.167 C 
ATOM     12  C   UNL     1      13.217   6.882  20.260  0.00  0.00    +0.149 C 
ATOM     13  C   UNL     1      12.937   8.980  18.853  0.00  0.00    +0.129 C 
ATOM     14  C   UNL     1      12.873   7.662  21.539  0.00  0.00    +0.074 C 
ATOM     15  C   UNL     1      12.334   9.039  21.272  0.00  0.00    +0.015 C 
ATOM     16  C   UNL     1      12.348   9.638  20.072  0.00  0.00    +0.006 C 
ENDROOT
BRANCH  13   7
ATOM      4  O   UNL     1      12.841   9.312  16.010  0.00  0.00    -0.252 OA
ATOM      7  N   UNL     1      13.635   9.976  18.077  0.00  0.00    -0.290 N 
ATOM      9  N   UNL     1      14.316  11.126  16.210  0.00  0.00    -0.269 N 
ATOM     21  C   UNL     1      13.533  10.071  16.684  0.00  0.00    +0.304 C 
ATOM     33  H   UNL     1      14.265  10.612  18.556  0.00  0.00    +0.151 HD
ATOM     37  H   UNL     1      14.831  11.660  16.906  0.00  0.00    +0.156 HD
BRANCH   9  25
ATOM     25  C   UNL     1      14.484  11.550  14.871  0.00  0.00    +0.035 A 
ATOM     26  C   UNL     1      13.481  12.285  14.261  0.00  0.00    +0.024 A 
ATOM     27  C   UNL     1      15.650  11.221  14.197  0.00  0.00    +0.024 A 
ATOM     28  C   UNL     1      13.648  12.705  12.941  0.00  0.00    +0.013 A 
ATOM     29  C   UNL     1      15.816  11.639  12.877  0.00  0.00    +0.013 A 
ATOM     30  C   UNL     1      14.815  12.381  12.249  0.00  0.00    +0.017 A 
BRANCH  30  31
ATOM      6  O   UNL     1      14.022  13.194  10.182  0.00  0.00    -0.292 OA
ATOM     31  C   UNL     1      14.989  12.816  10.872  0.00  0.00    +0.160 C 
ATOM     32  C   UNL     1      16.375  12.818  10.237  0.00  0.00    +0.091 C 
ENDBRANCH  30  31
ENDBRANCH   9  25
ENDBRANCH  13   7
BRANCH  15  18
ATOM      3  O   UNL     1      10.549   9.619  22.672  0.00  0.00    -0.271 OA
ATOM      8  N   UNL     1      12.631  10.607  23.030  0.00  0.00    -0.300 N 
ATOM     18  C   UNL     1      11.733   9.773  22.389  0.00  0.00    +0.241 C 
ATOM     34  H   UNL     1      13.619  10.560  22.811  0.00  0.00    +0.150 HD
BRANCH   8  17
ATOM     17  C   UNL     1      12.271  11.431  24.154  0.00  0.00    +0.159 C 
BRANCH  17  24
ATOM      5  O   UNL     1      13.510  12.082  26.143  0.00  0.00    -0.274 OA
ATOM     10  N   UNL     1      14.615  10.937  24.487  0.00  0.00    -0.328 N 
ATOM     24  C   UNL     1      13.506  11.545  25.037  0.00  0.00    +0.231 C 
ATOM     38  H   UNL     1      14.592  10.477  23.581  0.00  0.00    +0.145 HD
ATOM     39  H   UNL     1      15.502  10.928  24.978  0.00  0.00    +0.145 HD
ENDBRANCH  17  24
BRANCH  17  19
ATOM     19  C   UNL     1      11.795  12.825  23.725  0.00  0.00    +0.034 C 
BRANCH  19  20
ATOM     20  C   UNL     1      10.426  13.246  24.297  0.00  0.00    -0.015 C 
ATOM     22  C   UNL     1      10.531  13.787  25.723  0.00  0.00    +0.007 C 
ATOM     23  C   UNL     1       9.790  14.303  23.391  0.00  0.00    +0.007 C 
ENDBRANCH  19  20
ENDBRANCH  17  19
ENDBRANCH   8  17
ENDBRANCH  15  18
BRANCH  11   1
ATOM      1  O   UNL     1      15.107   8.253  19.663  0.00  0.00    -0.387 OA
ATOM     35  H   UNL     1      15.468   7.571  20.254  0.00  0.00    +0.210 HD
ENDBRANCH  11   1
BRANCH  12   2
ATOM      2  O   UNL     1      12.050   6.245  19.745  0.00  0.00    -0.389 OA
ATOM     36  H   UNL     1      11.310   6.470  20.335  0.00  0.00    +0.210 HD
ENDBRANCH  12   2
TORSDOF 10
ENDMDL
MODEL 7
REMARK VINA RESULT:      -6.3     27.378     31.268
REMARK  Name = 7049032
REMARK  13 active torsions:
REMARK  status: ('A' for Active; 'I' for Inactive)
REMARK    1  A    between atoms: O_1  and  C_11
REMARK    2  A    between atoms: O_2  and  C_12
REMARK    3  A    between atoms: N_7  and  C_13
REMARK    4  A    between atoms: N_8  and  C_17
REMARK    5  A    between atoms: N_9  and  C_25
REMARK    6  A    between atoms: C_15  and  C_18
REMARK    7  A    between atoms: C_17  and  C_19
REMARK    8  A    between atoms: C_17  and  C_24
REMARK    9  A    between atoms: C_19  and  C_20
REMARK   10  A    between atoms: C_20  and  C_22
REMARK   11  A    between atoms: C_20  and  C_23
REMARK   12  A    between atoms: C_30  and  C_31
REMARK   13  A    between atoms: C_31  and  C_32
REMARK                            x       y       z     vdW  Elec       q    Type
REMARK                         _______ _______ _______ _____ _____    ______ ____
ROOT
ATOM     11  C   UNL     1      -6.721 -11.159  17.768  0.00  0.00    +0.167 C 
ATOM     12  C   UNL     1      -5.616 -12.006  18.411  0.00  0.00    +0.149 C 
ATOM     13  C   UNL     1      -6.165  -9.837  17.206  0.00  0.00    +0.129 C 
ATOM     14  C   UNL     1      -4.460 -12.286  17.436  0.00  0.00    +0.074 C 
ATOM     15  C   UNL     1      -4.124 -11.115  16.557  0.00  0.00    +0.015 C 
ATOM     16  C   UNL     1      -4.874 -10.008  16.451  0.00  0.00    +0.006 C 
ENDROOT
BRANCH  13   7
ATOM      4  O   UNL     1      -8.918  -9.315  17.798  0.00  0.00    -0.252 OA
ATOM      7  N   UNL     1      -7.121  -9.178  16.351  0.00  0.00    -0.290 N 
ATOM      9  N   UNL     1      -9.140  -8.302  15.693  0.00  0.00    -0.269 N 
ATOM     21  C   UNL     1      -8.454  -8.960  16.717  0.00  0.00    +0.304 C 
ATOM     33  H   UNL     1      -6.828  -8.896  15.419  0.00  0.00    +0.151 HD
ATOM     37  H   UNL     1      -8.605  -8.079  14.857  0.00  0.00    +0.156 HD
BRANCH   9  25
ATOM     25  C   UNL     1     -10.497  -7.904  15.672  0.00  0.00    +0.035 A 
ATOM     26  C   UNL     1     -11.474  -8.836  15.361  0.00  0.00    +0.024 A 
ATOM     27  C   UNL     1     -10.822  -6.590  15.967  0.00  0.00    +0.024 A 
ATOM     28  C   UNL     1     -12.812  -8.444  15.343  0.00  0.00    +0.013 A 
ATOM     29  C   UNL     1     -12.161  -6.197  15.949  0.00  0.00    +0.013 A 
ATOM     30  C   UNL     1     -13.155  -7.125  15.637  0.00  0.00    +0.017 A 
BRANCH  30  31
ATOM      6  O   UNL     1     -15.270  -6.802  16.631  0.00  0.00    -0.292 OA
ATOM     31  C   UNL     1     -14.550  -6.715  15.617  0.00  0.00    +0.160 C 
ATOM     32  C   UNL     1     -15.170  -6.161  14.338  0.00  0.00    +0.091 C 
ENDBRANCH  30  31
ENDBRANCH   9  25
ENDBRANCH  13   7
BRANCH  15  18
ATOM      3  O   UNL     1      -1.856 -10.656  16.202  0.00  0.00    -0.271 OA
ATOM      8  N   UNL     1      -3.036 -11.840  14.576  0.00  0.00    -0.300 N 
ATOM     18  C   UNL     1      -2.885 -11.171  15.777  0.00  0.00    +0.241 C 
ATOM     34  H   UNL     1      -3.887 -12.351  14.378  0.00  0.00    +0.150 HD
BRANCH   8  17
ATOM     17  C   UNL     1      -1.958 -12.021  13.638  0.00  0.00    +0.159 C 
BRANCH  17  24
ATOM      5  O   UNL     1      -2.263 -14.391  14.089  0.00  0.00    -0.274 OA
ATOM     10  N   UNL     1      -0.215 -13.671  13.338  0.00  0.00    -0.328 N 
ATOM     24  C   UNL     1      -1.521 -13.477  13.736  0.00  0.00    +0.231 C 
ATOM     38  H   UNL     1       0.380 -12.909  13.028  0.00  0.00    +0.145 HD
ATOM     39  H   UNL     1       0.198 -14.598  13.342  0.00  0.00    +0.145 HD
ENDBRANCH  17  24
BRANCH  17  19
ATOM     19  C   UNL     1      -2.375 -11.687  12.201  0.00  0.00    +0.034 C 
BRANCH  19  20
ATOM     20  C   UNL     1      -2.460 -10.180  11.886  0.00  0.00    -0.015 C 
ATOM     22  C   UNL     1      -1.082  -9.548  11.682  0.00  0.00    +0.007 C 
ATOM     23  C   UNL     1      -3.316  -9.961  10.635  0.00  0.00    +0.007 C 
ENDBRANCH  19  20
ENDBRANCH  17  19
ENDBRANCH   8  17
ENDBRANCH  15  18
BRANCH  11   1
ATOM      1  O   UNL     1      -7.323 -11.913  16.713  0.00  0.00    -0.387 OA
ATOM     35  H   UNL     1      -8.099 -11.415  16.406  0.00  0.00    +0.210 HD
ENDBRANCH  11   1
BRANCH  12   2
ATOM      2  O   UNL     1      -5.123 -11.361  19.583  0.00  0.00    -0.389 OA
ATOM     36  H   UNL     1      -4.901 -10.446  19.342  0.00  0.00    +0.210 HD
ENDBRANCH  12   2
TORSDOF 10
ENDMDL
MODEL 8
REMARK VINA RESULT:      -6.3     26.539     31.212
REMARK  Name = 7049032
REMARK  13 active torsions:
REMARK  status: ('A' for Active; 'I' for Inactive)
REMARK    1  A    between atoms: O_1  and  C_11
REMARK    2  A    between atoms: O_2  and  C_12
REMARK    3  A    between atoms: N_7  and  C_13
REMARK    4  A    between atoms: N_8  and  C_17
REMARK    5  A    between atoms: N_9  and  C_25
REMARK    6  A    between atoms: C_15  and  C_18
REMARK    7  A    between atoms: C_17  and  C_19
REMARK    8  A    between atoms: C_17  and  C_24
REMARK    9  A    between atoms: C_19  and  C_20
REMARK   10  A    between atoms: C_20  and  C_22
REMARK   11  A    between atoms: C_20  and  C_23
REMARK   12  A    between atoms: C_30  and  C_31
REMARK   13  A    between atoms: C_31  and  C_32
REMARK                            x       y       z     vdW  Elec       q    Type
REMARK                         _______ _______ _______ _____ _____    ______ ____
ROOT
ATOM     11  C   UNL     1      -7.767 -11.861  18.187  0.00  0.00    +0.167 C 
ATOM     12  C   UNL     1      -6.665 -12.860  17.813  0.00  0.00    +0.149 C 
ATOM     13  C   UNL     1      -7.236 -10.415  18.209  0.00  0.00    +0.129 C 
ATOM     14  C   UNL     1      -6.005 -12.515  16.468  0.00  0.00    +0.074 C 
ATOM     15  C   UNL     1      -5.815 -11.040  16.257  0.00  0.00    +0.015 C 
ATOM     16  C   UNL     1      -6.354 -10.088  17.035  0.00  0.00    +0.006 C 
ENDROOT
BRANCH  13   7
ATOM      4  O   UNL     1      -8.817  -9.480  16.013  0.00  0.00    -0.252 OA
ATOM      7  N   UNL     1      -8.310  -9.455  18.268  0.00  0.00    -0.290 N 
ATOM      9  N   UNL     1     -10.011  -8.115  17.503  0.00  0.00    -0.269 N 
ATOM     21  C   UNL     1      -9.037  -9.050  17.142  0.00  0.00    +0.304 C 
ATOM     33  H   UNL     1      -8.523  -9.016  19.160  0.00  0.00    +0.151 HD
ATOM     37  H   UNL     1     -10.061  -7.865  18.487  0.00  0.00    +0.156 HD
BRANCH   9  25
ATOM     25  C   UNL     1     -10.946  -7.466  16.661  0.00  0.00    +0.035 A 
ATOM     26  C   UNL     1     -12.273  -7.860  16.691  0.00  0.00    +0.024 A 
ATOM     27  C   UNL     1     -10.513  -6.448  15.827  0.00  0.00    +0.024 A 
ATOM     28  C   UNL     1     -13.195  -7.219  15.863  0.00  0.00    +0.013 A 
ATOM     29  C   UNL     1     -11.435  -5.808  14.998  0.00  0.00    +0.013 A 
ATOM     30  C   UNL     1     -12.775  -6.194  15.016  0.00  0.00    +0.017 A 
BRANCH  30  31
ATOM      6  O   UNL     1     -14.915  -5.918  14.063  0.00  0.00    -0.292 OA
ATOM     31  C   UNL     1     -13.735  -5.526  14.152  0.00  0.00    +0.160 C 
ATOM     32  C   UNL     1     -13.312  -4.316  13.324  0.00  0.00    +0.091 C 
ENDBRANCH  30  31
ENDBRANCH   9  25
ENDBRANCH  13   7
BRANCH  15  18
ATOM      3  O   UNL     1      -5.447  -9.967  14.208  0.00  0.00    -0.271 OA
ATOM      8  N   UNL     1      -3.650 -10.992  15.284  0.00  0.00    -0.300 N 
ATOM     18  C   UNL     1      -4.970 -10.605  15.141  0.00  0.00    +0.241 C 
ATOM     34  H   UNL     1      -3.326 -11.393  16.156  0.00  0.00    +0.150 HD
BRANCH   8  17
ATOM     17  C   UNL     1      -2.632 -10.682  14.314  0.00  0.00    +0.159 C 
BRANCH  17  24
ATOM      5  O   UNL     1      -0.777  -9.187  14.801  0.00  0.00    -0.274 OA
ATOM     10  N   UNL     1      -1.120 -10.996  16.175  0.00  0.00    -0.328 N 
ATOM     24  C   UNL     1      -1.411 -10.200  15.086  0.00  0.00    +0.231 C 
ATOM     38  H   UNL     1      -1.666 -11.818  16.412  0.00  0.00    +0.145 HD
ATOM     39  H   UNL     1      -0.338 -10.779  16.783  0.00  0.00    +0.145 HD
ENDBRANCH  17  24
BRANCH  17  19
ATOM     19  C   UNL     1      -2.268 -11.893  13.446  0.00  0.00    +0.034 C 
BRANCH  19  20
ATOM     20  C   UNL     1      -2.674 -11.772  11.963  0.00  0.00    -0.015 C 
ATOM     22  C   UNL     1      -4.118 -12.211  11.717  0.00  0.00    +0.007 C 
ATOM     23  C   UNL     1      -2.488 -10.327  11.493  0.00  0.00    +0.007 C 
ENDBRANCH  19  20
ENDBRANCH  17  19
ENDBRANCH   8  17
ENDBRANCH  15  18
BRANCH  11   1
ATOM      1  O   UNL     1      -8.828 -11.968  17.235  0.00  0.00    -0.387 OA
ATOM     35  H   UNL     1      -9.041 -11.069  16.936  0.00  0.00    +0.210 HD
ENDBRANCH  11   1
BRANCH  12   2
ATOM      2  O   UNL     1      -5.680 -12.913  18.843  0.00  0.00    -0.389 OA
ATOM     36  H   UNL     1      -5.626 -13.835  19.148  0.00  0.00    +0.210 HD
ENDBRANCH  12   2
TORSDOF 10
ENDMDL
MODEL 9
REMARK VINA RESULT:      -6.2     27.418     31.003
REMARK  Name = 7049032
REMARK  13 active torsions:
REMARK  status: ('A' for Active; 'I' for Inactive)
REMARK    1  A    between atoms: O_1  and  C_11
REMARK    2  A    between atoms: O_2  and  C_12
REMARK    3  A    between atoms: N_7  and  C_13
REMARK    4  A    between atoms: N_8  and  C_17
REMARK    5  A    between atoms: N_9  and  C_25
REMARK    6  A    between atoms: C_15  and  C_18
REMARK    7  A    between atoms: C_17  and  C_19
REMARK    8  A    between atoms: C_17  and  C_24
REMARK    9  A    between atoms: C_19  and  C_20
REMARK   10  A    between atoms: C_20  and  C_22
REMARK   11  A    between atoms: C_20  and  C_23
REMARK   12  A    between atoms: C_30  and  C_31
REMARK   13  A    between atoms: C_31  and  C_32
REMARK                            x       y       z     vdW  Elec       q    Type
REMARK                         _______ _______ _______ _____ _____    ______ ____
ROOT
ATOM     11  C   UNL     1      -7.732  -9.265   7.074  0.00  0.00    +0.167 C 
ATOM     12  C   UNL     1      -8.267  -8.263   6.044  0.00  0.00    +0.149 C 
ATOM     13  C   UNL     1      -7.066  -8.550   8.265  0.00  0.00    +0.129 C 
ATOM     14  C   UNL     1      -9.242  -7.253   6.671  0.00  0.00    +0.074 C 
ATOM     15  C   UNL     1      -8.834  -6.805   8.046  0.00  0.00    +0.015 C 
ATOM     16  C   UNL     1      -7.855  -7.372   8.768  0.00  0.00    +0.006 C 
ENDROOT
BRANCH  13   7
ATOM      4  O   UNL     1      -5.181  -8.202  10.392  0.00  0.00    -0.252 OA
ATOM      7  N   UNL     1      -6.828  -9.454   9.363  0.00  0.00    -0.290 N 
ATOM      9  N   UNL     1      -5.875 -10.254  11.293  0.00  0.00    -0.269 N 
ATOM     21  C   UNL     1      -5.884  -9.208  10.367  0.00  0.00    +0.304 C 
ATOM     33  H   UNL     1      -7.337 -10.334   9.389  0.00  0.00    +0.151 HD
ATOM     37  H   UNL     1      -6.525 -11.018  11.125  0.00  0.00    +0.156 HD
BRANCH   9  25
ATOM     25  C   UNL     1      -5.068 -10.384  12.448  0.00  0.00    +0.035 A 
ATOM     26  C   UNL     1      -3.719 -10.664  12.305  0.00  0.00    +0.024 A 
ATOM     27  C   UNL     1      -5.644 -10.226  13.698  0.00  0.00    +0.024 A 
ATOM     28  C   UNL     1      -2.923 -10.790  13.444  0.00  0.00    +0.013 A 
ATOM     29  C   UNL     1      -4.849 -10.353  14.837  0.00  0.00    +0.013 A 
ATOM     30  C   UNL     1      -3.488 -10.635  14.710  0.00  0.00    +0.017 A 
BRANCH  30  31
ATOM      6  O   UNL     1      -3.136 -11.148  16.985  0.00  0.00    -0.292 OA
ATOM     31  C   UNL     1      -2.660 -10.767  15.897  0.00  0.00    +0.160 C 
ATOM     32  C   UNL     1      -1.171 -10.439  15.836  0.00  0.00    +0.091 C 
ENDBRANCH  30  31
ENDBRANCH   9  25
ENDBRANCH  13   7
BRANCH  15  18
ATOM      3  O   UNL     1      -9.054  -4.534   8.572  0.00  0.00    -0.271 OA
ATOM      8  N   UNL     1     -10.732  -6.012   9.232  0.00  0.00    -0.300 N 
ATOM     18  C   UNL     1      -9.535  -5.660   8.635  0.00  0.00    +0.241 C 
ATOM     34  H   UNL     1     -11.111  -6.944   9.110  0.00  0.00    +0.150 HD
BRANCH   8  17
ATOM     17  C   UNL     1     -11.595  -5.059   9.880  0.00  0.00    +0.159 C 
BRANCH  17  24
ATOM      5  O   UNL     1     -13.513  -5.377   8.418  0.00  0.00    -0.274 OA
ATOM     10  N   UNL     1     -12.527  -3.303   8.501  0.00  0.00    -0.328 N 
ATOM     24  C   UNL     1     -12.638  -4.632   8.854  0.00  0.00    +0.231 C 
ATOM     38  H   UNL     1     -11.812  -2.694   8.887  0.00  0.00    +0.145 HD
ATOM     39  H   UNL     1     -13.169  -2.887   7.836  0.00  0.00    +0.145 HD
ENDBRANCH  17  24
BRANCH  17  19
ATOM     19  C   UNL     1     -12.281  -5.644  11.121  0.00  0.00    +0.034 C 
BRANCH  19  20
ATOM     20  C   UNL     1     -13.091  -4.627  11.952  0.00  0.00    -0.015 C 
ATOM     22  C   UNL     1     -13.627  -5.231  13.250  0.00  0.00    +0.007 C 
ATOM     23  C   UNL     1     -12.220  -3.410  12.271  0.00  0.00    +0.007 C 
ENDBRANCH  19  20
ENDBRANCH  17  19
ENDBRANCH   8  17
ENDBRANCH  15  18
BRANCH  11   1
ATOM      1  O   UNL     1      -8.818 -10.067   7.543  0.00  0.00    -0.387 OA
ATOM     35  H   UNL     1      -9.522  -9.462   7.834  0.00  0.00    +0.210 HD
ENDBRANCH  11   1
BRANCH  12   2
ATOM      2  O   UNL     1      -7.185  -7.576   5.419  0.00  0.00    -0.389 OA
ATOM     36  H   UNL     1      -6.933  -6.838   6.000  0.00  0.00    +0.210 HD
ENDBRANCH  12   2
TORSDOF 10
ENDMDL
MODEL 10
REMARK VINA RESULT:      -6.2     17.086     19.238
REMARK  Name = 7049032
REMARK  13 active torsions:
REMARK  status: ('A' for Active; 'I' for Inactive)
REMARK    1  A    between atoms: O_1  and  C_11
REMARK    2  A    between atoms: O_2  and  C_12
REMARK    3  A    between atoms: N_7  and  C_13
REMARK    4  A    between atoms: N_8  and  C_17
REMARK    5  A    between atoms: N_9  and  C_25
REMARK    6  A    between atoms: C_15  and  C_18
REMARK    7  A    between atoms: C_17  and  C_19
REMARK    8  A    between atoms: C_17  and  C_24
REMARK    9  A    between atoms: C_19  and  C_20
REMARK   10  A    between atoms: C_20  and  C_22
REMARK   11  A    between atoms: C_20  and  C_23
REMARK   12  A    between atoms: C_30  and  C_31
REMARK   13  A    between atoms: C_31  and  C_32
REMARK                            x       y       z     vdW  Elec       q    Type
REMARK                         _______ _______ _______ _____ _____    ______ ____
ROOT
ATOM     11  C   UNL     1      15.021   4.205   1.212  0.00  0.00    +0.167 C 
ATOM     12  C   UNL     1      13.955   3.585   0.300  0.00  0.00    +0.149 C 
ATOM     13  C   UNL     1      14.512   5.497   1.879  0.00  0.00    +0.129 C 
ATOM     14  C   UNL     1      12.639   3.316   1.048  0.00  0.00    +0.074 C 
ATOM     15  C   UNL     1      12.282   4.392   2.034  0.00  0.00    +0.015 C 
ATOM     16  C   UNL     1      13.109   5.380   2.408  0.00  0.00    +0.006 C 
ENDROOT
BRANCH  13   7
ATOM      4  O   UNL     1      15.051   8.193   2.681  0.00  0.00    -0.252 OA
ATOM      7  N   UNL     1      15.381   5.921   2.949  0.00  0.00    -0.290 N 
ATOM      9  N   UNL     1      16.477   7.370   4.354  0.00  0.00    -0.269 N 
ATOM     21  C   UNL     1      15.590   7.265   3.279  0.00  0.00    +0.304 C 
ATOM     33  H   UNL     1      15.901   5.215   3.463  0.00  0.00    +0.151 HD
ATOM     37  H   UNL     1      16.834   6.499   4.737  0.00  0.00    +0.156 HD
BRANCH   9  25
ATOM     25  C   UNL     1      16.943   8.549   4.983  0.00  0.00    +0.035 A 
ATOM     26  C   UNL     1      18.285   8.880   4.894  0.00  0.00    +0.024 A 
ATOM     27  C   UNL     1      16.046   9.349   5.672  0.00  0.00    +0.024 A 
ATOM     28  C   UNL     1      18.743  10.044   5.513  0.00  0.00    +0.013 A 
ATOM     29  C   UNL     1      16.504  10.512   6.292  0.00  0.00    +0.013 A 
ATOM     30  C   UNL     1      17.853  10.859   6.211  0.00  0.00    +0.017 A 
BRANCH  30  31
ATOM      6  O   UNL     1      19.117  12.850   6.282  0.00  0.00    -0.292 OA
ATOM     31  C   UNL     1      18.331  12.071   6.858  0.00  0.00    +0.160 C 
ATOM     32  C   UNL     1      17.876  12.418   8.271  0.00  0.00    +0.091 C 
ENDBRANCH  30  31
ENDBRANCH   9  25
ENDBRANCH  13   7
BRANCH  15  18
ATOM      3  O   UNL     1       9.981   3.964   1.964  0.00  0.00    -0.271 OA
ATOM      8  N   UNL     1      10.902   4.870   3.906  0.00  0.00    -0.300 N 
ATOM     18  C   UNL     1      10.936   4.379   2.613  0.00  0.00    +0.241 C 
ATOM     34  H   UNL     1      11.762   5.058   4.405  0.00  0.00    +0.150 HD
BRANCH   8  17
ATOM     17  C   UNL     1       9.690   4.958   4.679  0.00  0.00    +0.159 C 
BRANCH  17  24
ATOM      5  O   UNL     1      10.355   5.672   6.907  0.00  0.00    -0.274 OA
ATOM     10  N   UNL     1      10.035   3.430   6.522  0.00  0.00    -0.328 N 
ATOM     24  C   UNL     1      10.077   4.754   6.138  0.00  0.00    +0.231 C 
ATOM     38  H   UNL     1       9.782   2.684   5.881  0.00  0.00    +0.145 HD
ATOM     39  H   UNL     1      10.258   3.156   7.473  0.00  0.00    +0.145 HD
ENDBRANCH  17  24
BRANCH  17  19
ATOM     19  C   UNL     1       8.984   6.308   4.501  0.00  0.00    +0.034 C 
BRANCH  19  20
ATOM     20  C   UNL     1       9.831   7.395   3.810  0.00  0.00    -0.015 C 
ATOM     22  C   UNL     1       9.238   7.832   2.470  0.00  0.00    +0.007 C 
ATOM     23  C   UNL     1       9.967   8.609   4.733  0.00  0.00    +0.007 C 
ENDBRANCH  19  20
ENDBRANCH  17  19
ENDBRANCH   8  17
ENDBRANCH  15  18
BRANCH  11   1
ATOM      1  O   UNL     1      15.374   3.254   2.219  0.00  0.00    -0.387 OA
ATOM     35  H   UNL     1      15.992   2.621   1.816  0.00  0.00    +0.210 HD
ENDBRANCH  11   1
BRANCH  12   2
ATOM      2  O   UNL     1      13.717   4.432  -0.822  0.00  0.00    -0.389 OA
ATOM     36  H   UNL     1      13.665   5.346  -0.493  0.00  0.00    +0.210 HD
ENDBRANCH  12   2
TORSDOF 10
ENDMDL
