MODEL 1
REMARK VINA RESULT:      -6.4      0.000      0.000
REMARK  Name = 11912309
REMARK  9 active torsions:
REMARK  status: ('A' for Active; 'I' for Inactive)
REMARK    1  A    between atoms: O_4  and  C_21
REMARK    2  A    between atoms: O_4  and  C_25
REMARK    3  A    between atoms: N_6  and  C_18
REMARK    4  A    between atoms: C_7  and  C_13
REMARK    5  A    between atoms: C_8  and  C_12
REMARK    6  A    between atoms: C_12  and  C_14
REMARK    7  A    between atoms: C_13  and  C_16
REMARK    8  A    between atoms: C_15  and  C_17
REMARK    9  A    between atoms: C_18  and  C_21
REMARK                            x       y       z     vdW  Elec       q    Type
REMARK                         _______ _______ _______ _____ _____    ______ ____
ROOT
ATOM      2  O   UNL     1      19.605   9.598  21.417  0.00  0.00    -0.270 OA
ATOM      5  N   UNL     1      17.845   8.059  21.505  0.00  0.00    -0.297 N 
ATOM      7  C   UNL     1      15.319   7.378  20.262  0.00  0.00    +0.004 C 
ATOM      8  C   UNL     1      16.448   6.325  20.400  0.00  0.00    +0.010 C 
ATOM      9  C   UNL     1      15.883   8.808  20.217  0.00  0.00    +0.023 C 
ATOM     10  C   UNL     1      17.350   6.678  21.598  0.00  0.00    +0.112 C 
ATOM     11  C   UNL     1      16.802   9.078  21.405  0.00  0.00    +0.108 C 
ATOM     15  C   UNL     1      19.187   8.443  21.500  0.00  0.00    +0.247 C 
ENDROOT
BRANCH  15  17
ATOM      1  F   UNL     1      23.077   4.439  21.892  0.00  0.00    -0.205 F 
ATOM     17  C   UNL     1      20.206   7.393  21.603  0.00  0.00    +0.037 A 
ATOM     19  C   UNL     1      20.954   7.035  20.481  0.00  0.00    +0.016 A 
ATOM     20  C   UNL     1      20.429   6.753  22.823  0.00  0.00    +0.016 A 
ATOM     22  C   UNL     1      21.924   6.037  20.579  0.00  0.00    +0.039 A 
ATOM     23  C   UNL     1      21.398   5.755  22.920  0.00  0.00    +0.039 A 
ATOM     24  C   UNL     1      22.146   5.397  21.798  0.00  0.00    +0.123 A 
ENDBRANCH  15  17
BRANCH   8  12
ATOM     12  C   UNL     1      17.292   6.146  19.132  0.00  0.00    +0.002 C 
ATOM     14  C   UNL     1      18.388   5.123  19.344  0.00  0.00    +0.004 C 
ENDBRANCH   8  12
BRANCH   7  13
ATOM     13  C   UNL     1      14.403   7.122  19.066  0.00  0.00    +0.099 C 
BRANCH  13  16
ATOM      3  O   UNL     1      12.026   6.840  18.710  0.00  0.00    -0.276 OA
ATOM      6  N   UNL     1      12.898   6.590  20.850  0.00  0.00    -0.313 N 
ATOM     16  C   UNL     1      12.977   6.839  19.488  0.00  0.00    +0.213 C 
ATOM     26  H   UNL     1      13.744   6.625  21.411  0.00  0.00    +0.149 HD
BRANCH   6  18
ATOM     18  C   UNL     1      11.657   6.291  21.528  0.00  0.00    +0.132 C 
BRANCH  18  21
ATOM     21  C   UNL     1      10.712   7.479  21.510  0.00  0.00    +0.178 C 
BRANCH  21   4
ATOM      4  O   UNL     1      10.827   8.191  22.737  0.00  0.00    -0.381 OA
ATOM     25  C   UNL     1      10.865   9.595  22.522  0.00  0.00    +0.194 C 
ENDBRANCH  21   4
ENDBRANCH  18  21
ENDBRANCH   6  18
ENDBRANCH  13  16
ENDBRANCH   7  13
TORSDOF 7
ENDMDL
MODEL 2
REMARK VINA RESULT:      -6.0     27.221     29.639
REMARK  Name = 11912309
REMARK  9 active torsions:
REMARK  status: ('A' for Active; 'I' for Inactive)
REMARK    1  A    between atoms: O_4  and  C_21
REMARK    2  A    between atoms: O_4  and  C_25
REMARK    3  A    between atoms: N_6  and  C_18
REMARK    4  A    between atoms: C_7  and  C_13
REMARK    5  A    between atoms: C_8  and  C_12
REMARK    6  A    between atoms: C_12  and  C_14
REMARK    7  A    between atoms: C_13  and  C_16
REMARK    8  A    between atoms: C_15  and  C_17
REMARK    9  A    between atoms: C_18  and  C_21
REMARK                            x       y       z     vdW  Elec       q    Type
REMARK                         _______ _______ _______ _____ _____    ______ ____
ROOT
ATOM      2  O   UNL     1      -5.545 -12.809  12.274  0.00  0.00    -0.270 OA
ATOM      5  N   UNL     1      -5.591 -11.428  14.161  0.00  0.00    -0.297 N 
ATOM      7  C   UNL     1      -5.649 -11.489  17.056  0.00  0.00    +0.004 C 
ATOM      8  C   UNL     1      -4.571 -10.673  16.299  0.00  0.00    +0.010 C 
ATOM      9  C   UNL     1      -6.164 -12.667  16.213  0.00  0.00    +0.023 C 
ATOM     10  C   UNL     1      -5.102 -10.263  14.912  0.00  0.00    +0.112 C 
ATOM     11  C   UNL     1      -6.632 -12.200  14.838  0.00  0.00    +0.108 C 
ATOM     15  C   UNL     1      -5.142 -11.831  12.902  0.00  0.00    +0.247 C 
ENDROOT
BRANCH  15  17
ATOM      1  F   UNL     1      -1.153  -8.784  10.428  0.00  0.00    -0.205 F 
ATOM     17  C   UNL     1      -4.096 -11.031  12.254  0.00  0.00    +0.037 A 
ATOM     19  C   UNL     1      -2.755 -11.248  12.572  0.00  0.00    +0.016 A 
ATOM     20  C   UNL     1      -4.442 -10.055  11.319  0.00  0.00    +0.016 A 
ATOM     22  C   UNL     1      -1.761 -10.488  11.955  0.00  0.00    +0.039 A 
ATOM     23  C   UNL     1      -3.449  -9.296  10.702  0.00  0.00    +0.039 A 
ATOM     24  C   UNL     1      -2.107  -9.513  11.020  0.00  0.00    +0.123 A 
ENDBRANCH  15  17
BRANCH   8  12
ATOM     12  C   UNL     1      -3.226 -11.396  16.161  0.00  0.00    +0.002 C 
ATOM     14  C   UNL     1      -2.086 -10.409  16.022  0.00  0.00    +0.004 C 
ENDBRANCH   8  12
BRANCH   7  13
ATOM     13  C   UNL     1      -5.182 -11.972  18.429  0.00  0.00    +0.099 C 
BRANCH  13  16
ATOM      3  O   UNL     1      -6.278 -11.012  20.360  0.00  0.00    -0.276 OA
ATOM      6  N   UNL     1      -7.236 -12.844  19.298  0.00  0.00    -0.313 N 
ATOM     16  C   UNL     1      -6.271 -11.863  19.475  0.00  0.00    +0.213 C 
ATOM     26  H   UNL     1      -7.132 -13.511  18.539  0.00  0.00    +0.149 HD
BRANCH   6  18
ATOM     18  C   UNL     1      -8.392 -12.978  20.155  0.00  0.00    +0.132 C 
BRANCH  18  21
ATOM     21  C   UNL     1      -9.569 -12.175  19.633  0.00  0.00    +0.178 C 
BRANCH  21   4
ATOM      4  O   UNL     1      -9.616 -10.919  20.298  0.00  0.00    -0.381 OA
ATOM     25  C   UNL     1     -10.822 -10.224  20.014  0.00  0.00    +0.194 C 
ENDBRANCH  21   4
ENDBRANCH  18  21
ENDBRANCH   6  18
ENDBRANCH  13  16
ENDBRANCH   7  13
TORSDOF 7
ENDMDL
MODEL 3
REMARK VINA RESULT:      -5.9     32.067     34.279
REMARK  Name = 11912309
REMARK  9 active torsions:
REMARK  status: ('A' for Active; 'I' for Inactive)
REMARK    1  A    between atoms: O_4  and  C_21
REMARK    2  A    between atoms: O_4  and  C_25
REMARK    3  A    between atoms: N_6  and  C_18
REMARK    4  A    between atoms: C_7  and  C_13
REMARK    5  A    between atoms: C_8  and  C_12
REMARK    6  A    between atoms: C_12  and  C_14
REMARK    7  A    between atoms: C_13  and  C_16
REMARK    8  A    between atoms: C_15  and  C_17
REMARK    9  A    between atoms: C_18  and  C_21
REMARK                            x       y       z     vdW  Elec       q    Type
REMARK                         _______ _______ _______ _____ _____    ______ ____
ROOT
ATOM      2  O   UNL     1     -14.794   1.483  33.176  0.00  0.00    -0.270 OA
ATOM      5  N   UNL     1     -14.834   2.060  30.910  0.00  0.00    -0.297 N 
ATOM      7  C   UNL     1     -16.069   1.374  28.381  0.00  0.00    +0.004 C 
ATOM      8  C   UNL     1     -16.092   2.830  28.909  0.00  0.00    +0.010 C 
ATOM      9  C   UNL     1     -15.963   0.357  29.531  0.00  0.00    +0.023 C 
ATOM     10  C   UNL     1     -14.890   3.069  29.842  0.00  0.00    +0.112 C 
ATOM     11  C   UNL     1     -14.781   0.675  30.442  0.00  0.00    +0.108 C 
ATOM     15  C   UNL     1     -14.835   2.325  32.280  0.00  0.00    +0.247 C 
ENDROOT
BRANCH  15  17
ATOM      1  F   UNL     1     -15.041   7.668  33.931  0.00  0.00    -0.205 F 
ATOM     17  C   UNL     1     -14.889   3.726  32.712  0.00  0.00    +0.037 A 
ATOM     19  C   UNL     1     -16.049   4.230  33.303  0.00  0.00    +0.016 A 
ATOM     20  C   UNL     1     -13.781   4.555  32.534  0.00  0.00    +0.016 A 
ATOM     22  C   UNL     1     -16.100   5.562  33.715  0.00  0.00    +0.039 A 
ATOM     23  C   UNL     1     -13.832   5.887  32.945  0.00  0.00    +0.039 A 
ATOM     24  C   UNL     1     -14.992   6.390  33.535  0.00  0.00    +0.123 A 
ENDBRANCH  15  17
BRANCH   8  12
ATOM     12  C   UNL     1     -17.398   3.218  29.613  0.00  0.00    +0.002 C 
ATOM     14  C   UNL     1     -17.417   4.693  29.957  0.00  0.00    +0.004 C 
ENDBRANCH   8  12
BRANCH   7  13
ATOM     13  C   UNL     1     -17.258   1.043  27.479  0.00  0.00    +0.099 C 
BRANCH  13  16
ATOM      3  O   UNL     1     -16.505   0.203  25.339  0.00  0.00    -0.276 OA
ATOM      6  N   UNL     1     -17.101   2.441  25.542  0.00  0.00    -0.313 N 
ATOM     16  C   UNL     1     -16.909   1.149  26.010  0.00  0.00    +0.213 C 
ATOM     26  H   UNL     1     -17.428   3.158  26.183  0.00  0.00    +0.149 HD
BRANCH   6  18
ATOM     18  C   UNL     1     -16.844   2.832  24.175  0.00  0.00    +0.132 C 
BRANCH  18  21
ATOM     21  C   UNL     1     -15.664   3.781  24.078  0.00  0.00    +0.178 C 
BRANCH  21   4
ATOM      4  O   UNL     1     -15.332   3.984  22.710  0.00  0.00    -0.381 OA
ATOM     25  C   UNL     1     -14.440   5.078  22.548  0.00  0.00    +0.194 C 
ENDBRANCH  21   4
ENDBRANCH  18  21
ENDBRANCH   6  18
ENDBRANCH  13  16
ENDBRANCH   7  13
TORSDOF 7
ENDMDL
MODEL 4
REMARK VINA RESULT:      -5.8     27.394     29.470
REMARK  Name = 11912309
REMARK  9 active torsions:
REMARK  status: ('A' for Active; 'I' for Inactive)
REMARK    1  A    between atoms: O_4  and  C_21
REMARK    2  A    between atoms: O_4  and  C_25
REMARK    3  A    between atoms: N_6  and  C_18
REMARK    4  A    between atoms: C_7  and  C_13
REMARK    5  A    between atoms: C_8  and  C_12
REMARK    6  A    between atoms: C_12  and  C_14
REMARK    7  A    between atoms: C_13  and  C_16
REMARK    8  A    between atoms: C_15  and  C_17
REMARK    9  A    between atoms: C_18  and  C_21
REMARK                            x       y       z     vdW  Elec       q    Type
REMARK                         _______ _______ _______ _____ _____    ______ ____
ROOT
ATOM      2  O   UNL     1      -1.149  -9.904  12.047  0.00  0.00    -0.270 OA
ATOM      5  N   UNL     1      -2.681 -11.145  13.306  0.00  0.00    -0.297 N 
ATOM      7  C   UNL     1      -3.969 -11.263  15.898  0.00  0.00    +0.004 C 
ATOM      8  C   UNL     1      -4.804 -11.270  14.594  0.00  0.00    +0.010 C 
ATOM      9  C   UNL     1      -2.615 -10.560  15.699  0.00  0.00    +0.023 C 
ATOM     10  C   UNL     1      -3.966 -11.847  13.437  0.00  0.00    +0.112 C 
ATOM     11  C   UNL     1      -1.856 -11.147  14.513  0.00  0.00    +0.108 C 
ATOM     15  C   UNL     1      -2.222 -10.498  12.158  0.00  0.00    +0.247 C 
ENDROOT
BRANCH  15  17
ATOM      1  F   UNL     1      -5.487 -10.570   7.614  0.00  0.00    -0.205 F 
ATOM     17  C   UNL     1      -3.077 -10.517  10.966  0.00  0.00    +0.037 A 
ATOM     19  C   UNL     1      -3.499 -11.734  10.430  0.00  0.00    +0.016 A 
ATOM     20  C   UNL     1      -3.470  -9.318  10.369  0.00  0.00    +0.016 A 
ATOM     22  C   UNL     1      -4.314 -11.751   9.297  0.00  0.00    +0.039 A 
ATOM     23  C   UNL     1      -4.284  -9.336   9.237  0.00  0.00    +0.039 A 
ATOM     24  C   UNL     1      -4.706 -10.553   8.701  0.00  0.00    +0.123 A 
ENDBRANCH  15  17
BRANCH   8  12
ATOM     12  C   UNL     1      -5.370  -9.897  14.208  0.00  0.00    +0.002 C 
ATOM     14  C   UNL     1      -6.173  -9.977  12.927  0.00  0.00    +0.004 C 
ENDBRANCH   8  12
BRANCH   7  13
ATOM     13  C   UNL     1      -4.717 -10.662  17.088  0.00  0.00    +0.099 C 
BRANCH  13  16
ATOM      3  O   UNL     1      -4.910 -12.876  18.045  0.00  0.00    -0.276 OA
ATOM      6  N   UNL     1      -6.421 -11.225  18.673  0.00  0.00    -0.313 N 
ATOM     16  C   UNL     1      -5.332 -11.725  17.973  0.00  0.00    +0.213 C 
ATOM     26  H   UNL     1      -6.699 -10.258  18.534  0.00  0.00    +0.149 HD
BRANCH   6  18
ATOM     18  C   UNL     1      -7.202 -12.021  19.592  0.00  0.00    +0.132 C 
BRANCH  18  21
ATOM     21  C   UNL     1      -8.688 -11.902  19.310  0.00  0.00    +0.178 C 
BRANCH  21   4
ATOM      4  O   UNL     1      -9.273 -10.993  20.235  0.00  0.00    -0.381 OA
ATOM     25  C   UNL     1     -10.481 -10.442  19.730  0.00  0.00    +0.194 C 
ENDBRANCH  21   4
ENDBRANCH  18  21
ENDBRANCH   6  18
ENDBRANCH  13  16
ENDBRANCH   7  13
TORSDOF 7
ENDMDL
MODEL 5
REMARK VINA RESULT:      -5.8     27.178     29.403
REMARK  Name = 11912309
REMARK  9 active torsions:
REMARK  status: ('A' for Active; 'I' for Inactive)
REMARK    1  A    between atoms: O_4  and  C_21
REMARK    2  A    between atoms: O_4  and  C_25
REMARK    3  A    between atoms: N_6  and  C_18
REMARK    4  A    between atoms: C_7  and  C_13
REMARK    5  A    between atoms: C_8  and  C_12
REMARK    6  A    between atoms: C_12  and  C_14
REMARK    7  A    between atoms: C_13  and  C_16
REMARK    8  A    between atoms: C_15  and  C_17
REMARK    9  A    between atoms: C_18  and  C_21
REMARK                            x       y       z     vdW  Elec       q    Type
REMARK                         _______ _______ _______ _____ _____    ______ ____
ROOT
ATOM      2  O   UNL     1      -3.179 -11.939  18.876  0.00  0.00    -0.270 OA
ATOM      5  N   UNL     1      -3.636 -10.851  16.856  0.00  0.00    -0.297 N 
ATOM      7  C   UNL     1      -2.844 -10.738  14.072  0.00  0.00    +0.004 C 
ATOM      8  C   UNL     1      -4.327 -10.948  14.470  0.00  0.00    +0.010 C 
ATOM      9  C   UNL     1      -1.888 -11.246  15.164  0.00  0.00    +0.023 C 
ATOM     10  C   UNL     1      -4.588 -10.338  15.861  0.00  0.00    +0.112 C 
ATOM     11  C   UNL     1      -2.228 -10.640  16.523  0.00  0.00    +0.108 C 
ATOM     15  C   UNL     1      -3.974 -11.504  18.043  0.00  0.00    +0.247 C 
ENDROOT
BRANCH  15  17
ATOM      1  F   UNL     1      -9.402 -12.238  19.188  0.00  0.00    -0.205 F 
ATOM     17  C   UNL     1      -5.397 -11.697  18.344  0.00  0.00    +0.037 A 
ATOM     19  C   UNL     1      -6.102 -10.713  19.037  0.00  0.00    +0.016 A 
ATOM     20  C   UNL     1      -6.044 -12.863  17.936  0.00  0.00    +0.016 A 
ATOM     22  C   UNL     1      -7.456 -10.896  19.322  0.00  0.00    +0.039 A 
ATOM     23  C   UNL     1      -7.397 -13.046  18.222  0.00  0.00    +0.039 A 
ATOM     24  C   UNL     1      -8.103 -12.062  18.915  0.00  0.00    +0.123 A 
ENDBRANCH  15  17
BRANCH   8  12
ATOM     12  C   UNL     1      -4.780 -12.413  14.438  0.00  0.00    +0.002 C 
ATOM     14  C   UNL     1      -6.274 -12.519  14.215  0.00  0.00    +0.004 C 
ENDBRANCH   8  12
BRANCH   7  13
ATOM     13  C   UNL     1      -2.492 -11.355  12.719  0.00  0.00    +0.099 C 
BRANCH  13  16
ATOM      3  O   UNL     1      -1.298  -9.678  11.447  0.00  0.00    -0.276 OA
ATOM      6  N   UNL     1      -3.507 -10.164  10.906  0.00  0.00    -0.313 N 
ATOM     16  C   UNL     1      -2.335 -10.309  11.636  0.00  0.00    +0.213 C 
ATOM     26  H   UNL     1      -4.316 -10.727  11.151  0.00  0.00    +0.149 HD
BRANCH   6  18
ATOM     18  C   UNL     1      -3.644  -9.232   9.810  0.00  0.00    +0.132 C 
BRANCH  18  21
ATOM     21  C   UNL     1      -4.901  -8.393   9.947  0.00  0.00    +0.178 C 
BRANCH  21   4
ATOM      4  O   UNL     1      -5.576  -8.745  11.148  0.00  0.00    -0.381 OA
ATOM     25  C   UNL     1      -6.946  -9.036  10.909  0.00  0.00    +0.194 C 
ENDBRANCH  21   4
ENDBRANCH  18  21
ENDBRANCH   6  18
ENDBRANCH  13  16
ENDBRANCH   7  13
TORSDOF 7
ENDMDL
MODEL 6
REMARK VINA RESULT:      -5.5     27.468     30.437
REMARK  Name = 11912309
REMARK  9 active torsions:
REMARK  status: ('A' for Active; 'I' for Inactive)
REMARK    1  A    between atoms: O_4  and  C_21
REMARK    2  A    between atoms: O_4  and  C_25
REMARK    3  A    between atoms: N_6  and  C_18
REMARK    4  A    between atoms: C_7  and  C_13
REMARK    5  A    between atoms: C_8  and  C_12
REMARK    6  A    between atoms: C_12  and  C_14
REMARK    7  A    between atoms: C_13  and  C_16
REMARK    8  A    between atoms: C_15  and  C_17
REMARK    9  A    between atoms: C_18  and  C_21
REMARK                            x       y       z     vdW  Elec       q    Type
REMARK                         _______ _______ _______ _____ _____    ______ ____
ROOT
ATOM      2  O   UNL     1      -9.573 -10.749  18.658  0.00  0.00    -0.270 OA
ATOM      5  N   UNL     1      -7.509 -10.014  17.839  0.00  0.00    -0.297 N 
ATOM      7  C   UNL     1      -4.899 -10.952  17.002  0.00  0.00    +0.004 C 
ATOM      8  C   UNL     1      -5.758 -10.056  16.075  0.00  0.00    +0.010 C 
ATOM      9  C   UNL     1      -5.774 -11.758  17.978  0.00  0.00    +0.023 C 
ATOM     10  C   UNL     1      -6.713  -9.190  16.918  0.00  0.00    +0.112 C 
ATOM     11  C   UNL     1      -6.725 -10.848  18.749  0.00  0.00    +0.108 C 
ATOM     15  C   UNL     1      -8.903 -10.056  17.893  0.00  0.00    +0.247 C 
ENDROOT
BRANCH  15  17
ATOM      1  F   UNL     1     -11.778  -6.814  14.352  0.00  0.00    -0.205 F 
ATOM     17  C   UNL     1      -9.656  -9.205  16.964  0.00  0.00    +0.037 A 
ATOM     19  C   UNL     1     -10.002  -9.687  15.702  0.00  0.00    +0.016 A 
ATOM     20  C   UNL     1     -10.028  -7.915  17.344  0.00  0.00    +0.016 A 
ATOM     22  C   UNL     1     -10.719  -8.879  14.819  0.00  0.00    +0.039 A 
ATOM     23  C   UNL     1     -10.745  -7.107  16.462  0.00  0.00    +0.039 A 
ATOM     24  C   UNL     1     -11.090  -7.590  15.199  0.00  0.00    +0.123 A 
ENDBRANCH  15  17
BRANCH   8  12
ATOM     12  C   UNL     1      -6.544 -10.834  15.011  0.00  0.00    +0.002 C 
ATOM     14  C   UNL     1      -6.711 -10.016  13.748  0.00  0.00    +0.004 C 
ENDBRANCH   8  12
BRANCH   7  13
ATOM     13  C   UNL     1      -3.953 -11.877  16.237  0.00  0.00    +0.099 C 
BRANCH  13  16
ATOM      3  O   UNL     1      -1.884 -10.624  16.273  0.00  0.00    -0.276 OA
ATOM      6  N   UNL     1      -2.907 -11.081  14.236  0.00  0.00    -0.313 N 
ATOM     16  C   UNL     1      -2.794 -11.125  15.619  0.00  0.00    +0.213 C 
ATOM     26  H   UNL     1      -3.708 -11.519  13.790  0.00  0.00    +0.149 HD
BRANCH   6  18
ATOM     18  C   UNL     1      -1.941 -10.425  13.385  0.00  0.00    +0.132 C 
BRANCH  18  21
ATOM     21  C   UNL     1      -2.139 -10.796  11.927  0.00  0.00    +0.178 C 
BRANCH  21   4
ATOM      4  O   UNL     1      -2.060  -9.623  11.127  0.00  0.00    -0.381 OA
ATOM     25  C   UNL     1      -3.192  -9.495  10.278  0.00  0.00    +0.194 C 
ENDBRANCH  21   4
ENDBRANCH  18  21
ENDBRANCH   6  18
ENDBRANCH  13  16
ENDBRANCH   7  13
TORSDOF 7
ENDMDL
MODEL 7
REMARK VINA RESULT:      -5.4     18.181     20.906
REMARK  Name = 11912309
REMARK  9 active torsions:
REMARK  status: ('A' for Active; 'I' for Inactive)
REMARK    1  A    between atoms: O_4  and  C_21
REMARK    2  A    between atoms: O_4  and  C_25
REMARK    3  A    between atoms: N_6  and  C_18
REMARK    4  A    between atoms: C_7  and  C_13
REMARK    5  A    between atoms: C_8  and  C_12
REMARK    6  A    between atoms: C_12  and  C_14
REMARK    7  A    between atoms: C_13  and  C_16
REMARK    8  A    between atoms: C_15  and  C_17
REMARK    9  A    between atoms: C_18  and  C_21
REMARK                            x       y       z     vdW  Elec       q    Type
REMARK                         _______ _______ _______ _____ _____    ______ ____
ROOT
ATOM      2  O   UNL     1       9.782   3.755   5.640  0.00  0.00    -0.270 OA
ATOM      5  N   UNL     1      10.814   5.080   4.012  0.00  0.00    -0.297 N 
ATOM      7  C   UNL     1      10.959   5.517   1.152  0.00  0.00    +0.004 C 
ATOM      8  C   UNL     1      10.644   6.684   2.121  0.00  0.00    +0.010 C 
ATOM      9  C   UNL     1      10.533   4.162   1.743  0.00  0.00    +0.023 C 
ATOM     10  C   UNL     1      11.246   6.392   3.508  0.00  0.00    +0.112 C 
ATOM     11  C   UNL     1      11.125   3.954   3.133  0.00  0.00    +0.108 C 
ATOM     15  C   UNL     1      10.150   4.851   5.218  0.00  0.00    +0.247 C 
ENDROOT
BRANCH  15  17
ATOM      1  F   UNL     1       9.021   9.253   8.484  0.00  0.00    -0.205 F 
ATOM     17  C   UNL     1       9.855   6.006   6.074  0.00  0.00    +0.037 A 
ATOM     19  C   UNL     1       8.582   6.578   6.058  0.00  0.00    +0.016 A 
ATOM     20  C   UNL     1      10.845   6.531   6.904  0.00  0.00    +0.016 A 
ATOM     22  C   UNL     1       8.301   7.675   6.873  0.00  0.00    +0.039 A 
ATOM     23  C   UNL     1      10.564   7.628   7.718  0.00  0.00    +0.039 A 
ATOM     24  C   UNL     1       9.292   8.200   7.702  0.00  0.00    +0.123 A 
ENDBRANCH  15  17
BRANCH   8  12
ATOM     12  C   UNL     1       9.149   7.005   2.246  0.00  0.00    +0.002 C 
ATOM     14  C   UNL     1       8.932   8.365   2.875  0.00  0.00    +0.004 C 
ENDBRANCH   8  12
BRANCH   7  13
ATOM     13  C   UNL     1      10.357   5.711  -0.239  0.00  0.00    +0.099 C 
BRANCH  13  16
ATOM      3  O   UNL     1      12.262   4.904  -1.493  0.00  0.00    -0.276 OA
ATOM      6  N   UNL     1      10.145   4.069  -1.969  0.00  0.00    -0.313 N 
ATOM     16  C   UNL     1      11.052   4.868  -1.286  0.00  0.00    +0.213 C 
ATOM     26  H   UNL     1       9.159   4.122  -1.730  0.00  0.00    +0.149 HD
BRANCH   6  18
ATOM     18  C   UNL     1      10.531   3.163  -3.026  0.00  0.00    +0.132 C 
BRANCH  18  21
ATOM     21  C   UNL     1       9.361   2.838  -3.937  0.00  0.00    +0.178 C 
BRANCH  21   4
ATOM      4  O   UNL     1       8.858   4.041  -4.506  0.00  0.00    -0.381 OA
ATOM     25  C   UNL     1       9.717   4.533  -5.526  0.00  0.00    +0.194 C 
ENDBRANCH  21   4
ENDBRANCH  18  21
ENDBRANCH   6  18
ENDBRANCH  13  16
ENDBRANCH   7  13
TORSDOF 7
ENDMDL
MODEL 8
REMARK VINA RESULT:      -5.4     16.792     19.576
REMARK  Name = 11912309
REMARK  9 active torsions:
REMARK  status: ('A' for Active; 'I' for Inactive)
REMARK    1  A    between atoms: O_4  and  C_21
REMARK    2  A    between atoms: O_4  and  C_25
REMARK    3  A    between atoms: N_6  and  C_18
REMARK    4  A    between atoms: C_7  and  C_13
REMARK    5  A    between atoms: C_8  and  C_12
REMARK    6  A    between atoms: C_12  and  C_14
REMARK    7  A    between atoms: C_13  and  C_16
REMARK    8  A    between atoms: C_15  and  C_17
REMARK    9  A    between atoms: C_18  and  C_21
REMARK                            x       y       z     vdW  Elec       q    Type
REMARK                         _______ _______ _______ _____ _____    ______ ____
ROOT
ATOM      2  O   UNL     1       8.301   7.340   7.532  0.00  0.00    -0.270 OA
ATOM      5  N   UNL     1       9.966   7.067   5.912  0.00  0.00    -0.297 N 
ATOM      7  C   UNL     1      10.905   5.252   3.860  0.00  0.00    +0.004 C 
ATOM      8  C   UNL     1      10.622   6.740   3.537  0.00  0.00    +0.010 C 
ATOM      9  C   UNL     1      10.063   4.761   5.050  0.00  0.00    +0.023 C 
ATOM     10  C   UNL     1      10.783   7.593   4.809  0.00  0.00    +0.112 C 
ATOM     11  C   UNL     1      10.233   5.673   6.261  0.00  0.00    +0.108 C 
ATOM     15  C   UNL     1       8.991   7.779   6.612  0.00  0.00    +0.247 C 
ENDROOT
BRANCH  15  17
ATOM      1  F   UNL     1       8.072  13.108   5.171  0.00  0.00    -0.205 F 
ATOM     17  C   UNL     1       8.751   9.176   6.234  0.00  0.00    +0.037 A 
ATOM     19  C   UNL     1       7.865   9.476   5.198  0.00  0.00    +0.016 A 
ATOM     20  C   UNL     1       9.406  10.205   6.910  0.00  0.00    +0.016 A 
ATOM     22  C   UNL     1       7.636  10.804   4.840  0.00  0.00    +0.039 A 
ATOM     23  C   UNL     1       9.178  11.533   6.551  0.00  0.00    +0.039 A 
ATOM     24  C   UNL     1       8.292  11.833   5.515  0.00  0.00    +0.123 A 
ENDBRANCH  15  17
BRANCH   8  12
ATOM     12  C   UNL     1       9.249   6.989   2.900  0.00  0.00    +0.002 C 
ATOM     14  C   UNL     1       9.280   8.197   1.987  0.00  0.00    +0.004 C 
ENDBRANCH   8  12
BRANCH   7  13
ATOM     13  C   UNL     1      10.724   4.329   2.655  0.00  0.00    +0.099 C 
BRANCH  13  16
ATOM      3  O   UNL     1      11.885   4.002   0.558  0.00  0.00    -0.276 OA
ATOM      6  N   UNL     1      13.062   4.778   2.407  0.00  0.00    -0.313 N 
ATOM     16  C   UNL     1      11.927   4.342   1.738  0.00  0.00    +0.213 C 
ATOM     26  H   UNL     1      12.994   5.025   3.390  0.00  0.00    +0.149 HD
BRANCH   6  18
ATOM     18  C   UNL     1      14.358   4.887   1.776  0.00  0.00    +0.132 C 
BRANCH  18  21
ATOM     21  C   UNL     1      15.063   3.545   1.715  0.00  0.00    +0.178 C 
BRANCH  21   4
ATOM      4  O   UNL     1      15.948   3.527   0.602  0.00  0.00    -0.381 OA
ATOM     25  C   UNL     1      15.683   4.600  -0.292  0.00  0.00    +0.194 C 
ENDBRANCH  21   4
ENDBRANCH  18  21
ENDBRANCH   6  18
ENDBRANCH  13  16
ENDBRANCH   7  13
TORSDOF 7
ENDMDL
MODEL 9
REMARK VINA RESULT:      -5.3     25.438     30.469
REMARK  Name = 11912309
REMARK  9 active torsions:
REMARK  status: ('A' for Active; 'I' for Inactive)
REMARK    1  A    between atoms: O_4  and  C_21
REMARK    2  A    between atoms: O_4  and  C_25
REMARK    3  A    between atoms: N_6  and  C_18
REMARK    4  A    between atoms: C_7  and  C_13
REMARK    5  A    between atoms: C_8  and  C_12
REMARK    6  A    between atoms: C_12  and  C_14
REMARK    7  A    between atoms: C_13  and  C_16
REMARK    8  A    between atoms: C_15  and  C_17
REMARK    9  A    between atoms: C_18  and  C_21
REMARK                            x       y       z     vdW  Elec       q    Type
REMARK                         _______ _______ _______ _____ _____    ______ ____
ROOT
ATOM      2  O   UNL     1     -15.916   9.543  21.779  0.00  0.00    -0.270 OA
ATOM      5  N   UNL     1     -14.501   8.822  20.062  0.00  0.00    -0.297 N 
ATOM      7  C   UNL     1     -11.981   9.404  18.759  0.00  0.00    +0.004 C 
ATOM      8  C   UNL     1     -12.283   7.988  19.312  0.00  0.00    +0.010 C 
ATOM      9  C   UNL     1     -12.768  10.486  19.517  0.00  0.00    +0.023 C 
ATOM     10  C   UNL     1     -13.804   7.749  19.338  0.00  0.00    +0.112 C 
ATOM     11  C   UNL     1     -14.260  10.168  19.544  0.00  0.00    +0.108 C 
ATOM     15  C   UNL     1     -15.336   8.647  21.167  0.00  0.00    +0.247 C 
ENDROOT
BRANCH  15  17
ATOM      1  F   UNL     1     -16.168   3.439  23.038  0.00  0.00    -0.205 F 
ATOM     17  C   UNL     1     -15.554   7.282  21.659  0.00  0.00    +0.037 A 
ATOM     19  C   UNL     1     -16.426   6.429  20.981  0.00  0.00    +0.016 A 
ATOM     20  C   UNL     1     -14.891   6.837  22.802  0.00  0.00    +0.016 A 
ATOM     22  C   UNL     1     -16.632   5.130  21.447  0.00  0.00    +0.039 A 
ATOM     23  C   UNL     1     -15.098   5.539  23.268  0.00  0.00    +0.039 A 
ATOM     24  C   UNL     1     -15.969   4.686  22.591  0.00  0.00    +0.123 A 
ENDBRANCH  15  17
BRANCH   8  12
ATOM     12  C   UNL     1     -11.677   7.716  20.694  0.00  0.00    +0.002 C 
ATOM     14  C   UNL     1     -11.894   6.278  21.114  0.00  0.00    +0.004 C 
ENDBRANCH   8  12
BRANCH   7  13
ATOM     13  C   UNL     1     -10.489   9.736  18.741  0.00  0.00    +0.099 C 
BRANCH  13  16
ATOM      3  O   UNL     1     -10.081   9.649  16.358  0.00  0.00    -0.276 OA
ATOM      6  N   UNL     1      -9.586  11.594  17.531  0.00  0.00    -0.313 N 
ATOM     16  C   UNL     1     -10.042  10.289  17.405  0.00  0.00    +0.213 C 
ATOM     26  H   UNL     1      -9.583  12.033  18.447  0.00  0.00    +0.149 HD
BRANCH   6  18
ATOM     18  C   UNL     1      -9.095  12.370  16.415  0.00  0.00    +0.132 C 
BRANCH  18  21
ATOM     21  C   UNL     1      -8.264  13.552  16.880  0.00  0.00    +0.178 C 
BRANCH  21   4
ATOM      4  O   UNL     1      -6.914  13.370  16.470  0.00  0.00    -0.381 OA
ATOM     25  C   UNL     1      -6.063  14.363  17.027  0.00  0.00    +0.194 C 
ENDBRANCH  21   4
ENDBRANCH  18  21
ENDBRANCH   6  18
ENDBRANCH  13  16
ENDBRANCH   7  13
TORSDOF 7
ENDMDL
MODEL 10
REMARK VINA RESULT:      -5.3     27.713     29.645
REMARK  Name = 11912309
REMARK  9 active torsions:
REMARK  status: ('A' for Active; 'I' for Inactive)
REMARK    1  A    between atoms: O_4  and  C_21
REMARK    2  A    between atoms: O_4  and  C_25
REMARK    3  A    between atoms: N_6  and  C_18
REMARK    4  A    between atoms: C_7  and  C_13
REMARK    5  A    between atoms: C_8  and  C_12
REMARK    6  A    between atoms: C_12  and  C_14
REMARK    7  A    between atoms: C_13  and  C_16
REMARK    8  A    between atoms: C_15  and  C_17
REMARK    9  A    between atoms: C_18  and  C_21
REMARK                            x       y       z     vdW  Elec       q    Type
REMARK                         _______ _______ _______ _____ _____    ______ ____
ROOT
ATOM      2  O   UNL     1      -6.948  -9.595  15.665  0.00  0.00    -0.270 OA
ATOM      5  N   UNL     1      -5.782 -10.957  14.162  0.00  0.00    -0.297 N 
ATOM      7  C   UNL     1      -4.330 -10.901  11.656  0.00  0.00    +0.004 C 
ATOM      8  C   UNL     1      -3.691 -11.503  12.933  0.00  0.00    +0.010 C 
ATOM      9  C   UNL     1      -5.390  -9.841  12.000  0.00  0.00    +0.023 C 
ATOM     10  C   UNL     1      -4.794 -12.008  13.883  0.00  0.00    +0.112 C 
ATOM     11  C   UNL     1      -6.425 -10.390  12.977  0.00  0.00    +0.108 C 
ATOM     15  C   UNL     1      -6.126 -10.480  15.428  0.00  0.00    +0.247 C 
ENDROOT
BRANCH  15  17
ATOM      1  F   UNL     1      -3.585 -12.743  19.871  0.00  0.00    -0.205 F 
ATOM     17  C   UNL     1      -5.460 -11.072  16.594  0.00  0.00    +0.037 A 
ATOM     19  C   UNL     1      -6.043 -12.153  17.255  0.00  0.00    +0.016 A 
ATOM     20  C   UNL     1      -4.243 -10.556  17.040  0.00  0.00    +0.016 A 
ATOM     22  C   UNL     1      -5.409 -12.718  18.362  0.00  0.00    +0.039 A 
ATOM     23  C   UNL     1      -3.610 -11.120  18.147  0.00  0.00    +0.039 A 
ATOM     24  C   UNL     1      -4.193 -12.201  18.808  0.00  0.00    +0.123 A 
ENDBRANCH  15  17
BRANCH   8  12
ATOM     12  C   UNL     1      -2.751 -10.542  13.672  0.00  0.00    +0.002 C 
ATOM     14  C   UNL     1      -1.756 -11.299  14.527  0.00  0.00    +0.004 C 
ENDBRANCH   8  12
BRANCH   7  13
ATOM     13  C   UNL     1      -3.300 -10.335  10.678  0.00  0.00    +0.099 C 
BRANCH  13  16
ATOM      3  O   UNL     1      -3.958  -8.633   9.090  0.00  0.00    -0.276 OA
ATOM      6  N   UNL     1      -4.497 -10.855   8.671  0.00  0.00    -0.313 N 
ATOM     16  C   UNL     1      -3.940  -9.819   9.408  0.00  0.00    +0.213 C 
ATOM     26  H   UNL     1      -4.439 -11.804   9.028  0.00  0.00    +0.149 HD
BRANCH   6  18
ATOM     18  C   UNL     1      -5.177 -10.652   7.412  0.00  0.00    +0.132 C 
BRANCH  18  21
ATOM     21  C   UNL     1      -6.664 -10.429   7.611  0.00  0.00    +0.178 C 
BRANCH  21   4
ATOM      4  O   UNL     1      -6.956  -9.043   7.473  0.00  0.00    -0.381 OA
ATOM     25  C   UNL     1      -7.452  -8.492   8.686  0.00  0.00    +0.194 C 
ENDBRANCH  21   4
ENDBRANCH  18  21
ENDBRANCH   6  18
ENDBRANCH  13  16
ENDBRANCH   7  13
TORSDOF 7
ENDMDL
