MODEL 1
REMARK VINA RESULT:      -7.6      0.000      0.000
REMARK  Name = 11865672
REMARK  8 active torsions:
REMARK  status: ('A' for Active; 'I' for Inactive)
REMARK    1  A    between atoms: O_3  and  C_12
REMARK    2  A    between atoms: O_4  and  C_14
REMARK    3  A    between atoms: N_8  and  C_13
REMARK    4  A    between atoms: N_9  and  C_20
REMARK    5  A    between atoms: N_10  and  C_22
REMARK    6  A    between atoms: C_16  and  C_18
REMARK    7  A    between atoms: C_20  and  C_21
REMARK    8  A    between atoms: C_21  and  C_23
REMARK                            x       y       z     vdW  Elec       q    Type
REMARK                         _______ _______ _______ _____ _____    ______ ____
ROOT
ATOM     12  C   UNL     1     -17.230   1.258  25.562  0.00  0.00    +0.167 C 
ATOM     13  C   UNL     1     -16.789   2.732  25.463  0.00  0.00    +0.129 C 
ATOM     14  C   UNL     1     -17.838   0.944  26.934  0.00  0.00    +0.149 C 
ATOM     15  C   UNL     1     -16.879   1.292  28.085  0.00  0.00    +0.074 C 
ATOM     16  C   UNL     1     -16.103   2.558  27.855  0.00  0.00    +0.015 C 
ATOM     17  C   UNL     1     -16.062   3.218  26.687  0.00  0.00    +0.006 C 
ENDROOT
BRANCH  13   8
ATOM      6  O   UNL     1     -16.151   5.266  24.290  0.00  0.00    -0.252 OA
ATOM      8  N   UNL     1     -15.961   2.962  24.305  0.00  0.00    -0.290 N 
ATOM     10  N   UNL     1     -14.866   4.151  22.673  0.00  0.00    -0.267 N 
ATOM     19  C   UNL     1     -15.696   4.238  23.794  0.00  0.00    +0.304 C 
ATOM     29  H   UNL     1     -15.592   2.159  23.804  0.00  0.00    +0.151 HD
ATOM     33  H   UNL     1     -14.576   3.219  22.389  0.00  0.00    +0.156 HD
BRANCH  10  22
ATOM      1  F   UNL     1     -12.162   4.824  22.653  0.00  0.00    -0.203 F 
ATOM      2  F   UNL     1     -12.941   8.293  19.533  0.00  0.00    -0.205 F 
ATOM     22  C   UNL     1     -14.373   5.208  21.874  0.00  0.00    +0.070 A 
ATOM     24  C   UNL     1     -13.013   5.519  21.886  0.00  0.00    +0.147 A 
ATOM     25  C   UNL     1     -15.248   5.939  21.071  0.00  0.00    +0.029 A 
ATOM     26  C   UNL     1     -12.529   6.562  21.095  0.00  0.00    +0.078 A 
ATOM     27  C   UNL     1     -14.765   6.981  20.280  0.00  0.00    +0.040 A 
ATOM     28  C   UNL     1     -13.405   7.293  20.293  0.00  0.00    +0.126 A 
ENDBRANCH  10  22
ENDBRANCH  13   8
BRANCH  16  18
ATOM      5  O   UNL     1     -15.560   4.283  29.354  0.00  0.00    -0.271 OA
ATOM      9  N   UNL     1     -14.452   2.240  29.532  0.00  0.00    -0.311 N 
ATOM     18  C   UNL     1     -15.359   3.128  28.981  0.00  0.00    +0.240 C 
ATOM     32  H   UNL     1     -14.372   1.301  29.152  0.00  0.00    +0.149 HD
BRANCH   9  20
ATOM     20  C   UNL     1     -13.600   2.574  30.651  0.00  0.00    +0.113 C 
BRANCH  20  21
ATOM     21  C   UNL     1     -14.380   2.690  31.953  0.00  0.00    +0.114 C 
BRANCH  21  23
ATOM      7  O   UNL     1     -14.896   0.317  31.911  0.00  0.00    -0.276 OA
ATOM     11  N   UNL     1     -14.880   1.413  33.931  0.00  0.00    -0.329 N 
ATOM     23  C   UNL     1     -14.739   1.346  32.561  0.00  0.00    +0.212 C 
ATOM     34  H   UNL     1     -14.748   2.277  34.448  0.00  0.00    +0.145 HD
ATOM     35  H   UNL     1     -15.122   0.590  34.472  0.00  0.00    +0.145 HD
ENDBRANCH  21  23
ENDBRANCH  20  21
ENDBRANCH   9  20
ENDBRANCH  16  18
BRANCH  12   3
ATOM      3  O   UNL     1     -16.102   0.406  25.353  0.00  0.00    -0.387 OA
ATOM     30  H   UNL     1     -15.775   0.134  26.227  0.00  0.00    +0.210 HD
ENDBRANCH  12   3
BRANCH  14   4
ATOM      4  O   UNL     1     -19.071   1.643  27.097  0.00  0.00    -0.389 OA
ATOM     31  H   UNL     1     -18.865   2.519  27.467  0.00  0.00    +0.210 HD
ENDBRANCH  14   4
TORSDOF 8
ENDMDL
MODEL 2
REMARK VINA RESULT:      -7.3     28.161     30.867
REMARK  Name = 11865672
REMARK  8 active torsions:
REMARK  status: ('A' for Active; 'I' for Inactive)
REMARK    1  A    between atoms: O_3  and  C_12
REMARK    2  A    between atoms: O_4  and  C_14
REMARK    3  A    between atoms: N_8  and  C_13
REMARK    4  A    between atoms: N_9  and  C_20
REMARK    5  A    between atoms: N_10  and  C_22
REMARK    6  A    between atoms: C_16  and  C_18
REMARK    7  A    between atoms: C_20  and  C_21
REMARK    8  A    between atoms: C_21  and  C_23
REMARK                            x       y       z     vdW  Elec       q    Type
REMARK                         _______ _______ _______ _____ _____    ______ ____
ROOT
ATOM     12  C   UNL     1      12.565   9.274  17.972  0.00  0.00    +0.167 C 
ATOM     13  C   UNL     1      12.692   9.038  19.490  0.00  0.00    +0.129 C 
ATOM     14  C   UNL     1      12.855   7.994  17.179  0.00  0.00    +0.149 C 
ATOM     15  C   UNL     1      14.237   7.407  17.514  0.00  0.00    +0.074 C 
ATOM     16  C   UNL     1      14.594   7.511  18.970  0.00  0.00    +0.015 C 
ATOM     17  C   UNL     1      13.904   8.232  19.868  0.00  0.00    +0.006 C 
ENDROOT
BRANCH  13   8
ATOM      6  O   UNL     1      11.384   9.583  21.980  0.00  0.00    -0.252 OA
ATOM      8  N   UNL     1      12.712  10.282  20.221  0.00  0.00    -0.290 N 
ATOM     10  N   UNL     1      12.243  11.766  21.910  0.00  0.00    -0.267 N 
ATOM     19  C   UNL     1      12.044  10.466  21.437  0.00  0.00    +0.304 C 
ATOM     29  H   UNL     1      13.189  11.079  19.811  0.00  0.00    +0.151 HD
ATOM     33  H   UNL     1      12.818  12.379  21.338  0.00  0.00    +0.156 HD
BRANCH  10  22
ATOM      1  F   UNL     1      13.442  11.300  24.382  0.00  0.00    -0.203 F 
ATOM      2  F   UNL     1      10.263  14.046  26.558  0.00  0.00    -0.205 F 
ATOM     22  C   UNL     1      11.739  12.345  23.097  0.00  0.00    +0.070 A 
ATOM     24  C   UNL     1      12.363  12.093  24.319  0.00  0.00    +0.147 A 
ATOM     25  C   UNL     1      10.617  13.172  23.045  0.00  0.00    +0.029 A 
ATOM     26  C   UNL     1      11.864  12.667  25.489  0.00  0.00    +0.078 A 
ATOM     27  C   UNL     1      10.118  13.746  24.214  0.00  0.00    +0.040 A 
ATOM     28  C   UNL     1      10.741  13.493  25.436  0.00  0.00    +0.126 A 
ENDBRANCH  10  22
ENDBRANCH  13   8
BRANCH  16  18
ATOM      5  O   UNL     1      16.292   5.903  18.752  0.00  0.00    -0.271 OA
ATOM      9  N   UNL     1      16.145   7.132  20.728  0.00  0.00    -0.311 N 
ATOM     18  C   UNL     1      15.757   6.762  19.452  0.00  0.00    +0.240 C 
ATOM     32  H   UNL     1      15.638   7.864  21.216  0.00  0.00    +0.149 HD
BRANCH   9  20
ATOM     20  C   UNL     1      17.265   6.532  21.417  0.00  0.00    +0.113 C 
BRANCH  20  21
ATOM     21  C   UNL     1      18.601   7.068  20.921  0.00  0.00    +0.114 C 
BRANCH  21  23
ATOM      7  O   UNL     1      20.696   5.863  21.158  0.00  0.00    -0.276 OA
ATOM     11  N   UNL     1      19.163   5.129  19.611  0.00  0.00    -0.329 N 
ATOM     23  C   UNL     1      19.607   5.976  20.604  0.00  0.00    +0.212 C 
ATOM     34  H   UNL     1      18.259   5.245  19.163  0.00  0.00    +0.145 HD
ATOM     35  H   UNL     1      19.734   4.354  19.292  0.00  0.00    +0.145 HD
ENDBRANCH  21  23
ENDBRANCH  20  21
ENDBRANCH   9  20
ENDBRANCH  16  18
BRANCH  12   3
ATOM      3  O   UNL     1      13.488  10.286  17.566  0.00  0.00    -0.387 OA
ATOM     30  H   UNL     1      13.061  10.807  16.864  0.00  0.00    +0.210 HD
ENDBRANCH  12   3
BRANCH  14   4
ATOM      4  O   UNL     1      11.839   7.024  17.423  0.00  0.00    -0.389 OA
ATOM     31  H   UNL     1      11.213   7.408  18.061  0.00  0.00    +0.210 HD
ENDBRANCH  14   4
TORSDOF 8
ENDMDL
MODEL 3
REMARK VINA RESULT:      -7.0     30.471     33.412
REMARK  Name = 11865672
REMARK  8 active torsions:
REMARK  status: ('A' for Active; 'I' for Inactive)
REMARK    1  A    between atoms: O_3  and  C_12
REMARK    2  A    between atoms: O_4  and  C_14
REMARK    3  A    between atoms: N_8  and  C_13
REMARK    4  A    between atoms: N_9  and  C_20
REMARK    5  A    between atoms: N_10  and  C_22
REMARK    6  A    between atoms: C_16  and  C_18
REMARK    7  A    between atoms: C_20  and  C_21
REMARK    8  A    between atoms: C_21  and  C_23
REMARK                            x       y       z     vdW  Elec       q    Type
REMARK                         _______ _______ _______ _____ _____    ______ ____
ROOT
ATOM     12  C   UNL     1      13.977   6.826  21.216  0.00  0.00    +0.167 C 
ATOM     13  C   UNL     1      15.112   7.053  20.199  0.00  0.00    +0.129 C 
ATOM     14  C   UNL     1      12.605   7.137  20.604  0.00  0.00    +0.149 C 
ATOM     15  C   UNL     1      12.534   8.564  20.035  0.00  0.00    +0.074 C 
ATOM     16  C   UNL     1      13.800   8.998  19.353  0.00  0.00    +0.015 C 
ATOM     17  C   UNL     1      14.960   8.325  19.411  0.00  0.00    +0.006 C 
ENDROOT
BRANCH  13   8
ATOM      6  O   UNL     1      17.565   6.064  19.097  0.00  0.00    -0.252 OA
ATOM      8  N   UNL     1      16.406   7.051  20.837  0.00  0.00    -0.290 N 
ATOM     10  N   UNL     1      18.660   6.679  21.080  0.00  0.00    -0.267 N 
ATOM     19  C   UNL     1      17.560   6.548  20.227  0.00  0.00    +0.304 C 
ATOM     29  H   UNL     1      16.475   7.382  21.795  0.00  0.00    +0.151 HD
ATOM     33  H   UNL     1      18.486   7.102  21.988  0.00  0.00    +0.156 HD
BRANCH  10  22
ATOM      1  F   UNL     1      20.701   8.562  20.849  0.00  0.00    -0.203 F 
ATOM      2  F   UNL     1      23.905   5.155  20.136  0.00  0.00    -0.205 F 
ATOM     22  C   UNL     1      19.998   6.294  20.838  0.00  0.00    +0.070 A 
ATOM     24  C   UNL     1      20.997   7.260  20.729  0.00  0.00    +0.147 A 
ATOM     25  C   UNL     1      20.319   4.942  20.710  0.00  0.00    +0.029 A 
ATOM     26  C   UNL     1      22.317   6.876  20.491  0.00  0.00    +0.078 A 
ATOM     27  C   UNL     1      21.639   4.557  20.473  0.00  0.00    +0.040 A 
ATOM     28  C   UNL     1      22.638   5.525  20.363  0.00  0.00    +0.126 A 
ENDBRANCH  10  22
ENDBRANCH  13   8
BRANCH  16  18
ATOM      5  O   UNL     1      13.100  11.195  18.905  0.00  0.00    -0.271 OA
ATOM      9  N   UNL     1      14.546  10.142  17.410  0.00  0.00    -0.311 N 
ATOM     18  C   UNL     1      13.769  10.224  18.551  0.00  0.00    +0.240 C 
ATOM     32  H   UNL     1      15.069   9.293  17.216  0.00  0.00    +0.149 HD
BRANCH   9  20
ATOM     20  C   UNL     1      14.671  11.226  16.460  0.00  0.00    +0.113 C 
BRANCH  20  21
ATOM     21  C   UNL     1      13.832  10.997  15.212  0.00  0.00    +0.114 C 
BRANCH  21  23
ATOM      7  O   UNL     1      13.491   8.593  15.233  0.00  0.00    -0.276 OA
ATOM     11  N   UNL     1      11.657   9.974  15.339  0.00  0.00    -0.329 N 
ATOM     23  C   UNL     1      13.010   9.721  15.264  0.00  0.00    +0.212 C 
ATOM     34  H   UNL     1      11.281  10.917  15.359  0.00  0.00    +0.145 HD
ATOM     35  H   UNL     1      10.986   9.214  15.377  0.00  0.00    +0.145 HD
ENDBRANCH  21  23
ENDBRANCH  20  21
ENDBRANCH   9  20
ENDBRANCH  16  18
BRANCH  12   3
ATOM      3  O   UNL     1      14.176   7.671  22.351  0.00  0.00    -0.387 OA
ATOM     30  H   UNL     1      14.543   8.512  22.029  0.00  0.00    +0.210 HD
ENDBRANCH  12   3
BRANCH  14   4
ATOM      4  O   UNL     1      12.295   6.188  19.586  0.00  0.00    -0.389 OA
ATOM     31  H   UNL     1      11.983   6.683  18.808  0.00  0.00    +0.210 HD
ENDBRANCH  14   4
TORSDOF 8
ENDMDL
MODEL 4
REMARK VINA RESULT:      -7.0     28.803     31.237
REMARK  Name = 11865672
REMARK  8 active torsions:
REMARK  status: ('A' for Active; 'I' for Inactive)
REMARK    1  A    between atoms: O_3  and  C_12
REMARK    2  A    between atoms: O_4  and  C_14
REMARK    3  A    between atoms: N_8  and  C_13
REMARK    4  A    between atoms: N_9  and  C_20
REMARK    5  A    between atoms: N_10  and  C_22
REMARK    6  A    between atoms: C_16  and  C_18
REMARK    7  A    between atoms: C_20  and  C_21
REMARK    8  A    between atoms: C_21  and  C_23
REMARK                            x       y       z     vdW  Elec       q    Type
REMARK                         _______ _______ _______ _____ _____    ______ ____
ROOT
ATOM     12  C   UNL     1      12.636   6.833  20.471  0.00  0.00    +0.167 C 
ATOM     13  C   UNL     1      13.731   7.847  20.859  0.00  0.00    +0.129 C 
ATOM     14  C   UNL     1      11.294   7.528  20.209  0.00  0.00    +0.149 C 
ATOM     15  C   UNL     1      10.837   8.374  21.410  0.00  0.00    +0.074 C 
ATOM     16  C   UNL     1      11.962   9.098  22.094  0.00  0.00    +0.015 C 
ATOM     17  C   UNL     1      13.263   8.877  21.850  0.00  0.00    +0.006 C 
ENDROOT
BRANCH  13   8
ATOM      6  O   UNL     1      16.456   8.363  20.142  0.00  0.00    -0.252 OA
ATOM      8  N   UNL     1      14.901   7.189  21.387  0.00  0.00    -0.290 N 
ATOM     10  N   UNL     1      17.130   6.707  21.662  0.00  0.00    -0.267 N 
ATOM     19  C   UNL     1      16.203   7.503  20.982  0.00  0.00    +0.304 C 
ATOM     29  H   UNL     1      14.774   6.427  22.045  0.00  0.00    +0.151 HD
ATOM     33  H   UNL     1      16.755   6.037  22.330  0.00  0.00    +0.156 HD
BRANCH  10  22
ATOM      1  F   UNL     1      18.426   5.274  19.654  0.00  0.00    -0.203 F 
ATOM      2  F   UNL     1      22.652   6.750  21.184  0.00  0.00    -0.205 F 
ATOM     22  C   UNL     1      18.538   6.715  21.538  0.00  0.00    +0.070 A 
ATOM     24  C   UNL     1      19.157   5.988  20.522  0.00  0.00    +0.147 A 
ATOM     25  C   UNL     1      19.309   7.454  22.436  0.00  0.00    +0.029 A 
ATOM     26  C   UNL     1      20.547   5.999  20.402  0.00  0.00    +0.078 A 
ATOM     27  C   UNL     1      20.699   7.466  22.316  0.00  0.00    +0.040 A 
ATOM     28  C   UNL     1      21.318   6.738  21.299  0.00  0.00    +0.126 A 
ENDBRANCH  10  22
ENDBRANCH  13   8
BRANCH  16  18
ATOM      5  O   UNL     1      10.454  10.334  23.404  0.00  0.00    -0.271 OA
ATOM      9  N   UNL     1      12.733  10.801  23.559  0.00  0.00    -0.311 N 
ATOM     18  C   UNL     1      11.623  10.129  23.078  0.00  0.00    +0.240 C 
ATOM     32  H   UNL     1      13.659  10.544  23.229  0.00  0.00    +0.149 HD
BRANCH   9  20
ATOM     20  C   UNL     1      12.651  11.863  24.537  0.00  0.00    +0.113 C 
BRANCH  20  21
ATOM     21  C   UNL     1      12.086  13.147  23.946  0.00  0.00    +0.114 C 
BRANCH  21  23
ATOM      7  O   UNL     1      10.461  13.814  25.623  0.00  0.00    -0.276 OA
ATOM     11  N   UNL     1       9.736  13.383  23.486  0.00  0.00    -0.329 N 
ATOM     23  C   UNL     1      10.701  13.489  24.465  0.00  0.00    +0.212 C 
ATOM     34  H   UNL     1       9.957  13.107  22.534  0.00  0.00    +0.145 HD
ATOM     35  H   UNL     1       8.762  13.578  23.689  0.00  0.00    +0.145 HD
ENDBRANCH  21  23
ENDBRANCH  20  21
ENDBRANCH   9  20
ENDBRANCH  16  18
BRANCH  12   3
ATOM      3  O   UNL     1      12.465   5.886  21.527  0.00  0.00    -0.387 OA
ATOM     30  H   UNL     1      12.889   6.254  22.321  0.00  0.00    +0.210 HD
ENDBRANCH  12   3
BRANCH  14   4
ATOM      4  O   UNL     1      11.382   8.343  19.042  0.00  0.00    -0.389 OA
ATOM     31  H   UNL     1      10.524   8.296  18.585  0.00  0.00    +0.210 HD
ENDBRANCH  14   4
TORSDOF 8
ENDMDL
MODEL 5
REMARK VINA RESULT:      -6.9     29.431     32.418
REMARK  Name = 11865672
REMARK  8 active torsions:
REMARK  status: ('A' for Active; 'I' for Inactive)
REMARK    1  A    between atoms: O_3  and  C_12
REMARK    2  A    between atoms: O_4  and  C_14
REMARK    3  A    between atoms: N_8  and  C_13
REMARK    4  A    between atoms: N_9  and  C_20
REMARK    5  A    between atoms: N_10  and  C_22
REMARK    6  A    between atoms: C_16  and  C_18
REMARK    7  A    between atoms: C_20  and  C_21
REMARK    8  A    between atoms: C_21  and  C_23
REMARK                            x       y       z     vdW  Elec       q    Type
REMARK                         _______ _______ _______ _____ _____    ______ ____
ROOT
ATOM     12  C   UNL     1      12.402   7.560  22.061  0.00  0.00    +0.167 C 
ATOM     13  C   UNL     1      13.493   7.002  21.126  0.00  0.00    +0.129 C 
ATOM     14  C   UNL     1      11.009   7.450  21.428  0.00  0.00    +0.149 C 
ATOM     15  C   UNL     1      10.941   8.142  20.056  0.00  0.00    +0.074 C 
ATOM     16  C   UNL     1      12.182   7.956  19.231  0.00  0.00    +0.015 C 
ATOM     17  C   UNL     1      13.330   7.438  19.695  0.00  0.00    +0.006 C 
ENDROOT
BRANCH  13   8
ATOM      6  O   UNL     1      15.981   6.205  19.951  0.00  0.00    -0.252 OA
ATOM      8  N   UNL     1      14.815   7.364  21.576  0.00  0.00    -0.290 N 
ATOM     10  N   UNL     1      17.110   7.438  21.598  0.00  0.00    -0.267 N 
ATOM     19  C   UNL     1      15.985   6.931  20.942  0.00  0.00    +0.304 C 
ATOM     29  H   UNL     1      14.905   7.916  22.424  0.00  0.00    +0.151 HD
ATOM     33  H   UNL     1      16.941   8.027  22.409  0.00  0.00    +0.156 HD
BRANCH  10  22
ATOM      1  F   UNL     1      18.988   9.485  21.827  0.00  0.00    -0.203 F 
ATOM      2  F   UNL     1      22.443   6.626  20.321  0.00  0.00    -0.205 F 
ATOM     22  C   UNL     1      18.471   7.235  21.272  0.00  0.00    +0.070 A 
ATOM     24  C   UNL     1      19.386   8.279  21.398  0.00  0.00    +0.147 A 
ATOM     25  C   UNL     1      18.897   5.984  20.824  0.00  0.00    +0.029 A 
ATOM     26  C   UNL     1      20.728   8.074  21.076  0.00  0.00    +0.078 A 
ATOM     27  C   UNL     1      20.239   5.779  20.502  0.00  0.00    +0.040 A 
ATOM     28  C   UNL     1      21.155   6.824  20.628  0.00  0.00    +0.126 A 
ENDBRANCH  10  22
ENDBRANCH  13   8
BRANCH  16  18
ATOM      5  O   UNL     1      11.266   7.902  17.068  0.00  0.00    -0.271 OA
ATOM      9  N   UNL     1      13.151   9.216  17.465  0.00  0.00    -0.311 N 
ATOM     18  C   UNL     1      12.138   8.342  17.818  0.00  0.00    +0.240 C 
ATOM     32  H   UNL     1      13.815   9.526  18.168  0.00  0.00    +0.149 HD
BRANCH   9  20
ATOM     20  C   UNL     1      13.314   9.736  16.126  0.00  0.00    +0.113 C 
BRANCH  20  21
ATOM     21  C   UNL     1      14.430  10.768  16.042  0.00  0.00    +0.114 C 
BRANCH  21  23
ATOM      7  O   UNL     1      14.191  11.660  13.796  0.00  0.00    -0.276 OA
ATOM     11  N   UNL     1      16.132  10.563  14.354  0.00  0.00    -0.329 N 
ATOM     23  C   UNL     1      14.874  11.060  14.620  0.00  0.00    +0.212 C 
ATOM     34  H   UNL     1      16.678  10.066  15.051  0.00  0.00    +0.145 HD
ATOM     35  H   UNL     1      16.558  10.681  13.441  0.00  0.00    +0.145 HD
ENDBRANCH  21  23
ENDBRANCH  20  21
ENDBRANCH   9  20
ENDBRANCH  16  18
BRANCH  12   3
ATOM      3  O   UNL     1      12.671   8.935  22.344  0.00  0.00    -0.387 OA
ATOM     30  H   UNL     1      11.910   9.452  22.030  0.00  0.00    +0.210 HD
ENDBRANCH  12   3
BRANCH  14   4
ATOM      4  O   UNL     1      10.634   6.080  21.304  0.00  0.00    -0.389 OA
ATOM     31  H   UNL     1       9.745   5.983  21.689  0.00  0.00    +0.210 HD
ENDBRANCH  14   4
TORSDOF 8
ENDMDL
MODEL 6
REMARK VINA RESULT:      -6.9     32.706     35.076
REMARK  Name = 11865672
REMARK  8 active torsions:
REMARK  status: ('A' for Active; 'I' for Inactive)
REMARK    1  A    between atoms: O_3  and  C_12
REMARK    2  A    between atoms: O_4  and  C_14
REMARK    3  A    between atoms: N_8  and  C_13
REMARK    4  A    between atoms: N_9  and  C_20
REMARK    5  A    between atoms: N_10  and  C_22
REMARK    6  A    between atoms: C_16  and  C_18
REMARK    7  A    between atoms: C_20  and  C_21
REMARK    8  A    between atoms: C_21  and  C_23
REMARK                            x       y       z     vdW  Elec       q    Type
REMARK                         _______ _______ _______ _____ _____    ______ ____
ROOT
ATOM     12  C   UNL     1      19.893   8.428  22.328  0.00  0.00    +0.167 C 
ATOM     13  C   UNL     1      19.297   7.215  21.586  0.00  0.00    +0.129 C 
ATOM     14  C   UNL     1      21.421   8.469  22.200  0.00  0.00    +0.149 C 
ATOM     15  C   UNL     1      22.078   7.167  22.691  0.00  0.00    +0.074 C 
ATOM     16  C   UNL     1      21.304   5.933  22.324  0.00  0.00    +0.015 C 
ATOM     17  C   UNL     1      20.061   5.941  21.819  0.00  0.00    +0.006 C 
ENDROOT
BRANCH  13   8
ATOM      6  O   UNL     1      16.999   8.189  20.180  0.00  0.00    -0.252 OA
ATOM      8  N   UNL     1      17.915   7.002  21.940  0.00  0.00    -0.290 N 
ATOM     10  N   UNL     1      15.628   7.148  21.775  0.00  0.00    -0.267 N 
ATOM     19  C   UNL     1      16.846   7.514  21.195  0.00  0.00    +0.304 C 
ATOM     29  H   UNL     1      17.705   6.501  22.798  0.00  0.00    +0.151 HD
ATOM     33  H   UNL     1      15.675   6.584  22.621  0.00  0.00    +0.156 HD
BRANCH  10  22
ATOM      1  F   UNL     1      14.645   6.200  19.346  0.00  0.00    -0.203 F 
ATOM      2  F   UNL     1      10.512   8.391  20.045  0.00  0.00    -0.205 F 
ATOM     22  C   UNL     1      14.324   7.464  21.331  0.00  0.00    +0.070 A 
ATOM     24  C   UNL     1      13.861   6.973  20.110  0.00  0.00    +0.147 A 
ATOM     25  C   UNL     1      13.499   8.269  22.117  0.00  0.00    +0.029 A 
ATOM     26  C   UNL     1      12.573   7.287  19.675  0.00  0.00    +0.078 A 
ATOM     27  C   UNL     1      12.211   8.582  21.683  0.00  0.00    +0.040 A 
ATOM     28  C   UNL     1      11.748   8.091  20.461  0.00  0.00    +0.126 A 
ENDBRANCH  10  22
ENDBRANCH  13   8
BRANCH  16  18
ATOM      5  O   UNL     1      22.236   4.215  23.628  0.00  0.00    -0.271 OA
ATOM      9  N   UNL     1      22.189   3.975  21.310  0.00  0.00    -0.311 N 
ATOM     18  C   UNL     1      21.953   4.631  22.505  0.00  0.00    +0.240 C 
ATOM     32  H   UNL     1      21.905   4.405  20.435  0.00  0.00    +0.149 HD
BRANCH   9  20
ATOM     20  C   UNL     1      22.821   2.677  21.233  0.00  0.00    +0.113 C 
BRANCH  20  21
ATOM     21  C   UNL     1      24.319   2.779  20.983  0.00  0.00    +0.114 C 
BRANCH  21  23
ATOM      7  O   UNL     1      24.868   4.886  19.908  0.00  0.00    -0.276 OA
ATOM     11  N   UNL     1      24.743   2.986  18.623  0.00  0.00    -0.329 N 
ATOM     23  C   UNL     1      24.674   3.679  19.813  0.00  0.00    +0.212 C 
ATOM     34  H   UNL     1      24.574   1.986  18.567  0.00  0.00    +0.145 HD
ATOM     35  H   UNL     1      24.967   3.459  17.755  0.00  0.00    +0.145 HD
ENDBRANCH  21  23
ENDBRANCH  20  21
ENDBRANCH   9  20
ENDBRANCH  16  18
BRANCH  12   3
ATOM      3  O   UNL     1      19.549   8.357  23.714  0.00  0.00    -0.387 OA
ATOM     30  H   UNL     1      19.113   7.501  23.863  0.00  0.00    +0.210 HD
ENDBRANCH  12   3
BRANCH  14   4
ATOM      4  O   UNL     1      21.794   8.725  20.848  0.00  0.00    -0.389 OA
ATOM     31  H   UNL     1      20.978   8.747  20.318  0.00  0.00    +0.210 HD
ENDBRANCH  14   4
TORSDOF 8
ENDMDL
MODEL 7
REMARK VINA RESULT:      -6.7      5.213      9.458
REMARK  Name = 11865672
REMARK  8 active torsions:
REMARK  status: ('A' for Active; 'I' for Inactive)
REMARK    1  A    between atoms: O_3  and  C_12
REMARK    2  A    between atoms: O_4  and  C_14
REMARK    3  A    between atoms: N_8  and  C_13
REMARK    4  A    between atoms: N_9  and  C_20
REMARK    5  A    between atoms: N_10  and  C_22
REMARK    6  A    between atoms: C_16  and  C_18
REMARK    7  A    between atoms: C_20  and  C_21
REMARK    8  A    between atoms: C_21  and  C_23
REMARK                            x       y       z     vdW  Elec       q    Type
REMARK                         _______ _______ _______ _____ _____    ______ ____
ROOT
ATOM     12  C   UNL     1     -14.169   1.427  31.575  0.00  0.00    +0.167 C 
ATOM     13  C   UNL     1     -14.434   2.711  30.765  0.00  0.00    +0.129 C 
ATOM     14  C   UNL     1     -14.154   0.187  30.672  0.00  0.00    +0.149 C 
ATOM     15  C   UNL     1     -15.452   0.047  29.859  0.00  0.00    +0.074 C 
ATOM     16  C   UNL     1     -15.989   1.358  29.362  0.00  0.00    +0.015 C 
ATOM     17  C   UNL     1     -15.536   2.559  29.753  0.00  0.00    +0.006 C 
ENDROOT
BRANCH  13   8
ATOM      6  O   UNL     1     -12.561   4.314  32.225  0.00  0.00    -0.252 OA
ATOM      8  N   UNL     1     -14.740   3.828  31.625  0.00  0.00    -0.290 N 
ATOM     10  N   UNL     1     -14.353   5.581  33.058  0.00  0.00    -0.267 N 
ATOM     19  C   UNL     1     -13.762   4.563  32.305  0.00  0.00    +0.304 C 
ATOM     29  H   UNL     1     -15.715   4.062  31.788  0.00  0.00    +0.151 HD
ATOM     33  H   UNL     1     -15.366   5.653  33.016  0.00  0.00    +0.156 HD
BRANCH  10  22
ATOM      1  F   UNL     1     -13.916   5.112  35.770  0.00  0.00    -0.203 F 
ATOM      2  F   UNL     1     -11.837   9.331  36.272  0.00  0.00    -0.205 F 
ATOM     22  C   UNL     1     -13.713   6.536  33.880  0.00  0.00    +0.070 A 
ATOM     24  C   UNL     1     -13.508   6.271  35.234  0.00  0.00    +0.147 A 
ATOM     25  C   UNL     1     -13.284   7.746  33.334  0.00  0.00    +0.029 A 
ATOM     26  C   UNL     1     -12.875   7.215  36.043  0.00  0.00    +0.078 A 
ATOM     27  C   UNL     1     -12.650   8.690  34.142  0.00  0.00    +0.040 A 
ATOM     28  C   UNL     1     -12.446   8.425  35.497  0.00  0.00    +0.126 A 
ENDBRANCH  10  22
ENDBRANCH  13   8
BRANCH  16  18
ATOM      5  O   UNL     1     -17.789   0.344  28.243  0.00  0.00    -0.271 OA
ATOM      9  N   UNL     1     -17.147   2.500  27.630  0.00  0.00    -0.311 N 
ATOM     18  C   UNL     1     -17.065   1.332  28.367  0.00  0.00    +0.240 C 
ATOM     32  H   UNL     1     -16.503   3.262  27.821  0.00  0.00    +0.149 HD
BRANCH   9  20
ATOM     20  C   UNL     1     -18.127   2.709  26.588  0.00  0.00    +0.113 C 
BRANCH  20  21
ATOM     21  C   UNL     1     -17.505   3.272  25.317  0.00  0.00    +0.114 C 
BRANCH  21  23
ATOM      7  O   UNL     1     -16.399   1.136  24.983  0.00  0.00    -0.276 OA
ATOM     11  N   UNL     1     -16.002   2.837  23.489  0.00  0.00    -0.329 N 
ATOM     23  C   UNL     1     -16.595   2.287  24.606  0.00  0.00    +0.212 C 
ATOM     34  H   UNL     1     -16.176   3.794  23.198  0.00  0.00    +0.145 HD
ATOM     35  H   UNL     1     -15.365   2.295  22.916  0.00  0.00    +0.145 HD
ENDBRANCH  21  23
ENDBRANCH  20  21
ENDBRANCH   9  20
ENDBRANCH  16  18
BRANCH  12   3
ATOM      3  O   UNL     1     -15.189   1.264  32.562  0.00  0.00    -0.387 OA
ATOM     30  H   UNL     1     -15.629   0.414  32.391  0.00  0.00    +0.210 HD
ENDBRANCH  12   3
BRANCH  14   4
ATOM      4  O   UNL     1     -13.030   0.232  29.796  0.00  0.00    -0.389 OA
ATOM     31  H   UNL     1     -13.291   0.744  29.010  0.00  0.00    +0.210 HD
ENDBRANCH  14   4
TORSDOF 8
ENDMDL
MODEL 8
REMARK VINA RESULT:      -6.7     17.726     19.842
REMARK  Name = 11865672
REMARK  8 active torsions:
REMARK  status: ('A' for Active; 'I' for Inactive)
REMARK    1  A    between atoms: O_3  and  C_12
REMARK    2  A    between atoms: O_4  and  C_14
REMARK    3  A    between atoms: N_8  and  C_13
REMARK    4  A    between atoms: N_9  and  C_20
REMARK    5  A    between atoms: N_10  and  C_22
REMARK    6  A    between atoms: C_16  and  C_18
REMARK    7  A    between atoms: C_20  and  C_21
REMARK    8  A    between atoms: C_21  and  C_23
REMARK                            x       y       z     vdW  Elec       q    Type
REMARK                         _______ _______ _______ _____ _____    ______ ____
ROOT
ATOM     12  C   UNL     1      -6.864 -11.232  17.617  0.00  0.00    +0.167 C 
ATOM     13  C   UNL     1      -6.431  -9.836  17.126  0.00  0.00    +0.129 C 
ATOM     14  C   UNL     1      -5.725 -11.946  18.356  0.00  0.00    +0.149 C 
ATOM     15  C   UNL     1      -4.455 -12.054  17.495  0.00  0.00    +0.074 C 
ATOM     16  C   UNL     1      -4.190 -10.830  16.665  0.00  0.00    +0.015 C 
ATOM     17  C   UNL     1      -5.063  -9.824  16.499  0.00  0.00    +0.006 C 
ENDROOT
BRANCH  13   8
ATOM      6  O   UNL     1      -9.049  -8.839  17.725  0.00  0.00    -0.252 OA
ATOM      8  N   UNL     1      -7.379  -9.284  16.190  0.00  0.00    -0.290 N 
ATOM     10  N   UNL     1      -9.337  -8.340  15.450  0.00  0.00    -0.267 N 
ATOM     19  C   UNL     1      -8.643  -8.816  16.565  0.00  0.00    +0.304 C 
ATOM     29  H   UNL     1      -7.140  -9.281  15.202  0.00  0.00    +0.151 HD
ATOM     33  H   UNL     1      -8.858  -8.392  14.555  0.00  0.00    +0.156 HD
BRANCH  10  22
ATOM      1  F   UNL     1     -11.607  -9.956  15.379  0.00  0.00    -0.203 F 
ATOM      2  F   UNL     1     -14.432  -6.163  15.288  0.00  0.00    -0.205 F 
ATOM     22  C   UNL     1     -10.638  -7.787  15.407  0.00  0.00    +0.070 A 
ATOM     24  C   UNL     1     -11.754  -8.623  15.374  0.00  0.00    +0.147 A 
ATOM     25  C   UNL     1     -10.804  -6.402  15.400  0.00  0.00    +0.029 A 
ATOM     26  C   UNL     1     -13.036  -8.075  15.333  0.00  0.00    +0.078 A 
ATOM     27  C   UNL     1     -12.086  -5.853  15.360  0.00  0.00    +0.040 A 
ATOM     28  C   UNL     1     -13.202  -6.690  15.326  0.00  0.00    +0.126 A 
ENDBRANCH  10  22
ENDBRANCH  13   8
BRANCH  16  18
ATOM      5  O   UNL     1      -1.841 -10.876  16.640  0.00  0.00    -0.271 OA
ATOM      9  N   UNL     1      -2.984 -10.397  14.665  0.00  0.00    -0.311 N 
ATOM     18  C   UNL     1      -2.885 -10.708  16.010  0.00  0.00    +0.240 C 
ATOM     32  H   UNL     1      -3.900 -10.290  14.239  0.00  0.00    +0.149 HD
BRANCH   9  20
ATOM     20  C   UNL     1      -1.833 -10.223  13.808  0.00  0.00    +0.113 C 
BRANCH  20  21
ATOM     21  C   UNL     1      -2.057 -10.804  12.419  0.00  0.00    +0.114 C 
BRANCH  21  23
ATOM      7  O   UNL     1      -4.384 -10.190  12.088  0.00  0.00    -0.276 OA
ATOM     11  N   UNL     1      -2.839  -9.580  10.500  0.00  0.00    -0.329 N 
ATOM     23  C   UNL     1      -3.225 -10.171  11.683  0.00  0.00    +0.212 C 
ATOM     34  H   UNL     1      -1.874  -9.580  10.183  0.00  0.00    +0.145 HD
ATOM     35  H   UNL     1      -3.516  -9.120   9.900  0.00  0.00    +0.145 HD
ENDBRANCH  21  23
ENDBRANCH  20  21
ENDBRANCH   9  20
ENDBRANCH  16  18
BRANCH  12   3
ATOM      3  O   UNL     1      -7.260 -12.030  16.500  0.00  0.00    -0.387 OA
ATOM     30  H   UNL     1      -8.230 -12.099  16.519  0.00  0.00    +0.210 HD
ENDBRANCH  12   3
BRANCH  14   4
ATOM      4  O   UNL     1      -5.433 -11.270  19.577  0.00  0.00    -0.389 OA
ATOM     31  H   UNL     1      -5.176 -10.358  19.354  0.00  0.00    +0.210 HD
ENDBRANCH  14   4
TORSDOF 8
ENDMDL
MODEL 9
REMARK VINA RESULT:      -6.7     17.306     19.156
REMARK  Name = 11865672
REMARK  8 active torsions:
REMARK  status: ('A' for Active; 'I' for Inactive)
REMARK    1  A    between atoms: O_3  and  C_12
REMARK    2  A    between atoms: O_4  and  C_14
REMARK    3  A    between atoms: N_8  and  C_13
REMARK    4  A    between atoms: N_9  and  C_20
REMARK    5  A    between atoms: N_10  and  C_22
REMARK    6  A    between atoms: C_16  and  C_18
REMARK    7  A    between atoms: C_20  and  C_21
REMARK    8  A    between atoms: C_21  and  C_23
REMARK                            x       y       z     vdW  Elec       q    Type
REMARK                         _______ _______ _______ _____ _____    ______ ____
ROOT
ATOM     12  C   UNL     1      -7.952 -10.420  18.299  0.00  0.00    +0.167 C 
ATOM     13  C   UNL     1      -7.371  -9.470  17.233  0.00  0.00    +0.129 C 
ATOM     14  C   UNL     1      -6.859 -10.950  19.235  0.00  0.00    +0.149 C 
ATOM     15  C   UNL     1      -5.722 -11.643  18.464  0.00  0.00    +0.074 C 
ATOM     16  C   UNL     1      -5.370 -10.958  17.175  0.00  0.00    +0.015 C 
ATOM     17  C   UNL     1      -6.095  -9.976  16.617  0.00  0.00    +0.006 C 
ENDROOT
BRANCH  13   8
ATOM      6  O   UNL     1      -9.761  -7.905  17.444  0.00  0.00    -0.252 OA
ATOM      8  N   UNL     1      -8.323  -9.203  16.183  0.00  0.00    -0.290 N 
ATOM     10  N   UNL     1     -10.200  -8.340  15.180  0.00  0.00    -0.267 N 
ATOM     19  C   UNL     1      -9.470  -8.424  16.369  0.00  0.00    +0.304 C 
ATOM     29  H   UNL     1      -8.184  -9.643  15.278  0.00  0.00    +0.151 HD
ATOM     33  H   UNL     1      -9.821  -8.830  14.374  0.00  0.00    +0.156 HD
BRANCH  10  22
ATOM      1  F   UNL     1     -10.322  -5.556  15.206  0.00  0.00    -0.203 F 
ATOM      2  F   UNL     1     -14.961  -5.646  14.282  0.00  0.00    -0.205 F 
ATOM     22  C   UNL     1     -11.413  -7.650  14.952  0.00  0.00    +0.070 A 
ATOM     24  C   UNL     1     -11.441  -6.256  14.971  0.00  0.00    +0.147 A 
ATOM     25  C   UNL     1     -12.584  -8.367  14.707  0.00  0.00    +0.029 A 
ATOM     26  C   UNL     1     -12.639  -5.578  14.745  0.00  0.00    +0.078 A 
ATOM     27  C   UNL     1     -13.783  -7.690  14.481  0.00  0.00    +0.040 A 
ATOM     28  C   UNL     1     -13.810  -6.295  14.500  0.00  0.00    +0.126 A 
ENDBRANCH  10  22
ENDBRANCH  13   8
BRANCH  16  18
ATOM      5  O   UNL     1      -3.998 -12.521  16.082  0.00  0.00    -0.271 OA
ATOM      9  N   UNL     1      -3.225 -10.339  16.364  0.00  0.00    -0.311 N 
ATOM     18  C   UNL     1      -4.143 -11.367  16.487  0.00  0.00    +0.240 C 
ATOM     32  H   UNL     1      -3.450  -9.417  16.726  0.00  0.00    +0.149 HD
BRANCH   9  20
ATOM     20  C   UNL     1      -1.938 -10.501  15.724  0.00  0.00    +0.113 C 
BRANCH  20  21
ATOM     21  C   UNL     1      -2.012 -10.279  14.220  0.00  0.00    +0.114 C 
BRANCH  21  23
ATOM      7  O   UNL     1      -2.067 -11.629  12.202  0.00  0.00    -0.276 OA
ATOM     11  N   UNL     1      -1.582 -12.647  14.205  0.00  0.00    -0.329 N 
ATOM     23  C   UNL     1      -1.895 -11.561  13.415  0.00  0.00    +0.212 C 
ATOM     34  H   UNL     1      -1.448 -12.567  15.209  0.00  0.00    +0.145 HD
ATOM     35  H   UNL     1      -1.475 -13.572  13.803  0.00  0.00    +0.145 HD
ENDBRANCH  21  23
ENDBRANCH  20  21
ENDBRANCH   9  20
ENDBRANCH  16  18
BRANCH  12   3
ATOM      3  O   UNL     1      -8.584 -11.530  17.657  0.00  0.00    -0.387 OA
ATOM     30  H   UNL     1      -9.375 -11.192  17.202  0.00  0.00    +0.210 HD
ENDBRANCH  12   3
BRANCH  14   4
ATOM      4  O   UNL     1      -6.334  -9.887  20.028  0.00  0.00    -0.389 OA
ATOM     31  H   UNL     1      -7.074  -9.296  20.253  0.00  0.00    +0.210 HD
ENDBRANCH  14   4
TORSDOF 8
ENDMDL
MODEL 10
REMARK VINA RESULT:      -6.5     18.544     20.127
REMARK  Name = 11865672
REMARK  8 active torsions:
REMARK  status: ('A' for Active; 'I' for Inactive)
REMARK    1  A    between atoms: O_3  and  C_12
REMARK    2  A    between atoms: O_4  and  C_14
REMARK    3  A    between atoms: N_8  and  C_13
REMARK    4  A    between atoms: N_9  and  C_20
REMARK    5  A    between atoms: N_10  and  C_22
REMARK    6  A    between atoms: C_16  and  C_18
REMARK    7  A    between atoms: C_20  and  C_21
REMARK    8  A    between atoms: C_21  and  C_23
REMARK                            x       y       z     vdW  Elec       q    Type
REMARK                         _______ _______ _______ _____ _____    ______ ____
ROOT
ATOM     12  C   UNL     1      -4.296 -10.881  16.435  0.00  0.00    +0.167 C 
ATOM     13  C   UNL     1      -5.657 -11.047  15.731  0.00  0.00    +0.129 C 
ATOM     14  C   UNL     1      -4.282 -11.578  17.802  0.00  0.00    +0.149 C 
ATOM     15  C   UNL     1      -5.418 -11.085  18.714  0.00  0.00    +0.074 C 
ATOM     16  C   UNL     1      -6.708 -10.843  17.984  0.00  0.00    +0.015 C 
ATOM     17  C   UNL     1      -6.831 -10.832  16.647  0.00  0.00    +0.006 C 
ENDROOT
BRANCH  13   8
ATOM      6  O   UNL     1      -5.329 -11.741  12.971  0.00  0.00    -0.252 OA
ATOM      8  N   UNL     1      -5.781 -10.162  14.598  0.00  0.00    -0.290 N 
ATOM     10  N   UNL     1      -5.787  -9.511  12.396  0.00  0.00    -0.267 N 
ATOM     19  C   UNL     1      -5.606 -10.582  13.275  0.00  0.00    +0.304 C 
ATOM     29  H   UNL     1      -5.953  -9.175  14.770  0.00  0.00    +0.151 HD
ATOM     33  H   UNL     1      -6.012  -8.611  12.811  0.00  0.00    +0.156 HD
BRANCH  10  22
ATOM      1  F   UNL     1      -3.328  -9.382  11.091  0.00  0.00    -0.203 F 
ATOM      2  F   UNL     1      -5.444  -9.557   6.864  0.00  0.00    -0.205 F 
ATOM     22  C   UNL     1      -5.696  -9.522  10.985  0.00  0.00    +0.070 A 
ATOM     24  C   UNL     1      -4.450  -9.456  10.362  0.00  0.00    +0.147 A 
ATOM     25  C   UNL     1      -6.857  -9.599  10.215  0.00  0.00    +0.029 A 
ATOM     26  C   UNL     1      -4.364  -9.468   8.970  0.00  0.00    +0.078 A 
ATOM     27  C   UNL     1      -6.772  -9.610   8.823  0.00  0.00    +0.040 A 
ATOM     28  C   UNL     1      -5.525  -9.545   8.200  0.00  0.00    +0.126 A 
ENDBRANCH  10  22
ENDBRANCH  13   8
BRANCH  16  18
ATOM      5  O   UNL     1      -7.992 -11.008  19.944  0.00  0.00    -0.271 OA
ATOM      9  N   UNL     1      -8.916  -9.972  18.072  0.00  0.00    -0.311 N 
ATOM     18  C   UNL     1      -7.921 -10.626  18.776  0.00  0.00    +0.240 C 
ATOM     32  H   UNL     1      -8.750  -9.689  17.110  0.00  0.00    +0.149 HD
BRANCH   9  20
ATOM     20  C   UNL     1     -10.205  -9.648  18.641  0.00  0.00    +0.113 C 
BRANCH  20  21
ATOM     21  C   UNL     1     -11.119  -8.956  17.641  0.00  0.00    +0.114 C 
BRANCH  21  23
ATOM      7  O   UNL     1      -9.660  -8.389  15.784  0.00  0.00    -0.276 OA
ATOM     11  N   UNL     1     -10.611  -6.691  17.007  0.00  0.00    -0.329 N 
ATOM     23  C   UNL     1     -10.384  -8.016  16.703  0.00  0.00    +0.212 C 
ATOM     34  H   UNL     1     -11.211  -6.406  17.775  0.00  0.00    +0.145 HD
ATOM     35  H   UNL     1     -10.181  -5.949  16.465  0.00  0.00    +0.145 HD
ENDBRANCH  21  23
ENDBRANCH  20  21
ENDBRANCH   9  20
ENDBRANCH  16  18
BRANCH  12   3
ATOM      3  O   UNL     1      -4.022  -9.491  16.625  0.00  0.00    -0.387 OA
ATOM     30  H   UNL     1      -4.612  -9.170  17.329  0.00  0.00    +0.210 HD
ENDBRANCH  12   3
BRANCH  14   4
ATOM      4  O   UNL     1      -4.367 -12.991  17.633  0.00  0.00    -0.389 OA
ATOM     31  H   UNL     1      -3.537 -13.377  17.962  0.00  0.00    +0.210 HD
ENDBRANCH  14   4
TORSDOF 8
ENDMDL
