MODEL 1
REMARK VINA RESULT:      -6.9      0.000      0.000
REMARK  Name = 7135197
REMARK  9 active torsions:
REMARK  status: ('A' for Active; 'I' for Inactive)
REMARK    1  A    between atoms: O_2  and  C_16
REMARK    2  A    between atoms: O_3  and  C_21
REMARK    3  A    between atoms: C_11  and  C_19
REMARK    4  A    between atoms: C_13  and  C_21
REMARK    5  A    between atoms: C_13  and  C_22
REMARK    6  A    between atoms: C_14  and  C_24
REMARK    7  A    between atoms: C_24  and  C_25
REMARK    8  A    between atoms: C_29  and  C_30
REMARK    9  A    between atoms: C_36  and  C_37
REMARK                            x       y       z     vdW  Elec       q    Type
REMARK                         _______ _______ _______ _____ _____    ______ ____
ROOT
ATOM      1  S   UNL     1     -10.435 -10.815  19.929  0.00  0.00    -0.057 S 
ATOM      5  O   UNL     1      -7.228  -9.274  16.941  0.00  0.00    -0.275 OA
ATOM      7  N   UNL     1     -10.051  -9.431  17.778  0.00  0.00    -0.229 NA
ATOM      9  N   UNL     1      -8.100 -10.402  18.809  0.00  0.00    -0.264 N 
ATOM     11  C   UNL     1     -13.881  -9.141  17.436  0.00  0.00    -0.019 C 
ATOM     12  C   UNL     1     -14.103  -9.185  19.012  0.00  0.00    +0.011 C 
ATOM     13  C   UNL     1     -15.595  -9.220  19.523  0.00  0.00    +0.021 C 
ATOM     14  C   UNL     1     -12.377  -8.673  17.164  0.00  0.00    +0.054 C 
ATOM     15  C   UNL     1     -14.839  -8.095  16.809  0.00  0.00    +0.010 C 
ATOM     16  C   UNL     1     -16.423  -8.146  18.763  0.00  0.00    +0.123 C 
ATOM     17  C   UNL     1     -13.184 -10.244  19.687  0.00  0.00    +0.049 C 
ATOM     18  C   UNL     1     -16.289  -8.247  17.247  0.00  0.00    +0.032 C 
ATOM     19  C   UNL     1     -14.125 -10.510  16.756  0.00  0.00    +0.012 C 
ATOM     20  C   UNL     1     -11.408  -9.425  18.040  0.00  0.00    +0.058 A 
ATOM     22  C   UNL     1     -15.623  -8.842  21.031  0.00  0.00    +0.016 C 
ATOM     23  C   UNL     1     -11.789 -10.107  19.178  0.00  0.00    +0.015 A 
ATOM     26  C   UNL     1      -9.441 -10.139  18.703  0.00  0.00    +0.165 A 
ATOM     30  C   UNL     1      -7.077  -9.970  17.948  0.00  0.00    +0.222 C 
ATOM     40  H   UNL     1      -7.837 -10.975  19.607  0.00  0.00    +0.157 HD
ENDROOT
BRANCH  30  29
ATOM     29  C   UNL     1      -5.678 -10.463  18.374  0.00  0.00    +0.075 C 
ATOM     33  C   UNL     1      -5.061 -11.626  17.571  0.00  0.00    +0.013 C 
ATOM     34  C   UNL     1      -5.593 -11.376  19.615  0.00  0.00    +0.013 C 
ATOM     35  C   UNL     1      -4.443 -12.114  18.898  0.00  0.00    +0.001 C 
ENDBRANCH  30  29
BRANCH  16   2
ATOM      2  O   UNL     1     -17.805  -8.238  19.108  0.00  0.00    -0.391 OA
ATOM     38  H   UNL     1     -18.275  -7.531  18.636  0.00  0.00    +0.210 HD
ENDBRANCH  16   2
BRANCH  13  21
ATOM     21  C   UNL     1     -16.272 -10.606  19.429  0.00  0.00    +0.165 C 
BRANCH  21   3
ATOM      3  O   UNL     1     -17.132 -10.742  20.538  0.00  0.00    -0.394 OA
ATOM     39  H   UNL     1     -17.034  -9.941  21.081  0.00  0.00    +0.209 HD
ENDBRANCH  21   3
ENDBRANCH  13  21
BRANCH  14  24
ATOM     24  C   UNL     1     -11.952  -8.718  15.690  0.00  0.00    +0.106 C 
BRANCH  24  25
ATOM      4  O   UNL     1     -10.603  -6.769  15.732  0.00  0.00    -0.276 OA
ATOM      6  O   UNL     1     -16.177  -5.249  11.523  0.00  0.00    -0.276 OA
ATOM      8  N   UNL     1     -12.375  -6.772  14.229  0.00  0.00    -0.298 N 
ATOM     10  N   UNL     1     -14.444  -5.223  13.068  0.00  0.00    -0.299 N 
ATOM     25  C   UNL     1     -11.576  -7.334  15.224  0.00  0.00    +0.216 C 
ATOM     27  C   UNL     1     -13.493  -7.445  13.553  0.00  0.00    +0.126 C 
ATOM     28  C   UNL     1     -12.077  -5.430  13.723  0.00  0.00    +0.126 C 
ATOM     31  C   UNL     1     -14.740  -6.566  13.573  0.00  0.00    +0.126 C 
ATOM     32  C   UNL     1     -13.325  -4.551  13.743  0.00  0.00    +0.126 C 
ATOM     36  C   UNL     1     -15.243  -4.661  12.074  0.00  0.00    +0.213 C 
ATOM     37  C   UNL     1     -14.917  -3.247  11.666  0.00  0.00    +0.109 C 
ENDBRANCH  24  25
ENDBRANCH  14  24
TORSDOF 6
ENDMDL
MODEL 2
REMARK VINA RESULT:      -6.7      4.683      8.801
REMARK  Name = 7135197
REMARK  9 active torsions:
REMARK  status: ('A' for Active; 'I' for Inactive)
REMARK    1  A    between atoms: O_2  and  C_16
REMARK    2  A    between atoms: O_3  and  C_21
REMARK    3  A    between atoms: C_11  and  C_19
REMARK    4  A    between atoms: C_13  and  C_21
REMARK    5  A    between atoms: C_13  and  C_22
REMARK    6  A    between atoms: C_14  and  C_24
REMARK    7  A    between atoms: C_24  and  C_25
REMARK    8  A    between atoms: C_29  and  C_30
REMARK    9  A    between atoms: C_36  and  C_37
REMARK                            x       y       z     vdW  Elec       q    Type
REMARK                         _______ _______ _______ _____ _____    ______ ____
ROOT
ATOM      1  S   UNL     1     -12.667 -12.647  20.421  0.00  0.00    -0.057 S 
ATOM      5  O   UNL     1      -9.833 -14.839  23.379  0.00  0.00    -0.275 OA
ATOM      7  N   UNL     1     -10.194 -13.065  21.052  0.00  0.00    -0.229 NA
ATOM      9  N   UNL     1     -11.862 -14.153  22.410  0.00  0.00    -0.264 N 
ATOM     11  C   UNL     1      -9.190 -11.113  17.881  0.00  0.00    -0.019 C 
ATOM     12  C   UNL     1     -10.481 -10.183  17.951  0.00  0.00    +0.011 C 
ATOM     13  C   UNL     1     -10.702  -9.176  16.757  0.00  0.00    +0.021 C 
ATOM     14  C   UNL     1      -8.931 -11.705  19.343  0.00  0.00    +0.054 C 
ATOM     15  C   UNL     1      -7.961 -10.260  17.475  0.00  0.00    +0.010 C 
ATOM     16  C   UNL     1      -9.366  -8.441  16.452  0.00  0.00    +0.123 C 
ATOM     17  C   UNL     1     -11.752 -11.000  18.325  0.00  0.00    +0.049 C 
ATOM     18  C   UNL     1      -8.191  -9.392  16.246  0.00  0.00    +0.032 C 
ATOM     19  C   UNL     1      -9.342 -12.278  16.873  0.00  0.00    +0.012 C 
ATOM     20  C   UNL     1     -10.207 -12.232  19.948  0.00  0.00    +0.058 A 
ATOM     22  C   UNL     1     -11.734  -8.096  17.189  0.00  0.00    +0.016 C 
ATOM     23  C   UNL     1     -11.462 -11.888  19.488  0.00  0.00    +0.015 A 
ATOM     26  C   UNL     1     -11.433 -13.354  21.383  0.00  0.00    +0.165 A 
ATOM     30  C   UNL     1     -11.067 -14.843  23.341  0.00  0.00    +0.222 C 
ATOM     40  H   UNL     1     -12.871 -14.244  22.491  0.00  0.00    +0.157 HD
ENDROOT
BRANCH  30  29
ATOM     29  C   UNL     1     -11.892 -15.655  24.361  0.00  0.00    +0.075 C 
ATOM     33  C   UNL     1     -13.020 -14.917  25.109  0.00  0.00    +0.013 C 
ATOM     34  C   UNL     1     -11.254 -15.920  25.742  0.00  0.00    +0.013 C 
ATOM     35  C   UNL     1     -12.672 -15.785  26.336  0.00  0.00    +0.001 C 
ENDBRANCH  30  29
BRANCH  16   2
ATOM      2  O   UNL     1      -9.498  -7.618  15.293  0.00  0.00    -0.391 OA
ATOM     38  H   UNL     1      -8.693  -7.078  15.222  0.00  0.00    +0.210 HD
ENDBRANCH  16   2
BRANCH  13  21
ATOM     21  C   UNL     1     -11.283  -9.818  15.477  0.00  0.00    +0.165 C 
BRANCH  21   3
ATOM      3  O   UNL     1     -12.133  -8.872  14.868  0.00  0.00    -0.394 OA
ATOM     39  H   UNL     1     -13.006  -8.954  15.288  0.00  0.00    +0.209 HD
ENDBRANCH  21   3
ENDBRANCH  13  21
BRANCH  14  24
ATOM     24  C   UNL     1      -7.804 -12.743  19.419  0.00  0.00    +0.106 C 
BRANCH  24  25
ATOM      4  O   UNL     1      -6.262 -11.293  20.488  0.00  0.00    -0.276 OA
ATOM      6  O   UNL     1      -3.369 -12.977  14.172  0.00  0.00    -0.276 OA
ATOM      8  N   UNL     1      -5.547 -12.298  18.519  0.00  0.00    -0.298 N 
ATOM     10  N   UNL     1      -4.108 -11.927  16.108  0.00  0.00    -0.299 N 
ATOM     25  C   UNL     1      -6.471 -12.044  19.531  0.00  0.00    +0.216 C 
ATOM     27  C   UNL     1      -5.738 -13.241  17.408  0.00  0.00    +0.126 C 
ATOM     28  C   UNL     1      -4.231 -11.655  18.554  0.00  0.00    +0.126 C 
ATOM     31  C   UNL     1      -5.424 -12.569  16.074  0.00  0.00    +0.126 C 
ATOM     32  C   UNL     1      -3.917 -10.985  17.219  0.00  0.00    +0.126 C 
ATOM     36  C   UNL     1      -3.184 -12.179  15.095  0.00  0.00    +0.213 C 
ATOM     37  C   UNL     1      -1.884 -11.418  15.163  0.00  0.00    +0.109 C 
ENDBRANCH  24  25
ENDBRANCH  14  24
TORSDOF 6
ENDMDL
MODEL 3
REMARK VINA RESULT:      -6.5     30.694     34.184
REMARK  Name = 7135197
REMARK  9 active torsions:
REMARK  status: ('A' for Active; 'I' for Inactive)
REMARK    1  A    between atoms: O_2  and  C_16
REMARK    2  A    between atoms: O_3  and  C_21
REMARK    3  A    between atoms: C_11  and  C_19
REMARK    4  A    between atoms: C_13  and  C_21
REMARK    5  A    between atoms: C_13  and  C_22
REMARK    6  A    between atoms: C_14  and  C_24
REMARK    7  A    between atoms: C_24  and  C_25
REMARK    8  A    between atoms: C_29  and  C_30
REMARK    9  A    between atoms: C_36  and  C_37
REMARK                            x       y       z     vdW  Elec       q    Type
REMARK                         _______ _______ _______ _____ _____    ______ ____
ROOT
ATOM      1  S   UNL     1      13.603   8.306   6.692  0.00  0.00    -0.057 S 
ATOM      5  O   UNL     1      10.627   5.094   5.137  0.00  0.00    -0.275 OA
ATOM      7  N   UNL     1      13.048   6.725   4.722  0.00  0.00    -0.229 NA
ATOM      9  N   UNL     1      11.552   6.675   6.610  0.00  0.00    -0.264 N 
ATOM     11  C   UNL     1      15.934   8.368   2.761  0.00  0.00    -0.019 C 
ATOM     12  C   UNL     1      16.769   8.663   4.084  0.00  0.00    +0.011 C 
ATOM     13  C   UNL     1      18.102   9.490   3.919  0.00  0.00    +0.021 C 
ATOM     14  C   UNL     1      14.908   7.185   3.080  0.00  0.00    +0.054 C 
ATOM     15  C   UNL     1      16.894   7.892   1.640  0.00  0.00    +0.010 C 
ATOM     16  C   UNL     1      18.920   8.912   2.729  0.00  0.00    +0.123 C 
ATOM     17  C   UNL     1      15.853   9.174   5.233  0.00  0.00    +0.049 C 
ATOM     18  C   UNL     1      18.107   8.791   1.444  0.00  0.00    +0.032 C 
ATOM     19  C   UNL     1      15.152   9.604   2.254  0.00  0.00    +0.012 C 
ATOM     20  C   UNL     1      14.192   7.425   4.384  0.00  0.00    +0.058 A 
ATOM     22  C   UNL     1      18.967   9.318   5.199  0.00  0.00    +0.016 C 
ATOM     23  C   UNL     1      14.643   8.309   5.344  0.00  0.00    +0.015 A 
ATOM     26  C   UNL     1      12.647   7.112   5.912  0.00  0.00    +0.165 A 
ATOM     30  C   UNL     1      10.613   5.710   6.206  0.00  0.00    +0.222 C 
ATOM     40  H   UNL     1      11.422   7.109   7.520  0.00  0.00    +0.157 HD
ENDROOT
BRANCH  30  29
ATOM     29  C   UNL     1       9.502   5.470   7.249  0.00  0.00    +0.075 C 
ATOM     33  C   UNL     1       9.357   6.505   8.383  0.00  0.00    +0.013 C 
ATOM     34  C   UNL     1       9.773   4.420   8.347  0.00  0.00    +0.013 C 
ATOM     35  C   UNL     1       8.976   5.329   9.305  0.00  0.00    +0.001 C 
ENDBRANCH  30  29
BRANCH  16   2
ATOM      2  O   UNL     1      20.069   9.718   2.471  0.00  0.00    -0.391 OA
ATOM     38  H   UNL     1      19.759  10.610   2.240  0.00  0.00    +0.210 HD
ENDBRANCH  16   2
BRANCH  13  21
ATOM     21  C   UNL     1      17.896  11.012   3.757  0.00  0.00    +0.165 C 
BRANCH  21   3
ATOM      3  O   UNL     1      18.965  11.664   4.404  0.00  0.00    -0.394 OA
ATOM     39  H   UNL     1      19.462  12.152   3.725  0.00  0.00    +0.209 HD
ENDBRANCH  21   3
ENDBRANCH  13  21
BRANCH  14  24
ATOM     24  C   UNL     1      13.921   6.874   1.947  0.00  0.00    +0.106 C 
BRANCH  24  25
ATOM      4  O   UNL     1      15.078   4.807   1.857  0.00  0.00    -0.276 OA
ATOM      6  O   UNL     1       9.559   4.201  -2.645  0.00  0.00    -0.276 OA
ATOM      8  N   UNL     1      13.043   4.905   0.743  0.00  0.00    -0.298 N 
ATOM     10  N   UNL     1      11.622   4.123  -1.581  0.00  0.00    -0.299 N 
ATOM     25  C   UNL     1      14.073   5.436   1.517  0.00  0.00    +0.216 C 
ATOM     27  C   UNL     1      11.801   5.603   0.383  0.00  0.00    +0.126 C 
ATOM     28  C   UNL     1      13.116   3.516   0.283  0.00  0.00    +0.126 C 
ATOM     31  C   UNL     1      11.550   5.512  -1.120  0.00  0.00    +0.126 C 
ATOM     32  C   UNL     1      12.864   3.426  -1.220  0.00  0.00    +0.126 C 
ATOM     36  C   UNL     1      10.593   3.592  -2.356  0.00  0.00    +0.213 C 
ATOM     37  C   UNL     1      10.782   2.182  -2.855  0.00  0.00    +0.109 C 
ENDBRANCH  24  25
ENDBRANCH  14  24
TORSDOF 6
ENDMDL
MODEL 4
REMARK VINA RESULT:      -6.5      5.714     11.108
REMARK  Name = 7135197
REMARK  9 active torsions:
REMARK  status: ('A' for Active; 'I' for Inactive)
REMARK    1  A    between atoms: O_2  and  C_16
REMARK    2  A    between atoms: O_3  and  C_21
REMARK    3  A    between atoms: C_11  and  C_19
REMARK    4  A    between atoms: C_13  and  C_21
REMARK    5  A    between atoms: C_13  and  C_22
REMARK    6  A    between atoms: C_14  and  C_24
REMARK    7  A    between atoms: C_24  and  C_25
REMARK    8  A    between atoms: C_29  and  C_30
REMARK    9  A    between atoms: C_36  and  C_37
REMARK                            x       y       z     vdW  Elec       q    Type
REMARK                         _______ _______ _______ _____ _____    ______ ____
ROOT
ATOM      1  S   UNL     1      -4.018  -9.541   9.919  0.00  0.00    -0.057 S 
ATOM      5  O   UNL     1      -8.526  -8.788   9.088  0.00  0.00    -0.275 OA
ATOM      7  N   UNL     1      -6.389  -9.597  10.951  0.00  0.00    -0.229 NA
ATOM      9  N   UNL     1      -6.221  -8.909   8.646  0.00  0.00    -0.264 N 
ATOM     11  C   UNL     1      -4.835 -11.162  14.114  0.00  0.00    -0.019 C 
ATOM     12  C   UNL     1      -3.451 -10.401  13.906  0.00  0.00    +0.011 C 
ATOM     13  C   UNL     1      -2.283 -10.755  14.904  0.00  0.00    +0.021 C 
ATOM     14  C   UNL     1      -5.963 -10.358  13.318  0.00  0.00    +0.054 C 
ATOM     15  C   UNL     1      -5.203 -11.159  15.620  0.00  0.00    +0.010 C 
ATOM     16  C   UNL     1      -2.833 -10.753  16.359  0.00  0.00    +0.123 C 
ATOM     17  C   UNL     1      -3.021 -10.403  12.410  0.00  0.00    +0.049 C 
ATOM     18  C   UNL     1      -4.076 -11.620  16.532  0.00  0.00    +0.032 C 
ATOM     19  C   UNL     1      -4.797 -12.626  13.614  0.00  0.00    +0.012 C 
ATOM     20  C   UNL     1      -5.500 -10.005  11.928  0.00  0.00    +0.058 A 
ATOM     22  C   UNL     1      -1.193  -9.649  14.822  0.00  0.00    +0.016 C 
ATOM     23  C   UNL     1      -4.173 -10.014  11.547  0.00  0.00    +0.015 A 
ATOM     26  C   UNL     1      -5.721  -9.334   9.849  0.00  0.00    +0.165 A 
ATOM     30  C   UNL     1      -7.566  -8.660   8.324  0.00  0.00    +0.222 C 
ATOM     40  H   UNL     1      -5.526  -8.764   7.920  0.00  0.00    +0.157 HD
ENDROOT
BRANCH  30  29
ATOM     29  C   UNL     1      -7.765  -8.197   6.866  0.00  0.00    +0.075 C 
ATOM     33  C   UNL     1      -8.630  -6.942   6.632  0.00  0.00    +0.013 C 
ATOM     34  C   UNL     1      -8.791  -8.969   6.009  0.00  0.00    +0.013 C 
ATOM     35  C   UNL     1      -9.132  -7.621   5.340  0.00  0.00    +0.001 C 
ENDBRANCH  30  29
BRANCH  16   2
ATOM      2  O   UNL     1      -1.833 -11.196  17.275  0.00  0.00    -0.391 OA
ATOM     38  H   UNL     1      -1.463 -10.410  17.711  0.00  0.00    +0.210 HD
ENDBRANCH  16   2
BRANCH  13  21
ATOM     21  C   UNL     1      -1.554 -12.081  14.593  0.00  0.00    +0.165 C 
BRANCH  21   3
ATOM      3  O   UNL     1      -0.271 -12.014  15.171  0.00  0.00    -0.394 OA
ATOM     39  H   UNL     1       0.295 -12.649  14.698  0.00  0.00    +0.209 HD
ENDBRANCH  21   3
ENDBRANCH  13  21
BRANCH  14  24
ATOM     24  C   UNL     1      -7.337 -11.042  13.295  0.00  0.00    +0.106 C 
BRANCH  24  25
ATOM      4  O   UNL     1      -8.687  -9.094  13.346  0.00  0.00    -0.276 OA
ATOM      6  O   UNL     1      -9.483 -12.242  19.714  0.00  0.00    -0.276 OA
ATOM      8  N   UNL     1      -8.903 -10.552  15.141  0.00  0.00    -0.298 N 
ATOM     10  N   UNL     1      -9.222 -10.756  17.949  0.00  0.00    -0.299 N 
ATOM     25  C   UNL     1      -8.369 -10.138  13.923  0.00  0.00    +0.216 C 
ATOM     27  C   UNL     1      -8.600 -11.823  15.816  0.00  0.00    +0.126 C 
ATOM     28  C   UNL     1      -9.909  -9.729  15.817  0.00  0.00    +0.126 C 
ATOM     31  C   UNL     1      -8.217 -11.579  17.273  0.00  0.00    +0.126 C 
ATOM     32  C   UNL     1      -9.525  -9.486  17.274  0.00  0.00    +0.126 C 
ATOM     36  C   UNL     1      -9.755 -11.169  19.169  0.00  0.00    +0.213 C 
ATOM     37  C   UNL     1     -10.725 -10.227  19.835  0.00  0.00    +0.109 C 
ENDBRANCH  24  25
ENDBRANCH  14  24
TORSDOF 6
ENDMDL
MODEL 5
REMARK VINA RESULT:      -6.4     30.227     33.022
REMARK  Name = 7135197
REMARK  9 active torsions:
REMARK  status: ('A' for Active; 'I' for Inactive)
REMARK    1  A    between atoms: O_2  and  C_16
REMARK    2  A    between atoms: O_3  and  C_21
REMARK    3  A    between atoms: C_11  and  C_19
REMARK    4  A    between atoms: C_13  and  C_21
REMARK    5  A    between atoms: C_13  and  C_22
REMARK    6  A    between atoms: C_14  and  C_24
REMARK    7  A    between atoms: C_24  and  C_25
REMARK    8  A    between atoms: C_29  and  C_30
REMARK    9  A    between atoms: C_36  and  C_37
REMARK                            x       y       z     vdW  Elec       q    Type
REMARK                         _______ _______ _______ _____ _____    ______ ____
ROOT
ATOM      1  S   UNL     1      14.739   8.525   6.486  0.00  0.00    -0.057 S 
ATOM      5  O   UNL     1      17.934   8.045   3.146  0.00  0.00    -0.275 OA
ATOM      7  N   UNL     1      15.104   8.021   3.975  0.00  0.00    -0.229 NA
ATOM      9  N   UNL     1      17.076   8.436   5.299  0.00  0.00    -0.264 N 
ATOM     11  C   UNL     1      11.327   7.290   3.706  0.00  0.00    -0.019 C 
ATOM     12  C   UNL     1      10.964   8.334   4.853  0.00  0.00    +0.011 C 
ATOM     13  C   UNL     1       9.455   8.402   5.306  0.00  0.00    +0.021 C 
ATOM     14  C   UNL     1      12.757   7.688   3.113  0.00  0.00    +0.054 C 
ATOM     15  C   UNL     1      10.281   7.390   2.567  0.00  0.00    +0.010 C 
ATOM     16  C   UNL     1       8.544   8.451   4.046  0.00  0.00    +0.123 C 
ATOM     17  C   UNL     1      11.971   8.251   6.037  0.00  0.00    +0.049 C 
ATOM     18  C   UNL     1       8.838   7.335   3.049  0.00  0.00    +0.032 C 
ATOM     19  C   UNL     1      11.371   5.828   4.215  0.00  0.00    +0.012 C 
ATOM     20  C   UNL     1      13.744   7.967   4.217  0.00  0.00    +0.058 A 
ATOM     22  C   UNL     1       9.222   9.722   6.095  0.00  0.00    +0.016 C 
ATOM     23  C   UNL     1      13.369   8.235   5.518  0.00  0.00    +0.015 A 
ATOM     26  C   UNL     1      15.727   8.300   5.099  0.00  0.00    +0.165 A 
ATOM     30  C   UNL     1      18.096   8.307   4.341  0.00  0.00    +0.222 C 
ATOM     40  H   UNL     1      17.348   8.655   6.253  0.00  0.00    +0.157 HD
ENDROOT
BRANCH  30  29
ATOM     29  C   UNL     1      19.508   8.522   4.924  0.00  0.00    +0.075 C 
ATOM     33  C   UNL     1      20.493   7.338   4.850  0.00  0.00    +0.013 C 
ATOM     34  C   UNL     1      19.661   8.453   6.459  0.00  0.00    +0.013 C 
ATOM     35  C   UNL     1      21.040   7.807   6.215  0.00  0.00    +0.001 C 
ENDBRANCH  30  29
BRANCH  16   2
ATOM      2  O   UNL     1       7.168   8.384   4.418  0.00  0.00    -0.391 OA
ATOM     38  H   UNL     1       6.895   7.451   4.373  0.00  0.00    +0.210 HD
ENDBRANCH  16   2
BRANCH  13  21
ATOM     21  C   UNL     1       9.019   7.266   6.257  0.00  0.00    +0.165 C 
BRANCH  21   3
ATOM      3  O   UNL     1       7.882   7.708   6.964  0.00  0.00    -0.394 OA
ATOM     39  H   UNL     1       7.656   7.018   7.612  0.00  0.00    +0.209 HD
ENDBRANCH  21   3
ENDBRANCH  13  21
BRANCH  14  24
ATOM     24  C   UNL     1      13.323   6.693   2.092  0.00  0.00    +0.106 C 
BRANCH  24  25
ATOM      4  O   UNL     1      13.081   8.359   0.423  0.00  0.00    -0.276 OA
ATOM      6  O   UNL     1      10.538   2.310  -2.411  0.00  0.00    -0.276 OA
ATOM      8  N   UNL     1      12.631   6.173  -0.221  0.00  0.00    -0.298 N 
ATOM     10  N   UNL     1      10.930   4.501  -1.750  0.00  0.00    -0.299 N 
ATOM     25  C   UNL     1      13.004   7.157   0.693  0.00  0.00    +0.216 C 
ATOM     27  C   UNL     1      12.600   4.728   0.048  0.00  0.00    +0.126 C 
ATOM     28  C   UNL     1      12.302   6.542  -1.600  0.00  0.00    +0.126 C 
ATOM     31  C   UNL     1      11.259   4.132  -0.371  0.00  0.00    +0.126 C 
ATOM     32  C   UNL     1      10.961   5.945  -2.019  0.00  0.00    +0.126 C 
ATOM     36  C   UNL     1      10.555   3.517  -2.664  0.00  0.00    +0.213 C 
ATOM     37  C   UNL     1      10.157   3.990  -4.039  0.00  0.00    +0.109 C 
ENDBRANCH  24  25
ENDBRANCH  14  24
TORSDOF 6
ENDMDL
MODEL 6
REMARK VINA RESULT:      -6.4      4.590      7.697
REMARK  Name = 7135197
REMARK  9 active torsions:
REMARK  status: ('A' for Active; 'I' for Inactive)
REMARK    1  A    between atoms: O_2  and  C_16
REMARK    2  A    between atoms: O_3  and  C_21
REMARK    3  A    between atoms: C_11  and  C_19
REMARK    4  A    between atoms: C_13  and  C_21
REMARK    5  A    between atoms: C_13  and  C_22
REMARK    6  A    between atoms: C_14  and  C_24
REMARK    7  A    between atoms: C_24  and  C_25
REMARK    8  A    between atoms: C_29  and  C_30
REMARK    9  A    between atoms: C_36  and  C_37
REMARK                            x       y       z     vdW  Elec       q    Type
REMARK                         _______ _______ _______ _____ _____    ______ ____
ROOT
ATOM      1  S   UNL     1      -5.237 -10.992  12.702  0.00  0.00    -0.057 S 
ATOM      5  O   UNL     1      -8.285  -8.418  10.321  0.00  0.00    -0.275 OA
ATOM      7  N   UNL     1      -7.403  -9.590  12.878  0.00  0.00    -0.229 NA
ATOM      9  N   UNL     1      -6.396  -9.765  10.695  0.00  0.00    -0.264 N 
ATOM     11  C   UNL     1      -7.686 -10.729  16.552  0.00  0.00    -0.019 C 
ATOM     12  C   UNL     1      -6.106 -10.832  16.723  0.00  0.00    +0.011 C 
ATOM     13  C   UNL     1      -5.571 -11.406  18.091  0.00  0.00    +0.021 C 
ATOM     14  C   UNL     1      -7.985  -9.745  15.328  0.00  0.00    +0.054 C 
ATOM     15  C   UNL     1      -8.304 -10.115  17.834  0.00  0.00    +0.010 C 
ATOM     16  C   UNL     1      -6.325 -10.720  19.265  0.00  0.00    +0.123 C 
ATOM     17  C   UNL     1      -5.439 -11.473  15.471  0.00  0.00    +0.049 C 
ATOM     18  C   UNL     1      -7.842 -10.782  19.122  0.00  0.00    +0.032 C 
ATOM     19  C   UNL     1      -8.353 -12.100  16.285  0.00  0.00    +0.012 C 
ATOM     20  C   UNL     1      -7.119 -10.079  14.140  0.00  0.00    +0.058 A 
ATOM     22  C   UNL     1      -4.065 -11.047  18.238  0.00  0.00    +0.016 C 
ATOM     23  C   UNL     1      -5.971 -10.840  14.230  0.00  0.00    +0.015 A 
ATOM     26  C   UNL     1      -6.483 -10.013  12.040  0.00  0.00    +0.165 A 
ATOM     30  C   UNL     1      -7.276  -8.998   9.912  0.00  0.00    +0.222 C 
ATOM     40  H   UNL     1      -5.599 -10.192  10.231  0.00  0.00    +0.157 HD
ENDROOT
BRANCH  30  29
ATOM     29  C   UNL     1      -6.870  -8.938   8.425  0.00  0.00    +0.075 C 
ATOM     33  C   UNL     1      -7.514  -9.965   7.472  0.00  0.00    +0.013 C 
ATOM     34  C   UNL     1      -5.506  -9.547   8.035  0.00  0.00    +0.013 C 
ATOM     35  C   UNL     1      -6.169  -9.993   6.716  0.00  0.00    +0.001 C 
ENDBRANCH  30  29
BRANCH  16   2
ATOM      2  O   UNL     1      -5.957 -11.309  20.512  0.00  0.00    -0.391 OA
ATOM     38  H   UNL     1      -6.576 -12.038  20.688  0.00  0.00    +0.210 HD
ENDBRANCH  16   2
BRANCH  13  21
ATOM     21  C   UNL     1      -5.645 -12.945  18.214  0.00  0.00    +0.165 C 
BRANCH  21   3
ATOM      3  O   UNL     1      -4.368 -13.410  18.589  0.00  0.00    -0.394 OA
ATOM     39  H   UNL     1      -3.846 -12.636  18.862  0.00  0.00    +0.209 HD
ENDBRANCH  21   3
ENDBRANCH  13  21
BRANCH  14  24
ATOM     24  C   UNL     1      -9.465  -9.648  14.935  0.00  0.00    +0.106 C 
BRANCH  24  25
ATOM      4  O   UNL     1      -9.510  -7.673  16.244  0.00  0.00    -0.276 OA
ATOM      6  O   UNL     1     -15.191  -7.331  11.919  0.00  0.00    -0.276 OA
ATOM      8  N   UNL     1     -11.042  -7.798  14.503  0.00  0.00    -0.298 N 
ATOM     10  N   UNL     1     -13.699  -7.234  13.697  0.00  0.00    -0.299 N 
ATOM     25  C   UNL     1     -10.001  -8.284  15.292  0.00  0.00    +0.216 C 
ATOM     27  C   UNL     1     -11.599  -8.468  13.319  0.00  0.00    +0.126 C 
ATOM     28  C   UNL     1     -11.621  -6.482  14.786  0.00  0.00    +0.126 C 
ATOM     31  C   UNL     1     -13.120  -8.549  13.414  0.00  0.00    +0.126 C 
ATOM     32  C   UNL     1     -13.142  -6.564  14.880  0.00  0.00    +0.126 C 
ATOM     36  C   UNL     1     -14.741  -6.748  12.909  0.00  0.00    +0.213 C 
ATOM     37  C   UNL     1     -15.332  -5.422  13.316  0.00  0.00    +0.109 C 
ENDBRANCH  24  25
ENDBRANCH  14  24
TORSDOF 6
ENDMDL
MODEL 7
REMARK VINA RESULT:      -6.3      5.030      9.922
REMARK  Name = 7135197
REMARK  9 active torsions:
REMARK  status: ('A' for Active; 'I' for Inactive)
REMARK    1  A    between atoms: O_2  and  C_16
REMARK    2  A    between atoms: O_3  and  C_21
REMARK    3  A    between atoms: C_11  and  C_19
REMARK    4  A    between atoms: C_13  and  C_21
REMARK    5  A    between atoms: C_13  and  C_22
REMARK    6  A    between atoms: C_14  and  C_24
REMARK    7  A    between atoms: C_24  and  C_25
REMARK    8  A    between atoms: C_29  and  C_30
REMARK    9  A    between atoms: C_36  and  C_37
REMARK                            x       y       z     vdW  Elec       q    Type
REMARK                         _______ _______ _______ _____ _____    ______ ____
ROOT
ATOM      1  S   UNL     1      -5.321  -9.781  10.234  0.00  0.00    -0.057 S 
ATOM      5  O   UNL     1      -9.728  -8.315  10.349  0.00  0.00    -0.275 OA
ATOM      7  N   UNL     1      -7.355  -9.338  11.769  0.00  0.00    -0.229 NA
ATOM      9  N   UNL     1      -7.643  -8.874   9.421  0.00  0.00    -0.264 N 
ATOM     11  C   UNL     1      -5.345 -10.898  14.666  0.00  0.00    -0.019 C 
ATOM     12  C   UNL     1      -3.953 -10.410  14.066  0.00  0.00    +0.011 C 
ATOM     13  C   UNL     1      -2.647 -10.885  14.813  0.00  0.00    +0.021 C 
ATOM     14  C   UNL     1      -6.496  -9.973  14.054  0.00  0.00    +0.054 C 
ATOM     15  C   UNL     1      -5.337 -10.712  16.205  0.00  0.00    +0.010 C 
ATOM     16  C   UNL     1      -2.825 -10.672  16.343  0.00  0.00    +0.123 C 
ATOM     17  C   UNL     1      -3.899 -10.605  12.523  0.00  0.00    +0.049 C 
ATOM     18  C   UNL     1      -4.107 -11.291  16.890  0.00  0.00    +0.032 C 
ATOM     19  C   UNL     1      -5.652 -12.381  14.346  0.00  0.00    +0.012 C 
ATOM     20  C   UNL     1      -6.331  -9.818  12.563  0.00  0.00    +0.058 A 
ATOM     22  C   UNL     1      -1.453  -9.998  14.360  0.00  0.00    +0.016 C 
ATOM     23  C   UNL     1      -5.152 -10.090  11.900  0.00  0.00    +0.015 A 
ATOM     26  C   UNL     1      -6.939  -9.284  10.523  0.00  0.00    +0.165 A 
ATOM     30  C   UNL     1      -8.972  -8.418   9.380  0.00  0.00    +0.222 C 
ATOM     40  H   UNL     1      -7.128  -8.911   8.545  0.00  0.00    +0.157 HD
ENDROOT
BRANCH  30  29
ATOM     29  C   UNL     1      -9.441  -8.044   7.959  0.00  0.00    +0.075 C 
ATOM     33  C   UNL     1      -8.645  -8.624   6.772  0.00  0.00    +0.013 C 
ATOM     34  C   UNL     1      -9.060  -6.645   7.430  0.00  0.00    +0.013 C 
ATOM     35  C   UNL     1      -8.916  -7.295   6.038  0.00  0.00    +0.001 C 
ENDBRANCH  30  29
BRANCH  16   2
ATOM      2  O   UNL     1      -1.714 -11.210  17.058  0.00  0.00    -0.391 OA
ATOM     38  H   UNL     1      -1.386 -11.978  16.560  0.00  0.00    +0.210 HD
ENDBRANCH  16   2
BRANCH  13  21
ATOM     21  C   UNL     1      -2.225 -12.339  14.505  0.00  0.00    +0.165 C 
BRANCH  21   3
ATOM      3  O   UNL     1      -1.170 -12.293  13.571  0.00  0.00    -0.394 OA
ATOM     39  H   UNL     1      -1.517 -12.628  12.725  0.00  0.00    +0.209 HD
ENDBRANCH  21   3
ENDBRANCH  13  21
BRANCH  14  24
ATOM     24  C   UNL     1      -7.922 -10.405  14.419  0.00  0.00    +0.106 C 
BRANCH  24  25
ATOM      4  O   UNL     1      -7.945  -9.163  16.438  0.00  0.00    -0.276 OA
ATOM      6  O   UNL     1     -14.294  -8.061  13.346  0.00  0.00    -0.276 OA
ATOM      8  N   UNL     1      -9.735  -8.830  14.996  0.00  0.00    -0.298 N 
ATOM     10  N   UNL     1     -12.535  -8.440  14.814  0.00  0.00    -0.299 N 
ATOM     25  C   UNL     1      -8.528  -9.411  15.379  0.00  0.00    +0.216 C 
ATOM     27  C   UNL     1     -10.416  -9.048  13.712  0.00  0.00    +0.126 C 
ATOM     28  C   UNL     1     -10.389  -7.857  15.874  0.00  0.00    +0.126 C 
ATOM     31  C   UNL     1     -11.880  -9.413  13.936  0.00  0.00    +0.126 C 
ATOM     32  C   UNL     1     -11.854  -8.222  16.097  0.00  0.00    +0.126 C 
ATOM     36  C   UNL     1     -13.743  -7.860  14.432  0.00  0.00    +0.213 C 
ATOM     37  C   UNL     1     -14.389  -6.930  15.427  0.00  0.00    +0.109 C 
ENDBRANCH  24  25
ENDBRANCH  14  24
TORSDOF 6
ENDMDL
MODEL 8
REMARK VINA RESULT:      -6.3     31.748     35.382
REMARK  Name = 7135197
REMARK  9 active torsions:
REMARK  status: ('A' for Active; 'I' for Inactive)
REMARK    1  A    between atoms: O_2  and  C_16
REMARK    2  A    between atoms: O_3  and  C_21
REMARK    3  A    between atoms: C_11  and  C_19
REMARK    4  A    between atoms: C_13  and  C_21
REMARK    5  A    between atoms: C_13  and  C_22
REMARK    6  A    between atoms: C_14  and  C_24
REMARK    7  A    between atoms: C_24  and  C_25
REMARK    8  A    between atoms: C_29  and  C_30
REMARK    9  A    between atoms: C_36  and  C_37
REMARK                            x       y       z     vdW  Elec       q    Type
REMARK                         _______ _______ _______ _____ _____    ______ ____
ROOT
ATOM      1  S   UNL     1      14.408   7.926   6.299  0.00  0.00    -0.057 S 
ATOM      5  O   UNL     1      11.523   5.885   3.282  0.00  0.00    -0.275 OA
ATOM      7  N   UNL     1      14.157   7.071   3.871  0.00  0.00    -0.229 NA
ATOM      9  N   UNL     1      12.250   6.802   5.320  0.00  0.00    -0.264 N 
ATOM     11  C   UNL     1      17.618   8.596   3.115  0.00  0.00    -0.019 C 
ATOM     12  C   UNL     1      18.134   8.357   4.603  0.00  0.00    +0.011 C 
ATOM     13  C   UNL     1      19.560   8.926   4.964  0.00  0.00    +0.021 C 
ATOM     14  C   UNL     1      16.405   7.591   2.848  0.00  0.00    +0.054 C 
ATOM     15  C   UNL     1      18.755   8.265   2.115  0.00  0.00    +0.010 C 
ATOM     16  C   UNL     1      20.565   8.545   3.840  0.00  0.00    +0.123 C 
ATOM     17  C   UNL     1      17.036   8.706   5.649  0.00  0.00    +0.049 C 
ATOM     18  C   UNL     1      20.082   8.933   2.446  0.00  0.00    +0.032 C 
ATOM     19  C   UNL     1      17.146  10.049   2.868  0.00  0.00    +0.012 C 
ATOM     20  C   UNL     1      15.427   7.603   3.996  0.00  0.00    +0.058 A 
ATOM     22  C   UNL     1      20.057   8.253   6.275  0.00  0.00    +0.016 C 
ATOM     23  C   UNL     1      15.737   8.092   5.249  0.00  0.00    +0.015 A 
ATOM     26  C   UNL     1      13.529   7.193   5.019  0.00  0.00    +0.165 A 
ATOM     30  C   UNL     1      11.325   6.180   4.464  0.00  0.00    +0.222 C 
ATOM     40  H   UNL     1      11.957   6.991   6.275  0.00  0.00    +0.157 HD
ENDROOT
BRANCH  30  29
ATOM     29  C   UNL     1       9.972   5.886   5.142  0.00  0.00    +0.075 C 
ATOM     33  C   UNL     1       8.761   6.738   4.710  0.00  0.00    +0.013 C 
ATOM     34  C   UNL     1       9.755   6.440   6.566  0.00  0.00    +0.013 C 
ATOM     35  C   UNL     1       8.280   6.660   6.174  0.00  0.00    +0.001 C 
ENDBRANCH  30  29
BRANCH  16   2
ATOM      2  O   UNL     1      21.834   9.154   4.072  0.00  0.00    -0.391 OA
ATOM     38  H   UNL     1      22.069   9.660   3.276  0.00  0.00    +0.210 HD
ENDBRANCH  16   2
BRANCH  13  21
ATOM     21  C   UNL     1      19.593  10.446   5.239  0.00  0.00    +0.165 C 
BRANCH  21   3
ATOM      3  O   UNL     1      20.549  10.682   6.248  0.00  0.00    -0.394 OA
ATOM     39  H   UNL     1      20.197  11.384   6.823  0.00  0.00    +0.209 HD
ENDBRANCH  21   3
ENDBRANCH  13  21
BRANCH  14  24
ATOM     24  C   UNL     1      15.694   7.792   1.504  0.00  0.00    +0.106 C 
BRANCH  24  25
ATOM      4  O   UNL     1      17.187   6.595   0.105  0.00  0.00    -0.276 OA
ATOM      6  O   UNL     1      10.735   3.695  -0.920  0.00  0.00    -0.276 OA
ATOM      8  N   UNL     1      15.027   5.756   0.274  0.00  0.00    -0.298 N 
ATOM     10  N   UNL     1      12.875   4.569  -1.136  0.00  0.00    -0.299 N 
ATOM     25  C   UNL     1      16.044   6.663   0.565  0.00  0.00    +0.216 C 
ATOM     27  C   UNL     1      13.681   5.768   0.862  0.00  0.00    +0.126 C 
ATOM     28  C   UNL     1      15.287   4.634  -0.631  0.00  0.00    +0.126 C 
ATOM     31  C   UNL     1      12.617   5.691  -0.230  0.00  0.00    +0.126 C 
ATOM     32  C   UNL     1      14.223   4.557  -1.722  0.00  0.00    +0.126 C 
ATOM     36  C   UNL     1      11.858   3.662  -1.429  0.00  0.00    +0.213 C 
ATOM     37  C   UNL     1      12.184   2.583  -2.429  0.00  0.00    +0.109 C 
ENDBRANCH  24  25
ENDBRANCH  14  24
TORSDOF 6
ENDMDL
MODEL 9
REMARK VINA RESULT:      -6.2     28.519     31.767
REMARK  Name = 7135197
REMARK  9 active torsions:
REMARK  status: ('A' for Active; 'I' for Inactive)
REMARK    1  A    between atoms: O_2  and  C_16
REMARK    2  A    between atoms: O_3  and  C_21
REMARK    3  A    between atoms: C_11  and  C_19
REMARK    4  A    between atoms: C_13  and  C_21
REMARK    5  A    between atoms: C_13  and  C_22
REMARK    6  A    between atoms: C_14  and  C_24
REMARK    7  A    between atoms: C_24  and  C_25
REMARK    8  A    between atoms: C_29  and  C_30
REMARK    9  A    between atoms: C_36  and  C_37
REMARK                            x       y       z     vdW  Elec       q    Type
REMARK                         _______ _______ _______ _____ _____    ______ ____
ROOT
ATOM      1  S   UNL     1      11.624   3.576   2.616  0.00  0.00    -0.057 S 
ATOM      5  O   UNL     1       9.712   6.922   5.213  0.00  0.00    -0.275 OA
ATOM      7  N   UNL     1      10.402   5.855   2.552  0.00  0.00    -0.229 NA
ATOM      9  N   UNL     1      10.820   4.906   4.728  0.00  0.00    -0.264 N 
ATOM     11  C   UNL     1      10.989   5.916  -1.259  0.00  0.00    -0.019 C 
ATOM     12  C   UNL     1      10.930   4.328  -1.372  0.00  0.00    +0.011 C 
ATOM     13  C   UNL     1      11.241   3.700  -2.785  0.00  0.00    +0.021 C 
ATOM     14  C   UNL     1      10.232   6.342   0.082  0.00  0.00    +0.054 C 
ATOM     15  C   UNL     1      10.242   6.547  -2.463  0.00  0.00    +0.010 C 
ATOM     16  C   UNL     1      10.451   4.476  -3.877  0.00  0.00    +0.123 C 
ATOM     17  C   UNL     1      11.693   3.646  -0.201  0.00  0.00    +0.049 C 
ATOM     18  C   UNL     1      10.664   5.985  -3.813  0.00  0.00    +0.032 C 
ATOM     19  C   UNL     1      12.437   6.463  -1.229  0.00  0.00    +0.012 C 
ATOM     20  C   UNL     1      10.667   5.488   1.245  0.00  0.00    +0.058 A 
ATOM     22  C   UNL     1      10.735   2.230  -2.808  0.00  0.00    +0.016 C 
ATOM     23  C   UNL     1      11.304   4.273   1.096  0.00  0.00    +0.015 A 
ATOM     26  C   UNL     1      10.867   4.927   3.358  0.00  0.00    +0.165 A 
ATOM     30  C   UNL     1      10.259   5.877   5.576  0.00  0.00    +0.222 C 
ATOM     40  H   UNL     1      11.243   4.089   5.159  0.00  0.00    +0.157 HD
ENDROOT
BRANCH  30  29
ATOM     29  C   UNL     1      10.391   5.526   7.072  0.00  0.00    +0.075 C 
ATOM     33  C   UNL     1       9.793   4.184   7.541  0.00  0.00    +0.013 C 
ATOM     34  C   UNL     1       9.418   6.214   8.052  0.00  0.00    +0.013 C 
ATOM     35  C   UNL     1       9.418   4.898   8.857  0.00  0.00    +0.001 C 
ENDBRANCH  30  29
BRANCH  16   2
ATOM      2  O   UNL     1      10.810   4.016  -5.179  0.00  0.00    -0.391 OA
ATOM     38  H   UNL     1      10.059   3.508  -5.530  0.00  0.00    +0.210 HD
ENDBRANCH  16   2
BRANCH  13  21
ATOM     21  C   UNL     1      12.743   3.629  -3.138  0.00  0.00    +0.165 C 
BRANCH  21   3
ATOM      3  O   UNL     1      12.951   2.466  -3.906  0.00  0.00    -0.394 OA
ATOM     39  H   UNL     1      13.655   2.663  -4.548  0.00  0.00    +0.209 HD
ENDBRANCH  21   3
ENDBRANCH  13  21
BRANCH  14  24
ATOM     24  C   UNL     1      10.323   7.836   0.418  0.00  0.00    +0.106 C 
BRANCH  24  25
ATOM      4  O   UNL     1       8.293   8.415  -0.659  0.00  0.00    -0.276 OA
ATOM      6  O   UNL     1       8.164  11.648   5.715  0.00  0.00    -0.276 OA
ATOM      8  N   UNL     1       8.500   9.041   1.569  0.00  0.00    -0.298 N 
ATOM     10  N   UNL     1       7.982  11.075   3.472  0.00  0.00    -0.299 N 
ATOM     25  C   UNL     1       8.947   8.453   0.387  0.00  0.00    +0.216 C 
ATOM     27  C   UNL     1       9.223   9.039   2.848  0.00  0.00    +0.126 C 
ATOM     28  C   UNL     1       7.175   9.665   1.619  0.00  0.00    +0.126 C 
ATOM     31  C   UNL     1       9.307  10.451   3.421  0.00  0.00    +0.126 C 
ATOM     32  C   UNL     1       7.259  11.076   2.193  0.00  0.00    +0.126 C 
ATOM     36  C   UNL     1       7.535  11.664   4.653  0.00  0.00    +0.213 C 
ATOM     37  C   UNL     1       6.195  12.352   4.599  0.00  0.00    +0.109 C 
ENDBRANCH  24  25
ENDBRANCH  14  24
TORSDOF 6
ENDMDL
MODEL 10
REMARK VINA RESULT:      -5.9      6.917     10.573
REMARK  Name = 7135197
REMARK  9 active torsions:
REMARK  status: ('A' for Active; 'I' for Inactive)
REMARK    1  A    between atoms: O_2  and  C_16
REMARK    2  A    between atoms: O_3  and  C_21
REMARK    3  A    between atoms: C_11  and  C_19
REMARK    4  A    between atoms: C_13  and  C_21
REMARK    5  A    between atoms: C_13  and  C_22
REMARK    6  A    between atoms: C_14  and  C_24
REMARK    7  A    between atoms: C_24  and  C_25
REMARK    8  A    between atoms: C_29  and  C_30
REMARK    9  A    between atoms: C_36  and  C_37
REMARK                            x       y       z     vdW  Elec       q    Type
REMARK                         _______ _______ _______ _____ _____    ______ ____
ROOT
ATOM      1  S   UNL     1      -3.892  -9.599   9.972  0.00  0.00    -0.057 S 
ATOM      5  O   UNL     1      -4.817 -11.297  14.197  0.00  0.00    -0.275 OA
ATOM      7  N   UNL     1      -5.766 -10.458  11.534  0.00  0.00    -0.229 NA
ATOM      9  N   UNL     1      -3.527 -10.446  12.426  0.00  0.00    -0.264 N 
ATOM     11  C   UNL     1      -8.316  -9.417   8.835  0.00  0.00    -0.019 C 
ATOM     12  C   UNL     1      -7.290  -9.694   7.648  0.00  0.00    +0.011 C 
ATOM     13  C   UNL     1      -7.761  -9.312   6.193  0.00  0.00    +0.021 C 
ATOM     14  C   UNL     1      -7.836 -10.258  10.106  0.00  0.00    +0.054 C 
ATOM     15  C   UNL     1      -9.726  -9.914   8.424  0.00  0.00    +0.010 C 
ATOM     16  C   UNL     1      -9.205  -9.843   5.964  0.00  0.00    +0.123 C 
ATOM     17  C   UNL     1      -5.863  -9.184   8.000  0.00  0.00    +0.049 C 
ATOM     18  C   UNL     1     -10.180  -9.420   7.058  0.00  0.00    +0.032 C 
ATOM     19  C   UNL     1      -8.407  -7.919   9.214  0.00  0.00    +0.012 C 
ATOM     20  C   UNL     1      -6.356 -10.095  10.337  0.00  0.00    +0.058 A 
ATOM     22  C   UNL     1      -6.840 -10.020   5.159  0.00  0.00    +0.016 C 
ATOM     23  C   UNL     1      -5.486  -9.629   9.373  0.00  0.00    +0.015 A 
ATOM     26  C   UNL     1      -4.473 -10.233  11.458  0.00  0.00    +0.165 A 
ATOM     30  C   UNL     1      -3.731 -10.956  13.720  0.00  0.00    +0.222 C 
ATOM     40  H   UNL     1      -2.577 -10.202  12.159  0.00  0.00    +0.157 HD
ENDROOT
BRANCH  30  29
ATOM     29  C   UNL     1      -2.432 -11.057  14.545  0.00  0.00    +0.075 C 
ATOM     33  C   UNL     1      -2.508 -10.672  16.037  0.00  0.00    +0.013 C 
ATOM     34  C   UNL     1      -1.398  -9.922  14.385  0.00  0.00    +0.013 C 
ATOM     35  C   UNL     1      -1.082 -10.101  15.884  0.00  0.00    +0.001 C 
ENDBRANCH  30  29
BRANCH  16   2
ATOM      2  O   UNL     1      -9.709  -9.403   4.704  0.00  0.00    -0.391 OA
ATOM     38  H   UNL     1     -10.237 -10.127   4.328  0.00  0.00    +0.210 HD
ENDBRANCH  16   2
BRANCH  13  21
ATOM     21  C   UNL     1      -7.671  -7.804   5.865  0.00  0.00    +0.165 C 
BRANCH  21   3
ATOM      3  O   UNL     1      -7.027  -7.672   4.618  0.00  0.00    -0.394 OA
ATOM     39  H   UNL     1      -6.103  -7.954   4.737  0.00  0.00    +0.209 HD
ENDBRANCH  21   3
ENDBRANCH  13  21
BRANCH  14  24
ATOM     24  C   UNL     1      -8.637  -9.990  11.387  0.00  0.00    +0.106 C 
BRANCH  24  25
ATOM      4  O   UNL     1      -9.182 -12.290  11.561  0.00  0.00    -0.276 OA
ATOM      6  O   UNL     1      -8.365  -9.922  18.255  0.00  0.00    -0.276 OA
ATOM      8  N   UNL     1      -8.551 -11.223  13.525  0.00  0.00    -0.298 N 
ATOM     10  N   UNL     1      -9.054 -10.972  16.302  0.00  0.00    -0.299 N 
ATOM     25  C   UNL     1      -8.816 -11.274  12.158  0.00  0.00    +0.216 C 
ATOM     27  C   UNL     1      -8.044 -10.050  14.251  0.00  0.00    +0.126 C 
ATOM     28  C   UNL     1      -8.703 -12.428  14.345  0.00  0.00    +0.126 C 
ATOM     31  C   UNL     1      -8.901  -9.768  15.482  0.00  0.00    +0.126 C 
ATOM     32  C   UNL     1      -9.560 -12.144  15.575  0.00  0.00    +0.126 C 
ATOM     36  C   UNL     1      -8.791 -10.921  17.670  0.00  0.00    +0.213 C 
ATOM     37  C   UNL     1      -9.048 -12.182  18.454  0.00  0.00    +0.109 C 
ENDBRANCH  24  25
ENDBRANCH  14  24
TORSDOF 6
ENDMDL
