MODEL 1
REMARK VINA RESULT:      -6.9      0.000      0.000
REMARK  Name = 7164930
REMARK  8 active torsions:
REMARK  status: ('A' for Active; 'I' for Inactive)
REMARK    1  A    between atoms: S_1  and  N_7
REMARK    2  A    between atoms: S_1  and  C_26
REMARK    3  A    between atoms: N_8  and  C_18
REMARK    4  A    between atoms: C_11  and  C_14
REMARK    5  A    between atoms: C_14  and  C_18
REMARK    6  A    between atoms: C_18  and  C_24
REMARK    7  A    between atoms: C_19  and  C_23
REMARK    8  A    between atoms: C_25  and  C_27
REMARK                            x       y       z     vdW  Elec       q    Type
REMARK                         _______ _______ _______ _____ _____    ______ ____
ROOT
ATOM      6  O   UNL     1      17.035   7.831   2.676  0.00  0.00    -0.276 OA
ATOM      7  N   UNL     1      13.006   7.807   5.771  0.00  0.00    -0.162 NA
ATOM      9  N   UNL     1      15.659   7.860   4.547  0.00  0.00    -0.298 N 
ATOM     19  C   UNL     1      13.213   8.000   4.306  0.00  0.00    +0.183 C 
ATOM     20  C   UNL     1      14.499   7.337   3.825  0.00  0.00    +0.137 C 
ATOM     21  C   UNL     1      14.234   7.431   6.532  0.00  0.00    +0.129 C 
ATOM     22  C   UNL     1      15.458   8.142   5.973  0.00  0.00    +0.125 C 
ATOM     25  C   UNL     1      16.861   8.068   3.873  0.00  0.00    +0.213 C 
ATOM     27  C   UNL     1      18.001   8.612   4.699  0.00  0.00    +0.109 C 
ENDROOT
BRANCH  19  23
ATOM      2  O   UNL     1      11.357   7.961   2.815  0.00  0.00    -0.274 OA
ATOM      8  N   UNL     1      11.809   6.077   4.106  0.00  0.00    -0.303 N 
ATOM     23  C   UNL     1      12.034   7.364   3.648  0.00  0.00    +0.234 C 
ATOM     33  H   UNL     1      12.386   5.715   4.861  0.00  0.00    +0.149 HD
BRANCH   8  18
ATOM     18  C   UNL     1      10.716   5.253   3.645  0.00  0.00    +0.159 C 
BRANCH  18  24
ATOM      5  O   UNL     1       8.855   5.657   5.155  0.00  0.00    -0.274 OA
ATOM     10  N   UNL     1      10.169   3.806   5.506  0.00  0.00    -0.328 N 
ATOM     24  C   UNL     1       9.803   4.947   4.825  0.00  0.00    +0.231 C 
ATOM     34  H   UNL     1       9.646   3.494   6.318  0.00  0.00    +0.145 HD
ATOM     35  H   UNL     1      10.965   3.238   5.234  0.00  0.00    +0.145 HD
ENDBRANCH  18  24
BRANCH  18  14
ATOM     14  C   UNL     1      11.205   3.990   2.929  0.00  0.00    +0.035 C 
BRANCH  14  11
ATOM     11  C   UNL     1      11.980   4.259   1.641  0.00  0.00    -0.009 C 
ATOM     12  C   UNL     1      13.168   3.296   1.512  0.00  0.00    +0.003 C 
ATOM     13  C   UNL     1      11.054   4.152   0.421  0.00  0.00    +0.003 C 
ATOM     15  C   UNL     1      13.927   3.510   0.205  0.00  0.00    +0.000 C 
ATOM     16  C   UNL     1      11.818   4.365  -0.885  0.00  0.00    +0.000 C 
ATOM     17  C   UNL     1      13.004   3.412  -1.005  0.00  0.00    +0.000 C 
ENDBRANCH  14  11
ENDBRANCH  18  14
ENDBRANCH   8  18
ENDBRANCH  19  23
BRANCH   7   1
ATOM      1  S   UNL     1      11.934   8.894   6.546  0.00  0.00    +0.062 S 
ATOM      3  O   UNL     1      11.151   9.584   5.542  0.00  0.00    -0.153 OA
ATOM      4  O   UNL     1      12.659   9.629   7.560  0.00  0.00    -0.153 OA
BRANCH   1  26
ATOM     26  C   UNL     1      10.869   7.748   7.364  0.00  0.00    +0.106 A 
ATOM     28  C   UNL     1       9.543   8.092   7.625  0.00  0.00    +0.028 A 
ATOM     29  C   UNL     1      11.355   6.498   7.751  0.00  0.00    +0.028 A 
ATOM     30  C   UNL     1       8.701   7.186   8.271  0.00  0.00    +0.002 A 
ATOM     31  C   UNL     1      10.513   5.593   8.398  0.00  0.00    +0.002 A 
ATOM     32  C   UNL     1       9.186   5.938   8.658  0.00  0.00    +0.000 A 
ENDBRANCH   1  26
ENDBRANCH   7   1
TORSDOF 7
ENDMDL
MODEL 2
REMARK VINA RESULT:      -6.7     25.398     28.973
REMARK  Name = 7164930
REMARK  8 active torsions:
REMARK  status: ('A' for Active; 'I' for Inactive)
REMARK    1  A    between atoms: S_1  and  N_7
REMARK    2  A    between atoms: S_1  and  C_26
REMARK    3  A    between atoms: N_8  and  C_18
REMARK    4  A    between atoms: C_11  and  C_14
REMARK    5  A    between atoms: C_14  and  C_18
REMARK    6  A    between atoms: C_18  and  C_24
REMARK    7  A    between atoms: C_19  and  C_23
REMARK    8  A    between atoms: C_25  and  C_27
REMARK                            x       y       z     vdW  Elec       q    Type
REMARK                         _______ _______ _______ _____ _____    ______ ____
ROOT
ATOM      6  O   UNL     1     -11.788  -7.214  14.202  0.00  0.00    -0.276 OA
ATOM      7  N   UNL     1      -9.297 -10.226  17.448  0.00  0.00    -0.162 NA
ATOM      9  N   UNL     1     -11.191  -8.503  16.040  0.00  0.00    -0.298 N 
ATOM     19  C   UNL     1      -9.132  -9.852  16.013  0.00  0.00    +0.183 C 
ATOM     20  C   UNL     1      -9.768  -8.501  15.705  0.00  0.00    +0.137 C 
ATOM     21  C   UNL     1     -10.378  -9.487  18.167  0.00  0.00    +0.129 C 
ATOM     22  C   UNL     1     -11.568  -9.241  17.251  0.00  0.00    +0.125 C 
ATOM     25  C   UNL     1     -12.100  -7.836  15.220  0.00  0.00    +0.213 C 
ATOM     27  C   UNL     1     -13.547  -7.896  15.644  0.00  0.00    +0.109 C 
ENDROOT
BRANCH  19  23
ATOM      2  O   UNL     1      -6.904  -9.227  16.573  0.00  0.00    -0.274 OA
ATOM      8  N   UNL     1      -7.286 -10.398  14.598  0.00  0.00    -0.303 N 
ATOM     23  C   UNL     1      -7.659  -9.787  15.783  0.00  0.00    +0.234 C 
ATOM     33  H   UNL     1      -8.009 -10.757  13.981  0.00  0.00    +0.149 HD
BRANCH   8  18
ATOM     18  C   UNL     1      -5.920 -10.452  14.132  0.00  0.00    +0.159 C 
BRANCH  18  24
ATOM      5  O   UNL     1      -5.139 -10.340  11.834  0.00  0.00    -0.274 OA
ATOM     10  N   UNL     1      -6.682  -8.793  12.545  0.00  0.00    -0.328 N 
ATOM     24  C   UNL     1      -5.862  -9.888  12.719  0.00  0.00    +0.231 C 
ATOM     34  H   UNL     1      -6.730  -8.318  11.649  0.00  0.00    +0.145 HD
ATOM     35  H   UNL     1      -7.259  -8.418  13.289  0.00  0.00    +0.145 HD
ENDBRANCH  18  24
BRANCH  18  14
ATOM     14  C   UNL     1      -5.329 -11.863  14.233  0.00  0.00    +0.035 C 
BRANCH  14  11
ATOM     11  C   UNL     1      -3.962 -11.923  14.911  0.00  0.00    -0.009 C 
ATOM     12  C   UNL     1      -2.848 -12.096  13.870  0.00  0.00    +0.003 C 
ATOM     13  C   UNL     1      -3.724 -10.667  15.762  0.00  0.00    +0.003 C 
ATOM     15  C   UNL     1      -1.466 -12.105  14.519  0.00  0.00    +0.000 C 
ATOM     16  C   UNL     1      -2.341 -10.679  16.408  0.00  0.00    +0.000 C 
ATOM     17  C   UNL     1      -1.236 -10.861  15.371  0.00  0.00    +0.000 C 
ENDBRANCH  14  11
ENDBRANCH  18  14
ENDBRANCH   8  18
ENDBRANCH  19  23
BRANCH   7   1
ATOM      1  S   UNL     1      -9.121 -11.884  17.836  0.00  0.00    +0.062 S 
ATOM      3  O   UNL     1      -9.172 -12.664  16.617  0.00  0.00    -0.153 OA
ATOM      4  O   UNL     1      -9.979 -12.199  18.959  0.00  0.00    -0.153 OA
BRANCH   1  26
ATOM     26  C   UNL     1      -7.451 -11.892  18.410  0.00  0.00    +0.106 A 
ATOM     28  C   UNL     1      -6.513 -12.736  17.816  0.00  0.00    +0.028 A 
ATOM     29  C   UNL     1      -7.070 -11.055  19.459  0.00  0.00    +0.028 A 
ATOM     30  C   UNL     1      -5.194 -12.742  18.269  0.00  0.00    +0.002 A 
ATOM     31  C   UNL     1      -5.751 -11.062  19.913  0.00  0.00    +0.002 A 
ATOM     32  C   UNL     1      -4.813 -11.906  19.317  0.00  0.00    +0.000 A 
ENDBRANCH   1  26
ENDBRANCH   7   1
TORSDOF 7
ENDMDL
MODEL 3
REMARK VINA RESULT:      -6.7     25.143     28.966
REMARK  Name = 7164930
REMARK  8 active torsions:
REMARK  status: ('A' for Active; 'I' for Inactive)
REMARK    1  A    between atoms: S_1  and  N_7
REMARK    2  A    between atoms: S_1  and  C_26
REMARK    3  A    between atoms: N_8  and  C_18
REMARK    4  A    between atoms: C_11  and  C_14
REMARK    5  A    between atoms: C_14  and  C_18
REMARK    6  A    between atoms: C_18  and  C_24
REMARK    7  A    between atoms: C_19  and  C_23
REMARK    8  A    between atoms: C_25  and  C_27
REMARK                            x       y       z     vdW  Elec       q    Type
REMARK                         _______ _______ _______ _____ _____    ______ ____
ROOT
ATOM      6  O   UNL     1      -5.376  -8.995  10.112  0.00  0.00    -0.276 OA
ATOM      7  N   UNL     1      -5.557 -10.926  14.808  0.00  0.00    -0.162 NA
ATOM      9  N   UNL     1      -4.857 -10.078  12.101  0.00  0.00    -0.298 N 
ATOM     19  C   UNL     1      -6.371  -9.941  14.038  0.00  0.00    +0.183 C 
ATOM     20  C   UNL     1      -6.251 -10.163  12.534  0.00  0.00    +0.137 C 
ATOM     21  C   UNL     1      -4.485 -11.604  14.020  0.00  0.00    +0.129 C 
ATOM     22  C   UNL     1      -3.861 -10.646  13.015  0.00  0.00    +0.125 C 
ATOM     25  C   UNL     1      -4.543  -9.474  10.884  0.00  0.00    +0.213 C 
ATOM     27  C   UNL     1      -3.078  -9.430  10.523  0.00  0.00    +0.109 C 
ENDROOT
BRANCH  19  23
ATOM      2  O   UNL     1      -8.430 -11.134  14.111  0.00  0.00    -0.274 OA
ATOM      8  N   UNL     1      -8.238  -9.137  15.292  0.00  0.00    -0.303 N 
ATOM     23  C   UNL     1      -7.780 -10.157  14.475  0.00  0.00    +0.234 C 
ATOM     33  H   UNL     1      -7.638  -8.334  15.459  0.00  0.00    +0.149 HD
BRANCH   8  18
ATOM     18  C   UNL     1      -9.578  -9.096  15.831  0.00  0.00    +0.159 C 
BRANCH  18  24
ATOM      5  O   UNL     1     -11.179  -7.958  14.401  0.00  0.00    -0.274 OA
ATOM     10  N   UNL     1      -9.841  -6.692  15.774  0.00  0.00    -0.328 N 
ATOM     24  C   UNL     1     -10.300  -7.885  15.257  0.00  0.00    +0.231 C 
ATOM     34  H   UNL     1     -10.235  -5.807  15.468  0.00  0.00    +0.145 HD
ATOM     35  H   UNL     1      -9.102  -6.644  16.466  0.00  0.00    +0.145 HD
ENDBRANCH  18  24
BRANCH  18  14
ATOM     14  C   UNL     1      -9.586  -9.121  17.363  0.00  0.00    +0.035 C 
BRANCH  14  11
ATOM     11  C   UNL     1     -10.644 -10.042  17.969  0.00  0.00    -0.009 C 
ATOM     12  C   UNL     1     -10.606 -11.423  17.302  0.00  0.00    +0.003 C 
ATOM     13  C   UNL     1     -10.449 -10.163  19.487  0.00  0.00    +0.003 C 
ATOM     15  C   UNL     1     -11.619 -12.379  17.928  0.00  0.00    +0.000 C 
ATOM     16  C   UNL     1     -11.463 -11.121  20.110  0.00  0.00    +0.000 C 
ATOM     17  C   UNL     1     -11.430 -12.491  19.437  0.00  0.00    +0.000 C 
ENDBRANCH  14  11
ENDBRANCH  18  14
ENDBRANCH   8  18
ENDBRANCH  19  23
BRANCH   7   1
ATOM      1  S   UNL     1      -5.165 -10.506  16.421  0.00  0.00    +0.062 S 
ATOM      3  O   UNL     1      -5.614  -9.154  16.681  0.00  0.00    -0.153 OA
ATOM      4  O   UNL     1      -3.800 -10.902  16.693  0.00  0.00    -0.153 OA
BRANCH   1  26
ATOM     26  C   UNL     1      -6.234 -11.606  17.296  0.00  0.00    +0.106 A 
ATOM     28  C   UNL     1      -6.633 -11.303  18.597  0.00  0.00    +0.028 A 
ATOM     29  C   UNL     1      -6.679 -12.779  16.685  0.00  0.00    +0.028 A 
ATOM     30  C   UNL     1      -7.477 -12.172  19.288  0.00  0.00    +0.002 A 
ATOM     31  C   UNL     1      -7.522 -13.648  17.376  0.00  0.00    +0.002 A 
ATOM     32  C   UNL     1      -7.922 -13.344  18.678  0.00  0.00    +0.000 A 
ENDBRANCH   1  26
ENDBRANCH   7   1
TORSDOF 7
ENDMDL
MODEL 4
REMARK VINA RESULT:      -6.6      1.662      2.424
REMARK  Name = 7164930
REMARK  8 active torsions:
REMARK  status: ('A' for Active; 'I' for Inactive)
REMARK    1  A    between atoms: S_1  and  N_7
REMARK    2  A    between atoms: S_1  and  C_26
REMARK    3  A    between atoms: N_8  and  C_18
REMARK    4  A    between atoms: C_11  and  C_14
REMARK    5  A    between atoms: C_14  and  C_18
REMARK    6  A    between atoms: C_18  and  C_24
REMARK    7  A    between atoms: C_19  and  C_23
REMARK    8  A    between atoms: C_25  and  C_27
REMARK                            x       y       z     vdW  Elec       q    Type
REMARK                         _______ _______ _______ _____ _____    ______ ____
ROOT
ATOM      6  O   UNL     1      18.145   8.046   3.534  0.00  0.00    -0.276 OA
ATOM      7  N   UNL     1      13.350   7.660   5.170  0.00  0.00    -0.162 NA
ATOM      9  N   UNL     1      16.245   7.920   4.865  0.00  0.00    -0.298 N 
ATOM     19  C   UNL     1      14.001   7.918   3.852  0.00  0.00    +0.183 C 
ATOM     20  C   UNL     1      15.416   7.354   3.801  0.00  0.00    +0.137 C 
ATOM     21  C   UNL     1      14.294   7.333   6.280  0.00  0.00    +0.129 C 
ATOM     22  C   UNL     1      15.580   8.138   6.154  0.00  0.00    +0.125 C 
ATOM     25  C   UNL     1      17.582   8.227   4.616  0.00  0.00    +0.213 C 
ATOM     27  C   UNL     1      18.356   8.810   5.773  0.00  0.00    +0.109 C 
ENDROOT
BRANCH  19  23
ATOM      2  O   UNL     1      12.360   7.858   2.127  0.00  0.00    -0.274 OA
ATOM      8  N   UNL     1      13.325   5.863   2.839  0.00  0.00    -0.303 N 
ATOM     23  C   UNL     1      13.142   7.235   2.841  0.00  0.00    +0.234 C 
ATOM     33  H   UNL     1      13.940   5.447   3.534  0.00  0.00    +0.149 HD
BRANCH   8  18
ATOM     18  C   UNL     1      12.596   4.969   1.969  0.00  0.00    +0.159 C 
BRANCH  18  24
ATOM      5  O   UNL     1      10.921   3.972   3.420  0.00  0.00    -0.274 OA
ATOM     10  N   UNL     1      10.254   5.574   1.915  0.00  0.00    -0.328 N 
ATOM     24  C   UNL     1      11.194   4.775   2.531  0.00  0.00    +0.231 C 
ATOM     34  H   UNL     1       9.278   5.536   2.192  0.00  0.00    +0.145 HD
ATOM     35  H   UNL     1      10.489   6.220   1.169  0.00  0.00    +0.145 HD
ENDBRANCH  18  24
BRANCH  18  14
ATOM     14  C   UNL     1      13.335   3.645   1.749  0.00  0.00    +0.035 C 
BRANCH  14  11
ATOM     11  C   UNL     1      14.067   3.551   0.411  0.00  0.00    -0.009 C 
ATOM     12  C   UNL     1      13.244   4.209  -0.704  0.00  0.00    +0.003 C 
ATOM     13  C   UNL     1      15.460   4.188   0.511  0.00  0.00    +0.003 C 
ATOM     15  C   UNL     1      13.979   4.176  -2.041  0.00  0.00    +0.000 C 
ATOM     16  C   UNL     1      16.192   4.155  -0.829  0.00  0.00    +0.000 C 
ATOM     17  C   UNL     1      15.366   4.802  -1.938  0.00  0.00    +0.000 C 
ENDBRANCH  14  11
ENDBRANCH  18  14
ENDBRANCH   8  18
ENDBRANCH  19  23
BRANCH   7   1
ATOM      1  S   UNL     1      12.013   8.649   5.575  0.00  0.00    +0.062 S 
ATOM      3  O   UNL     1      11.757   9.569   4.486  0.00  0.00    -0.153 OA
ATOM      4  O   UNL     1      12.174   9.127   6.932  0.00  0.00    -0.153 OA
BRANCH   1  26
ATOM     26  C   UNL     1      10.724   7.443   5.575  0.00  0.00    +0.106 A 
ATOM     28  C   UNL     1      10.878   6.257   6.293  0.00  0.00    +0.028 A 
ATOM     29  C   UNL     1       9.551   7.675   4.855  0.00  0.00    +0.028 A 
ATOM     30  C   UNL     1       9.860   5.304   6.293  0.00  0.00    +0.002 A 
ATOM     31  C   UNL     1       8.534   6.721   4.855  0.00  0.00    +0.002 A 
ATOM     32  C   UNL     1       8.688   5.536   5.575  0.00  0.00    +0.000 A 
ENDBRANCH   1  26
ENDBRANCH   7   1
TORSDOF 7
ENDMDL
MODEL 5
REMARK VINA RESULT:      -6.5     24.702     28.029
REMARK  Name = 7164930
REMARK  8 active torsions:
REMARK  status: ('A' for Active; 'I' for Inactive)
REMARK    1  A    between atoms: S_1  and  N_7
REMARK    2  A    between atoms: S_1  and  C_26
REMARK    3  A    between atoms: N_8  and  C_18
REMARK    4  A    between atoms: C_11  and  C_14
REMARK    5  A    between atoms: C_14  and  C_18
REMARK    6  A    between atoms: C_18  and  C_24
REMARK    7  A    between atoms: C_19  and  C_23
REMARK    8  A    between atoms: C_25  and  C_27
REMARK                            x       y       z     vdW  Elec       q    Type
REMARK                         _______ _______ _______ _____ _____    ______ ____
ROOT
ATOM      6  O   UNL     1     -11.036  -9.597  17.908  0.00  0.00    -0.276 OA
ATOM      7  N   UNL     1      -6.240 -11.156  17.297  0.00  0.00    -0.162 NA
ATOM      9  N   UNL     1      -8.846 -10.277  18.282  0.00  0.00    -0.298 N 
ATOM     19  C   UNL     1      -7.445 -11.076  16.422  0.00  0.00    +0.183 C 
ATOM     20  C   UNL     1      -8.425 -10.013  16.906  0.00  0.00    +0.137 C 
ATOM     21  C   UNL     1      -6.410 -10.555  18.653  0.00  0.00    +0.129 C 
ATOM     22  C   UNL     1      -7.815 -10.801  19.184  0.00  0.00    +0.125 C 
ATOM     25  C   UNL     1     -10.166 -10.037  18.662  0.00  0.00    +0.213 C 
ATOM     27  C   UNL     1     -10.509 -10.343  20.100  0.00  0.00    +0.109 C 
ENDROOT
BRANCH  19  23
ATOM      2  O   UNL     1      -6.333  -9.667  14.858  0.00  0.00    -0.274 OA
ATOM      8  N   UNL     1      -7.236 -11.682  14.120  0.00  0.00    -0.303 N 
ATOM     23  C   UNL     1      -6.933 -10.718  15.067  0.00  0.00    +0.234 C 
ATOM     33  H   UNL     1      -7.812 -12.474  14.392  0.00  0.00    +0.149 HD
BRANCH   8  18
ATOM     18  C   UNL     1      -6.872 -11.564  12.727  0.00  0.00    +0.159 C 
BRANCH  18  24
ATOM      5  O   UNL     1      -7.386 -12.966  10.810  0.00  0.00    -0.274 OA
ATOM     10  N   UNL     1      -8.890 -12.887  12.544  0.00  0.00    -0.328 N 
ATOM     24  C   UNL     1      -7.710 -12.545  11.918  0.00  0.00    +0.231 C 
ATOM     34  H   UNL     1      -9.544 -13.529  12.107  0.00  0.00    +0.145 HD
ATOM     35  H   UNL     1      -9.155 -12.518  13.451  0.00  0.00    +0.145 HD
ENDBRANCH  18  24
BRANCH  18  14
ATOM     14  C   UNL     1      -5.367 -11.745  12.505  0.00  0.00    +0.035 C 
BRANCH  14  11
ATOM     11  C   UNL     1      -4.656 -10.496  11.988  0.00  0.00    -0.009 C 
ATOM     12  C   UNL     1      -3.395 -10.877  11.200  0.00  0.00    +0.003 C 
ATOM     13  C   UNL     1      -5.604  -9.650  11.126  0.00  0.00    +0.003 C 
ATOM     15  C   UNL     1      -2.695  -9.647  10.628  0.00  0.00    +0.000 C 
ATOM     16  C   UNL     1      -4.900  -8.422  10.554  0.00  0.00    +0.000 C 
ATOM     17  C   UNL     1      -3.642  -8.804   9.779  0.00  0.00    +0.000 C 
ENDBRANCH  14  11
ENDBRANCH  18  14
ENDBRANCH   8  18
ENDBRANCH  19  23
BRANCH   7   1
ATOM      1  S   UNL     1      -5.325 -12.601  17.215  0.00  0.00    +0.062 S 
ATOM      3  O   UNL     1      -6.050 -13.577  16.429  0.00  0.00    -0.153 OA
ATOM      4  O   UNL     1      -4.836 -12.925  18.539  0.00  0.00    -0.153 OA
BRANCH   1  26
ATOM     26  C   UNL     1      -3.954 -12.045  16.251  0.00  0.00    +0.106 A 
ATOM     28  C   UNL     1      -3.368 -10.809  16.521  0.00  0.00    +0.028 A 
ATOM     29  C   UNL     1      -3.457 -12.843  15.220  0.00  0.00    +0.028 A 
ATOM     30  C   UNL     1      -2.285 -10.369  15.760  0.00  0.00    +0.002 A 
ATOM     31  C   UNL     1      -2.375 -12.403  14.458  0.00  0.00    +0.002 A 
ATOM     32  C   UNL     1      -1.788 -11.166  14.729  0.00  0.00    +0.000 A 
ENDBRANCH   1  26
ENDBRANCH   7   1
TORSDOF 7
ENDMDL
MODEL 6
REMARK VINA RESULT:      -6.4     25.351     28.003
REMARK  Name = 7164930
REMARK  8 active torsions:
REMARK  status: ('A' for Active; 'I' for Inactive)
REMARK    1  A    between atoms: S_1  and  N_7
REMARK    2  A    between atoms: S_1  and  C_26
REMARK    3  A    between atoms: N_8  and  C_18
REMARK    4  A    between atoms: C_11  and  C_14
REMARK    5  A    between atoms: C_14  and  C_18
REMARK    6  A    between atoms: C_18  and  C_24
REMARK    7  A    between atoms: C_19  and  C_23
REMARK    8  A    between atoms: C_25  and  C_27
REMARK                            x       y       z     vdW  Elec       q    Type
REMARK                         _______ _______ _______ _____ _____    ______ ____
ROOT
ATOM      6  O   UNL     1     -10.877  13.209  10.786  0.00  0.00    -0.276 OA
ATOM      7  N   UNL     1     -13.089   9.683  13.700  0.00  0.00    -0.162 NA
ATOM      9  N   UNL     1     -12.162  11.430  11.549  0.00  0.00    -0.298 N 
ATOM     19  C   UNL     1     -11.944  10.626  13.866  0.00  0.00    +0.183 C 
ATOM     20  C   UNL     1     -12.075  11.839  12.951  0.00  0.00    +0.137 C 
ATOM     21  C   UNL     1     -13.859   9.850  12.432  0.00  0.00    +0.129 C 
ATOM     22  C   UNL     1     -12.932  10.211  11.279  0.00  0.00    +0.125 C 
ATOM     25  C   UNL     1     -11.525  12.184  10.565  0.00  0.00    +0.213 C 
ATOM     27  C   UNL     1     -11.668  11.684   9.148  0.00  0.00    +0.109 C 
ENDROOT
BRANCH  19  23
ATOM      2  O   UNL     1     -12.850  11.819  15.717  0.00  0.00    -0.274 OA
ATOM      8  N   UNL     1     -10.943  10.521  16.032  0.00  0.00    -0.303 N 
ATOM     23  C   UNL     1     -11.984  11.057  15.294  0.00  0.00    +0.234 C 
ATOM     33  H   UNL     1     -10.235   9.968  15.556  0.00  0.00    +0.149 HD
BRANCH   8  18
ATOM     18  C   UNL     1     -10.741  10.802  17.435  0.00  0.00    +0.159 C 
BRANCH  18  24
ATOM      5  O   UNL     1     -10.457  13.085  18.219  0.00  0.00    -0.274 OA
ATOM     10  N   UNL     1      -8.843  12.186  16.853  0.00  0.00    -0.328 N 
ATOM     24  C   UNL     1     -10.021  12.138  17.568  0.00  0.00    +0.231 C 
ATOM     34  H   UNL     1      -8.270  13.023  16.852  0.00  0.00    +0.145 HD
ATOM     35  H   UNL     1      -8.504  11.403  16.304  0.00  0.00    +0.145 HD
ENDBRANCH  18  24
BRANCH  18  14
ATOM     14  C   UNL     1     -10.015   9.662  18.155  0.00  0.00    +0.035 C 
BRANCH  14  11
ATOM     11  C   UNL     1     -10.629   9.278  19.500  0.00  0.00    -0.009 C 
ATOM     12  C   UNL     1     -11.821  10.187  19.830  0.00  0.00    +0.003 C 
ATOM     13  C   UNL     1     -11.052   7.802  19.500  0.00  0.00    +0.003 C 
ATOM     15  C   UNL     1     -12.486   9.789  21.145  0.00  0.00    +0.000 C 
ATOM     16  C   UNL     1     -11.719   7.407  20.816  0.00  0.00    +0.000 C 
ATOM     17  C   UNL     1     -12.897   8.320  21.146  0.00  0.00    +0.000 C 
ENDBRANCH  14  11
ENDBRANCH  18  14
ENDBRANCH   8  18
ENDBRANCH  19  23
BRANCH   7   1
ATOM      1  S   UNL     1     -12.846   8.076  14.236  0.00  0.00    +0.062 S 
ATOM      3  O   UNL     1     -11.514   7.958  14.792  0.00  0.00    -0.153 OA
ATOM      4  O   UNL     1     -13.310   7.162  13.214  0.00  0.00    -0.153 OA
BRANCH   1  26
ATOM     26  C   UNL     1     -13.995   8.019  15.576  0.00  0.00    +0.106 A 
ATOM     28  C   UNL     1     -13.553   8.221  16.883  0.00  0.00    +0.028 A 
ATOM     29  C   UNL     1     -15.345   7.771  15.327  0.00  0.00    +0.028 A 
ATOM     30  C   UNL     1     -14.460   8.177  17.942  0.00  0.00    +0.002 A 
ATOM     31  C   UNL     1     -16.252   7.726  16.385  0.00  0.00    +0.002 A 
ATOM     32  C   UNL     1     -15.809   7.929  17.693  0.00  0.00    +0.000 A 
ENDBRANCH   1  26
ENDBRANCH   7   1
TORSDOF 7
ENDMDL
MODEL 7
REMARK VINA RESULT:      -6.3      2.283      5.576
REMARK  Name = 7164930
REMARK  8 active torsions:
REMARK  status: ('A' for Active; 'I' for Inactive)
REMARK    1  A    between atoms: S_1  and  N_7
REMARK    2  A    between atoms: S_1  and  C_26
REMARK    3  A    between atoms: N_8  and  C_18
REMARK    4  A    between atoms: C_11  and  C_14
REMARK    5  A    between atoms: C_14  and  C_18
REMARK    6  A    between atoms: C_18  and  C_24
REMARK    7  A    between atoms: C_19  and  C_23
REMARK    8  A    between atoms: C_25  and  C_27
REMARK                            x       y       z     vdW  Elec       q    Type
REMARK                         _______ _______ _______ _____ _____    ______ ____
ROOT
ATOM      6  O   UNL     1      10.154   3.579   8.818  0.00  0.00    -0.276 OA
ATOM      7  N   UNL     1       9.664   7.254   5.345  0.00  0.00    -0.162 NA
ATOM      9  N   UNL     1       9.439   5.438   7.623  0.00  0.00    -0.298 N 
ATOM     19  C   UNL     1      10.712   6.245   5.676  0.00  0.00    +0.183 C 
ATOM     20  C   UNL     1      10.124   5.036   6.395  0.00  0.00    +0.137 C 
ATOM     21  C   UNL     1       8.401   7.125   6.130  0.00  0.00    +0.129 C 
ATOM     22  C   UNL     1       8.693   6.700   7.563  0.00  0.00    +0.125 C 
ATOM     25  C   UNL     1       9.528   4.639   8.762  0.00  0.00    +0.213 C 
ATOM     27  C   UNL     1       8.792   5.137   9.982  0.00  0.00    +0.109 C 
ENDROOT
BRANCH  19  23
ATOM      2  O   UNL     1      10.753   4.983   3.658  0.00  0.00    -0.274 OA
ATOM      8  N   UNL     1      12.483   6.480   4.091  0.00  0.00    -0.303 N 
ATOM     23  C   UNL     1      11.294   5.828   4.367  0.00  0.00    +0.234 C 
ATOM     33  H   UNL     1      12.880   7.099   4.792  0.00  0.00    +0.149 HD
BRANCH   8  18
ATOM     18  C   UNL     1      13.259   6.237   2.896  0.00  0.00    +0.159 C 
BRANCH  18  24
ATOM      5  O   UNL     1      14.991   7.878   2.438  0.00  0.00    -0.274 OA
ATOM     10  N   UNL     1      15.431   6.217   3.963  0.00  0.00    -0.328 N 
ATOM     24  C   UNL     1      14.628   6.883   3.062  0.00  0.00    +0.231 C 
ATOM     34  H   UNL     1      16.372   6.541   4.159  0.00  0.00    +0.145 HD
ATOM     35  H   UNL     1      15.125   5.386   4.458  0.00  0.00    +0.145 HD
ENDBRANCH  18  24
BRANCH  18  14
ATOM     14  C   UNL     1      12.532   6.701   1.630  0.00  0.00    +0.035 C 
BRANCH  14  11
ATOM     11  C   UNL     1      12.144   5.570   0.679  0.00  0.00    -0.009 C 
ATOM     12  C   UNL     1      12.077   6.078  -0.768  0.00  0.00    +0.003 C 
ATOM     13  C   UNL     1      13.129   4.399   0.802  0.00  0.00    +0.003 C 
ATOM     15  C   UNL     1      11.742   4.953  -1.744  0.00  0.00    +0.000 C 
ATOM     16  C   UNL     1      12.793   3.276  -0.177  0.00  0.00    +0.000 C 
ATOM     17  C   UNL     1      12.717   3.786  -1.614  0.00  0.00    +0.000 C 
ENDBRANCH  14  11
ENDBRANCH  18  14
ENDBRANCH   8  18
ENDBRANCH  19  23
BRANCH   7   1
ATOM      1  S   UNL     1      10.204   8.848   5.029  0.00  0.00    +0.062 S 
ATOM      3  O   UNL     1      11.617   8.938   5.328  0.00  0.00    -0.153 OA
ATOM      4  O   UNL     1       9.261   9.787   5.599  0.00  0.00    -0.153 OA
BRANCH   1  26
ATOM     26  C   UNL     1      10.021   8.894   3.273  0.00  0.00    +0.106 A 
ATOM     28  C   UNL     1       9.146   8.012   2.640  0.00  0.00    +0.028 A 
ATOM     29  C   UNL     1      10.752   9.813   2.520  0.00  0.00    +0.028 A 
ATOM     30  C   UNL     1       9.002   8.048   1.253  0.00  0.00    +0.002 A 
ATOM     31  C   UNL     1      10.608   9.849   1.133  0.00  0.00    +0.002 A 
ATOM     32  C   UNL     1       9.732   8.966   0.500  0.00  0.00    +0.000 A 
ENDBRANCH   1  26
ENDBRANCH   7   1
TORSDOF 7
ENDMDL
MODEL 8
REMARK VINA RESULT:      -6.3     24.188     27.690
REMARK  Name = 7164930
REMARK  8 active torsions:
REMARK  status: ('A' for Active; 'I' for Inactive)
REMARK    1  A    between atoms: S_1  and  N_7
REMARK    2  A    between atoms: S_1  and  C_26
REMARK    3  A    between atoms: N_8  and  C_18
REMARK    4  A    between atoms: C_11  and  C_14
REMARK    5  A    between atoms: C_14  and  C_18
REMARK    6  A    between atoms: C_18  and  C_24
REMARK    7  A    between atoms: C_19  and  C_23
REMARK    8  A    between atoms: C_25  and  C_27
REMARK                            x       y       z     vdW  Elec       q    Type
REMARK                         _______ _______ _______ _____ _____    ______ ____
ROOT
ATOM      6  O   UNL     1      -9.688  -9.423  13.963  0.00  0.00    -0.276 OA
ATOM      7  N   UNL     1      -5.378 -11.050  16.105  0.00  0.00    -0.162 NA
ATOM      9  N   UNL     1      -7.881  -9.721  15.392  0.00  0.00    -0.298 N 
ATOM     19  C   UNL     1      -6.269 -11.543  15.013  0.00  0.00    +0.183 C 
ATOM     20  C   UNL     1      -7.072 -10.409  14.386  0.00  0.00    +0.137 C 
ATOM     21  C   UNL     1      -5.750  -9.715  16.660  0.00  0.00    +0.129 C 
ATOM     22  C   UNL     1      -7.262  -9.549  16.710  0.00  0.00    +0.125 C 
ATOM     25  C   UNL     1      -9.164  -9.281  15.069  0.00  0.00    +0.213 C 
ATOM     27  C   UNL     1      -9.924  -8.584  16.172  0.00  0.00    +0.109 C 
ENDROOT
BRANCH  19  23
ATOM      2  O   UNL     1      -5.707 -13.095  13.298  0.00  0.00    -0.274 OA
ATOM      8  N   UNL     1      -4.118 -11.533  13.973  0.00  0.00    -0.303 N 
ATOM     23  C   UNL     1      -5.359 -12.147  13.997  0.00  0.00    +0.234 C 
ATOM     33  H   UNL     1      -3.913 -10.811  14.657  0.00  0.00    +0.149 HD
BRANCH   8  18
ATOM     18  C   UNL     1      -3.049 -11.946  13.094  0.00  0.00    +0.159 C 
BRANCH  18  24
ATOM      5  O   UNL     1      -1.138 -13.375  13.557  0.00  0.00    -0.274 OA
ATOM     10  N   UNL     1      -1.838 -11.917  15.189  0.00  0.00    -0.328 N 
ATOM     24  C   UNL     1      -1.905 -12.492  13.938  0.00  0.00    +0.231 C 
ATOM     34  H   UNL     1      -1.125 -12.198  15.853  0.00  0.00    +0.145 HD
ATOM     35  H   UNL     1      -2.489 -11.202  15.498  0.00  0.00    +0.145 HD
ENDBRANCH  18  24
BRANCH  18  14
ATOM     14  C   UNL     1      -2.607 -10.821  12.152  0.00  0.00    +0.035 C 
BRANCH  14  11
ATOM     11  C   UNL     1      -3.670 -10.396  11.141  0.00  0.00    -0.009 C 
ATOM     12  C   UNL     1      -3.147  -9.262  10.249  0.00  0.00    +0.003 C 
ATOM     13  C   UNL     1      -4.119 -11.594  10.293  0.00  0.00    +0.003 C 
ATOM     15  C   UNL     1      -4.173  -8.856   9.194  0.00  0.00    +0.000 C 
ATOM     16  C   UNL     1      -5.145 -11.184   9.238  0.00  0.00    +0.000 C 
ATOM     17  C   UNL     1      -4.625 -10.050   8.359  0.00  0.00    +0.000 C 
ENDBRANCH  14  11
ENDBRANCH  18  14
ENDBRANCH   8  18
ENDBRANCH  19  23
BRANCH   7   1
ATOM      1  S   UNL     1      -4.826 -12.216  17.231  0.00  0.00    +0.062 S 
ATOM      3  O   UNL     1      -4.025 -11.556  18.241  0.00  0.00    -0.153 OA
ATOM      4  O   UNL     1      -4.318 -13.364  16.511  0.00  0.00    -0.153 OA
BRANCH   1  26
ATOM     26  C   UNL     1      -6.359 -12.677  17.977  0.00  0.00    +0.106 A 
ATOM     28  C   UNL     1      -7.193 -13.597  17.344  0.00  0.00    +0.028 A 
ATOM     29  C   UNL     1      -6.735 -12.120  19.200  0.00  0.00    +0.028 A 
ATOM     30  C   UNL     1      -8.404 -13.961  17.932  0.00  0.00    +0.002 A 
ATOM     31  C   UNL     1      -7.946 -12.483  19.788  0.00  0.00    +0.002 A 
ATOM     32  C   UNL     1      -8.780 -13.405  19.154  0.00  0.00    +0.000 A 
ENDBRANCH   1  26
ENDBRANCH   7   1
TORSDOF 7
ENDMDL
MODEL 9
REMARK VINA RESULT:      -6.0      2.969      5.912
REMARK  Name = 7164930
REMARK  8 active torsions:
REMARK  status: ('A' for Active; 'I' for Inactive)
REMARK    1  A    between atoms: S_1  and  N_7
REMARK    2  A    between atoms: S_1  and  C_26
REMARK    3  A    between atoms: N_8  and  C_18
REMARK    4  A    between atoms: C_11  and  C_14
REMARK    5  A    between atoms: C_14  and  C_18
REMARK    6  A    between atoms: C_18  and  C_24
REMARK    7  A    between atoms: C_19  and  C_23
REMARK    8  A    between atoms: C_25  and  C_27
REMARK                            x       y       z     vdW  Elec       q    Type
REMARK                         _______ _______ _______ _____ _____    ______ ____
ROOT
ATOM      6  O   UNL     1      18.479   9.371   2.862  0.00  0.00    -0.276 OA
ATOM      7  N   UNL     1      14.881   6.431   0.808  0.00  0.00    -0.162 NA
ATOM      9  N   UNL     1      17.275   7.981   1.443  0.00  0.00    -0.298 N 
ATOM     19  C   UNL     1      15.135   7.000   2.163  0.00  0.00    +0.183 C 
ATOM     20  C   UNL     1      15.996   8.257   2.096  0.00  0.00    +0.137 C 
ATOM     21  C   UNL     1      15.828   6.890  -0.251  0.00  0.00    +0.129 C 
ATOM     22  C   UNL     1      17.234   7.049   0.311  0.00  0.00    +0.125 C 
ATOM     25  C   UNL     1      18.440   8.587   1.912  0.00  0.00    +0.213 C 
ATOM     27  C   UNL     1      19.712   8.239   1.177  0.00  0.00    +0.109 C 
ENDROOT
BRANCH  19  23
ATOM      2  O   UNL     1      13.028   8.109   2.147  0.00  0.00    -0.274 OA
ATOM      8  N   UNL     1      13.544   6.690   3.919  0.00  0.00    -0.303 N 
ATOM     23  C   UNL     1      13.790   7.332   2.717  0.00  0.00    +0.234 C 
ATOM     33  H   UNL     1      14.283   6.134   4.339  0.00  0.00    +0.149 HD
BRANCH   8  18
ATOM     18  C   UNL     1      12.324   6.861   4.672  0.00  0.00    +0.159 C 
BRANCH  18  24
ATOM      5  O   UNL     1      11.881   7.277   7.024  0.00  0.00    -0.274 OA
ATOM     10  N   UNL     1      13.961   6.512   6.419  0.00  0.00    -0.328 N 
ATOM     24  C   UNL     1      12.666   6.904   6.155  0.00  0.00    +0.231 C 
ATOM     34  H   UNL     1      14.318   6.502   7.369  0.00  0.00    +0.145 HD
ATOM     35  H   UNL     1      14.605   6.224   5.690  0.00  0.00    +0.145 HD
ENDBRANCH  18  24
BRANCH  18  14
ATOM     14  C   UNL     1      11.280   5.791   4.334  0.00  0.00    +0.035 C 
BRANCH  14  11
ATOM     11  C   UNL     1       9.899   6.348   3.995  0.00  0.00    -0.009 C 
ATOM     12  C   UNL     1       9.186   6.837   5.263  0.00  0.00    +0.003 C 
ATOM     13  C   UNL     1      10.009   7.477   2.960  0.00  0.00    +0.003 C 
ATOM     15  C   UNL     1       7.824   7.447   4.943  0.00  0.00    +0.000 C 
ATOM     16  C   UNL     1       8.645   8.086   2.644  0.00  0.00    +0.000 C 
ATOM     17  C   UNL     1       7.935   8.563   3.908  0.00  0.00    +0.000 C 
ENDBRANCH  14  11
ENDBRANCH  18  14
ENDBRANCH   8  18
ENDBRANCH  19  23
BRANCH   7   1
ATOM      1  S   UNL     1      14.401   4.789   0.740  0.00  0.00    +0.062 S 
ATOM      3  O   UNL     1      14.573   4.191   2.047  0.00  0.00    -0.153 OA
ATOM      4  O   UNL     1      14.975   4.179  -0.440  0.00  0.00    -0.153 OA
BRANCH   1  26
ATOM     26  C   UNL     1      12.668   4.984   0.461  0.00  0.00    +0.106 A 
ATOM     28  C   UNL     1      12.212   5.933  -0.453  0.00  0.00    +0.028 A 
ATOM     29  C   UNL     1      11.756   4.189   1.157  0.00  0.00    +0.028 A 
ATOM     30  C   UNL     1      10.843   6.087  -0.674  0.00  0.00    +0.002 A 
ATOM     31  C   UNL     1      10.388   4.344   0.937  0.00  0.00    +0.002 A 
ATOM     32  C   UNL     1       9.931   5.293   0.021  0.00  0.00    +0.000 A 
ENDBRANCH   1  26
ENDBRANCH   7   1
TORSDOF 7
ENDMDL
MODEL 10
REMARK VINA RESULT:      -6.0     28.753     32.456
REMARK  Name = 7164930
REMARK  8 active torsions:
REMARK  status: ('A' for Active; 'I' for Inactive)
REMARK    1  A    between atoms: S_1  and  N_7
REMARK    2  A    between atoms: S_1  and  C_26
REMARK    3  A    between atoms: N_8  and  C_18
REMARK    4  A    between atoms: C_11  and  C_14
REMARK    5  A    between atoms: C_14  and  C_18
REMARK    6  A    between atoms: C_18  and  C_24
REMARK    7  A    between atoms: C_19  and  C_23
REMARK    8  A    between atoms: C_25  and  C_27
REMARK                            x       y       z     vdW  Elec       q    Type
REMARK                         _______ _______ _______ _____ _____    ______ ____
ROOT
ATOM      6  O   UNL     1     -18.140   8.178  26.687  0.00  0.00    -0.276 OA
ATOM      7  N   UNL     1     -15.193  10.580  23.316  0.00  0.00    -0.162 NA
ATOM      9  N   UNL     1     -16.999   9.801  25.477  0.00  0.00    -0.298 N 
ATOM     19  C   UNL     1     -15.370   9.162  23.744  0.00  0.00    +0.183 C 
ATOM     20  C   UNL     1     -16.755   8.920  24.335  0.00  0.00    +0.137 C 
ATOM     21  C   UNL     1     -16.160  11.543  23.923  0.00  0.00    +0.129 C 
ATOM     22  C   UNL     1     -16.469  11.164  25.365  0.00  0.00    +0.125 C 
ATOM     25  C   UNL     1     -17.692   9.323  26.588  0.00  0.00    +0.213 C 
ATOM     27  C   UNL     1     -17.893  10.303  27.718  0.00  0.00    +0.109 C 
ENDROOT
BRANCH  19  23
ATOM      2  O   UNL     1     -15.939   8.464  21.540  0.00  0.00    -0.274 OA
ATOM      8  N   UNL     1     -14.132   7.461  22.613  0.00  0.00    -0.303 N 
ATOM     23  C   UNL     1     -15.192   8.345  22.509  0.00  0.00    +0.234 C 
ATOM     33  H   UNL     1     -13.634   7.392  23.496  0.00  0.00    +0.149 HD
BRANCH   8  18
ATOM     18  C   UNL     1     -13.763   6.541  21.562  0.00  0.00    +0.159 C 
BRANCH  18  24
ATOM      5  O   UNL     1     -14.851   4.441  22.120  0.00  0.00    -0.274 OA
ATOM     10  N   UNL     1     -12.623   4.690  22.624  0.00  0.00    -0.328 N 
ATOM     24  C   UNL     1     -13.827   5.122  22.110  0.00  0.00    +0.231 C 
ATOM     34  H   UNL     1     -12.533   3.763  23.028  0.00  0.00    +0.145 HD
ATOM     35  H   UNL     1     -11.790   5.269  22.627  0.00  0.00    +0.145 HD
ENDBRANCH  18  24
BRANCH  18  14
ATOM     14  C   UNL     1     -12.401   6.879  20.947  0.00  0.00    +0.035 C 
BRANCH  14  11
ATOM     11  C   UNL     1     -12.472   7.820  19.746  0.00  0.00    -0.009 C 
ATOM     12  C   UNL     1     -11.318   7.542  18.772  0.00  0.00    +0.003 C 
ATOM     13  C   UNL     1     -13.828   7.691  19.037  0.00  0.00    +0.003 C 
ATOM     15  C   UNL     1     -11.398   8.434  17.536  0.00  0.00    +0.000 C 
ATOM     16  C   UNL     1     -13.903   8.583  17.800  0.00  0.00    +0.000 C 
ATOM     17  C   UNL     1     -12.749   8.310  16.839  0.00  0.00    +0.000 C 
ENDBRANCH  14  11
ENDBRANCH  18  14
ENDBRANCH   8  18
ENDBRANCH  19  23
BRANCH   7   1
ATOM      1  S   UNL     1     -13.583  11.133  23.132  0.00  0.00    +0.062 S 
ATOM      3  O   UNL     1     -12.673  10.045  23.422  0.00  0.00    -0.153 OA
ATOM      4  O   UNL     1     -13.447  12.415  23.790  0.00  0.00    -0.153 OA
BRANCH   1  26
ATOM     26  C   UNL     1     -13.550  11.413  21.388  0.00  0.00    +0.106 A 
ATOM     28  C   UNL     1     -14.738  11.637  20.695  0.00  0.00    +0.028 A 
ATOM     29  C   UNL     1     -12.333  11.409  20.705  0.00  0.00    +0.028 A 
ATOM     30  C   UNL     1     -14.712  11.858  19.318  0.00  0.00    +0.002 A 
ATOM     31  C   UNL     1     -12.307  11.629  19.328  0.00  0.00    +0.002 A 
ATOM     32  C   UNL     1     -13.497  11.854  18.634  0.00  0.00    +0.000 A 
ENDBRANCH   1  26
ENDBRANCH   7   1
TORSDOF 7
ENDMDL
