MODEL 1
REMARK VINA RESULT:      -5.3      0.000      0.000
REMARK  Name = 7049408
REMARK  14 active torsions:
REMARK  status: ('A' for Active; 'I' for Inactive)
REMARK    1  A    between atoms: S_1  and  C_19
REMARK    2  A    between atoms: S_1  and  C_25
REMARK    3  A    between atoms: O_5  and  C_21
REMARK    4  A    between atoms: O_5  and  C_26
REMARK    5  A    between atoms: N_8  and  C_12
REMARK    6  A    between atoms: N_9  and  C_17
REMARK    7  A    between atoms: N_10  and  C_24
REMARK    8  A    between atoms: C_11  and  C_15
REMARK    9  A    between atoms: C_16  and  C_19
REMARK   10  A    between atoms: C_17  and  C_18
REMARK   11  A    between atoms: C_17  and  C_21
REMARK   12  A    between atoms: C_18  and  C_22
REMARK   13  A    between atoms: C_18  and  C_23
REMARK   14  A    between atoms: C_24  and  C_27
REMARK                            x       y       z     vdW  Elec       q    Type
REMARK                         _______ _______ _______ _____ _____    ______ ____
ROOT
ATOM      3  O   UNL     1      11.583  12.432  22.294  0.00  0.00    -0.275 OA
ATOM      7  N   UNL     1      13.892  12.371  22.151  0.00  0.00    -0.287 N 
ATOM     11  C   UNL     1      13.955  11.808  20.811  0.00  0.00    +0.164 C 
ATOM     12  C   UNL     1      16.195  12.023  21.690  0.00  0.00    +0.094 C 
ATOM     13  C   UNL     1      15.410  11.978  20.377  0.00  0.00    +0.055 C 
ATOM     14  C   UNL     1      15.226  12.687  22.662  0.00  0.00    +0.131 C 
ATOM     16  C   UNL     1      12.690  12.714  22.754  0.00  0.00    +0.226 C 
ENDROOT
BRANCH  12   8
ATOM      4  O   UNL     1      18.315  10.378  20.625  0.00  0.00    -0.253 OA
ATOM      8  N   UNL     1      16.579  10.704  22.131  0.00  0.00    -0.295 N 
ATOM     10  N   UNL     1      17.775   8.738  22.174  0.00  0.00    -0.296 N 
ATOM     20  C   UNL     1      17.621   9.977  21.557  0.00  0.00    +0.300 C 
ATOM     29  H   UNL     1      16.024  10.257  22.855  0.00  0.00    +0.151 HD
ATOM     31  H   UNL     1      17.139   8.483  22.924  0.00  0.00    +0.151 HD
BRANCH  10  24
ATOM     24  C   UNL     1      18.783   7.785  21.774  0.00  0.00    +0.132 C 
BRANCH  24  27
ATOM     27  C   UNL     1      18.113   6.554  21.261  0.00  0.00    -0.016 C 
ATOM     28  C   UNL     1      17.948   6.282  19.961  0.00  0.00    +0.005 C 
ENDBRANCH  24  27
ENDBRANCH  10  24
ENDBRANCH  12   8
BRANCH  11  15
ATOM      2  O   UNL     1      13.692   9.704  21.908  0.00  0.00    -0.274 OA
ATOM      9  N   UNL     1      13.093   9.889  19.665  0.00  0.00    -0.301 N 
ATOM     15  C   UNL     1      13.567  10.362  20.877  0.00  0.00    +0.234 C 
ATOM     30  H   UNL     1      12.948  10.553  18.911  0.00  0.00    +0.150 HD
BRANCH   9  17
ATOM     17  C   UNL     1      12.674   8.522  19.459  0.00  0.00    +0.184 C 
BRANCH  17  18
ATOM     18  C   UNL     1      13.288   7.902  18.186  0.00  0.00    +0.014 C 
ATOM     22  C   UNL     1      13.469   8.955  17.088  0.00  0.00    +0.009 C 
ATOM     23  C   UNL     1      14.617   7.183  18.444  0.00  0.00    +0.009 C 
ENDBRANCH  17  18
BRANCH  17  21
ATOM      6  O   UNL     1      10.466   8.659  18.480  0.00  0.00    -0.249 OA
ATOM     21  C   UNL     1      11.154   8.394  19.460  0.00  0.00    +0.328 C 
BRANCH  21   5
ATOM      5  O   UNL     1      10.674   7.960  20.660  0.00  0.00    -0.467 OA
ATOM     26  C   UNL     1      11.366   6.851  21.243  0.00  0.00    +0.280 C 
ENDBRANCH  21   5
ENDBRANCH  17  21
ENDBRANCH   9  17
ENDBRANCH  11  15
BRANCH  16  19
ATOM     19  C   UNL     1      12.806  13.466  24.055  0.00  0.00    +0.164 C 
BRANCH  19   1
ATOM      1  S   UNL     1      11.963  12.503  25.320  0.00  0.00    -0.155 S 
ATOM     25  C   UNL     1      10.558  13.604  25.619  0.00  0.00    +0.085 C 
ENDBRANCH  19   1
ENDBRANCH  16  19
TORSDOF 10
ENDMDL
MODEL 2
REMARK VINA RESULT:      -5.2     15.017     18.635
REMARK  Name = 7049408
REMARK  14 active torsions:
REMARK  status: ('A' for Active; 'I' for Inactive)
REMARK    1  A    between atoms: S_1  and  C_19
REMARK    2  A    between atoms: S_1  and  C_25
REMARK    3  A    between atoms: O_5  and  C_21
REMARK    4  A    between atoms: O_5  and  C_26
REMARK    5  A    between atoms: N_8  and  C_12
REMARK    6  A    between atoms: N_9  and  C_17
REMARK    7  A    between atoms: N_10  and  C_24
REMARK    8  A    between atoms: C_11  and  C_15
REMARK    9  A    between atoms: C_16  and  C_19
REMARK   10  A    between atoms: C_17  and  C_18
REMARK   11  A    between atoms: C_17  and  C_21
REMARK   12  A    between atoms: C_18  and  C_22
REMARK   13  A    between atoms: C_18  and  C_23
REMARK   14  A    between atoms: C_24  and  C_27
REMARK                            x       y       z     vdW  Elec       q    Type
REMARK                         _______ _______ _______ _____ _____    ______ ____
ROOT
ATOM      3  O   UNL     1      14.138   6.713   0.994  0.00  0.00    -0.275 OA
ATOM      7  N   UNL     1      12.492   5.488   2.062  0.00  0.00    -0.287 N 
ATOM     11  C   UNL     1      11.540   6.581   2.196  0.00  0.00    +0.164 C 
ATOM     12  C   UNL     1      10.652   4.615   3.284  0.00  0.00    +0.094 C 
ATOM     13  C   UNL     1      10.225   5.916   2.598  0.00  0.00    +0.055 C 
ATOM     14  C   UNL     1      11.930   4.228   2.548  0.00  0.00    +0.131 C 
ATOM     16  C   UNL     1      13.696   5.634   1.389  0.00  0.00    +0.226 C 
ENDROOT
BRANCH  12   8
ATOM      4  O   UNL     1       8.695   5.320   5.286  0.00  0.00    -0.253 OA
ATOM      8  N   UNL     1      10.880   4.803   4.695  0.00  0.00    -0.295 N 
ATOM     10  N   UNL     1      10.368   5.263   6.892  0.00  0.00    -0.296 N 
ATOM     20  C   UNL     1       9.872   5.145   5.596  0.00  0.00    +0.300 C 
ATOM     29  H   UNL     1      11.834   4.744   5.042  0.00  0.00    +0.151 HD
ATOM     31  H   UNL     1      11.362   5.120   7.050  0.00  0.00    +0.151 HD
BRANCH  10  24
ATOM     24  C   UNL     1       9.536   5.607   8.021  0.00  0.00    +0.132 C 
BRANCH  24  27
ATOM     27  C   UNL     1       9.620   4.518   9.038  0.00  0.00    -0.016 C 
ATOM     28  C   UNL     1       8.957   4.531  10.200  0.00  0.00    +0.005 C 
ENDBRANCH  24  27
ENDBRANCH  10  24
ENDBRANCH  12   8
BRANCH  11  15
ATOM      2  O   UNL     1      11.456   8.578   3.501  0.00  0.00    -0.274 OA
ATOM      9  N   UNL     1      13.175   7.054   3.881  0.00  0.00    -0.301 N 
ATOM     15  C   UNL     1      12.029   7.519   3.258  0.00  0.00    +0.234 C 
ATOM     30  H   UNL     1      13.502   6.120   3.658  0.00  0.00    +0.150 HD
BRANCH   9  17
ATOM     17  C   UNL     1      13.858   7.783   4.925  0.00  0.00    +0.184 C 
BRANCH  17  18
ATOM     18  C   UNL     1      15.338   7.365   5.066  0.00  0.00    +0.014 C 
ATOM     22  C   UNL     1      16.081   7.499   3.734  0.00  0.00    +0.009 C 
ATOM     23  C   UNL     1      16.083   8.138   6.160  0.00  0.00    +0.009 C 
ENDBRANCH  17  18
BRANCH  17  21
ATOM      6  O   UNL     1      12.988   6.618   6.857  0.00  0.00    -0.249 OA
ATOM     21  C   UNL     1      13.122   7.679   6.257  0.00  0.00    +0.328 C 
BRANCH  21   5
ATOM      5  O   UNL     1      12.648   8.884   6.679  0.00  0.00    -0.467 OA
ATOM     26  C   UNL     1      11.346   8.867   7.274  0.00  0.00    +0.280 C 
ENDBRANCH  21   5
ENDBRANCH  17  21
ENDBRANCH   9  17
ENDBRANCH  11  15
BRANCH  16  19
ATOM     19  C   UNL     1      14.475   4.362   1.167  0.00  0.00    +0.164 C 
BRANCH  19   1
ATOM      1  S   UNL     1      14.599   4.100  -0.608  0.00  0.00    -0.155 S 
ATOM     25  C   UNL     1      12.984   3.335  -0.891  0.00  0.00    +0.085 C 
ENDBRANCH  19   1
ENDBRANCH  16  19
TORSDOF 10
ENDMDL
MODEL 3
REMARK VINA RESULT:      -5.2     14.421     17.310
REMARK  Name = 7049408
REMARK  14 active torsions:
REMARK  status: ('A' for Active; 'I' for Inactive)
REMARK    1  A    between atoms: S_1  and  C_19
REMARK    2  A    between atoms: S_1  and  C_25
REMARK    3  A    between atoms: O_5  and  C_21
REMARK    4  A    between atoms: O_5  and  C_26
REMARK    5  A    between atoms: N_8  and  C_12
REMARK    6  A    between atoms: N_9  and  C_17
REMARK    7  A    between atoms: N_10  and  C_24
REMARK    8  A    between atoms: C_11  and  C_15
REMARK    9  A    between atoms: C_16  and  C_19
REMARK   10  A    between atoms: C_17  and  C_18
REMARK   11  A    between atoms: C_17  and  C_21
REMARK   12  A    between atoms: C_18  and  C_22
REMARK   13  A    between atoms: C_18  and  C_23
REMARK   14  A    between atoms: C_24  and  C_27
REMARK                            x       y       z     vdW  Elec       q    Type
REMARK                         _______ _______ _______ _____ _____    ______ ____
ROOT
ATOM      3  O   UNL     1       9.023   8.733   7.758  0.00  0.00    -0.275 OA
ATOM      7  N   UNL     1       9.210   6.967   6.275  0.00  0.00    -0.287 N 
ATOM     11  C   UNL     1       9.806   6.030   7.215  0.00  0.00    +0.164 C 
ATOM     12  C   UNL     1       9.692   5.001   5.032  0.00  0.00    +0.094 C 
ATOM     13  C   UNL     1       9.724   4.669   6.526  0.00  0.00    +0.055 C 
ATOM     14  C   UNL     1       8.955   6.336   4.980  0.00  0.00    +0.131 C 
ATOM     16  C   UNL     1       8.790   8.233   6.657  0.00  0.00    +0.226 C 
ENDROOT
BRANCH  12   8
ATOM      4  O   UNL     1      10.427   4.851   2.245  0.00  0.00    -0.253 OA
ATOM      8  N   UNL     1      11.018   5.098   4.476  0.00  0.00    -0.295 N 
ATOM     10  N   UNL     1      12.648   5.139   2.850  0.00  0.00    -0.296 N 
ATOM     20  C   UNL     1      11.285   5.014   3.110  0.00  0.00    +0.300 C 
ATOM     29  H   UNL     1      11.806   5.171   5.115  0.00  0.00    +0.151 HD
ATOM     31  H   UNL     1      13.286   5.251   3.633  0.00  0.00    +0.151 HD
BRANCH  10  24
ATOM     24  C   UNL     1      13.198   5.089   1.516  0.00  0.00    +0.132 C 
BRANCH  24  27
ATOM     27  C   UNL     1      13.389   3.662   1.122  0.00  0.00    -0.016 C 
ATOM     28  C   UNL     1      13.036   3.164  -0.069  0.00  0.00    +0.005 C 
ENDBRANCH  24  27
ENDBRANCH  10  24
ENDBRANCH  12   8
BRANCH  11  15
ATOM      2  O   UNL     1      11.955   5.807   8.229  0.00  0.00    -0.274 OA
ATOM      9  N   UNL     1      11.579   7.574   6.760  0.00  0.00    -0.301 N 
ATOM     15  C   UNL     1      11.227   6.435   7.464  0.00  0.00    +0.234 C 
ATOM     30  H   UNL     1      10.919   7.951   6.087  0.00  0.00    +0.150 HD
BRANCH   9  17
ATOM     17  C   UNL     1      12.887   8.183   6.844  0.00  0.00    +0.184 C 
BRANCH  17  18
ATOM     18  C   UNL     1      12.832   9.721   6.720  0.00  0.00    +0.014 C 
ATOM     22  C   UNL     1      12.003  10.339   7.851  0.00  0.00    +0.009 C 
ATOM     23  C   UNL     1      14.218  10.374   6.672  0.00  0.00    +0.009 C 
ENDBRANCH  17  18
BRANCH  17  21
ATOM      6  O   UNL     1      14.978   7.196   6.135  0.00  0.00    -0.249 OA
ATOM     21  C   UNL     1      13.853   7.579   5.830  0.00  0.00    +0.328 C 
BRANCH  21   5
ATOM      5  O   UNL     1      13.319   7.524   4.578  0.00  0.00    -0.467 OA
ATOM     26  C   UNL     1      14.007   8.277   3.574  0.00  0.00    +0.280 C 
ENDBRANCH  21   5
ENDBRANCH  17  21
ENDBRANCH   9  17
ENDBRANCH  11  15
BRANCH  16  19
ATOM     19  C   UNL     1       8.016   9.003   5.618  0.00  0.00    +0.164 C 
BRANCH  19   1
ATOM      1  S   UNL     1       8.948  10.495   5.237  0.00  0.00    -0.155 S 
ATOM     25  C   UNL     1      10.194   9.775   4.141  0.00  0.00    +0.085 C 
ENDBRANCH  19   1
ENDBRANCH  16  19
TORSDOF 10
ENDMDL
MODEL 4
REMARK VINA RESULT:      -4.9     27.847     30.154
REMARK  Name = 7049408
REMARK  14 active torsions:
REMARK  status: ('A' for Active; 'I' for Inactive)
REMARK    1  A    between atoms: S_1  and  C_19
REMARK    2  A    between atoms: S_1  and  C_25
REMARK    3  A    between atoms: O_5  and  C_21
REMARK    4  A    between atoms: O_5  and  C_26
REMARK    5  A    between atoms: N_8  and  C_12
REMARK    6  A    between atoms: N_9  and  C_17
REMARK    7  A    between atoms: N_10  and  C_24
REMARK    8  A    between atoms: C_11  and  C_15
REMARK    9  A    between atoms: C_16  and  C_19
REMARK   10  A    between atoms: C_17  and  C_18
REMARK   11  A    between atoms: C_17  and  C_21
REMARK   12  A    between atoms: C_18  and  C_22
REMARK   13  A    between atoms: C_18  and  C_23
REMARK   14  A    between atoms: C_24  and  C_27
REMARK                            x       y       z     vdW  Elec       q    Type
REMARK                         _______ _______ _______ _____ _____    ______ ____
ROOT
ATOM      3  O   UNL     1      -2.998 -14.740  15.088  0.00  0.00    -0.275 OA
ATOM      7  N   UNL     1      -2.481 -12.909  13.772  0.00  0.00    -0.287 N 
ATOM     11  C   UNL     1      -2.485 -11.931  14.850  0.00  0.00    +0.164 C 
ATOM     12  C   UNL     1      -2.110 -10.798  12.749  0.00  0.00    +0.094 C 
ATOM     13  C   UNL     1      -1.846 -10.679  14.252  0.00  0.00    +0.055 C 
ATOM     14  C   UNL     1      -2.084 -12.302  12.501  0.00  0.00    +0.131 C 
ATOM     16  C   UNL     1      -2.662 -14.264  14.003  0.00  0.00    +0.226 C 
ENDROOT
BRANCH  12   8
ATOM      4  O   UNL     1      -2.735  -9.398  10.303  0.00  0.00    -0.253 OA
ATOM      8  N   UNL     1      -3.376 -10.215  12.379  0.00  0.00    -0.295 N 
ATOM     10  N   UNL     1      -4.901  -9.089  11.072  0.00  0.00    -0.296 N 
ATOM     20  C   UNL     1      -3.591  -9.553  11.171  0.00  0.00    +0.300 C 
ATOM     29  H   UNL     1      -4.133 -10.233  13.057  0.00  0.00    +0.151 HD
ATOM     31  H   UNL     1      -5.534  -9.245  11.851  0.00  0.00    +0.151 HD
BRANCH  10  24
ATOM     24  C   UNL     1      -5.392  -8.368   9.922  0.00  0.00    +0.132 C 
BRANCH  24  27
ATOM     27  C   UNL     1      -5.953  -9.343   8.940  0.00  0.00    -0.016 C 
ATOM     28  C   UNL     1      -5.300  -9.762   7.849  0.00  0.00    +0.005 C 
ENDBRANCH  24  27
ENDBRANCH  10  24
ENDBRANCH  12   8
BRANCH  11  15
ATOM      2  O   UNL     1      -4.693 -11.076  14.544  0.00  0.00    -0.274 OA
ATOM      9  N   UNL     1      -4.175 -12.177  16.529  0.00  0.00    -0.301 N 
ATOM     15  C   UNL     1      -3.903 -11.678  15.267  0.00  0.00    +0.234 C 
ATOM     30  H   UNL     1      -3.466 -12.738  16.991  0.00  0.00    +0.150 HD
BRANCH   9  17
ATOM     17  C   UNL     1      -5.463 -12.043  17.171  0.00  0.00    +0.184 C 
BRANCH  17  18
ATOM     18  C   UNL     1      -5.352 -11.977  18.710  0.00  0.00    +0.014 C 
ATOM     22  C   UNL     1      -3.892 -12.063  19.165  0.00  0.00    +0.009 C 
ATOM     23  C   UNL     1      -6.014 -10.731  19.310  0.00  0.00    +0.009 C 
ENDBRANCH  17  18
BRANCH  17  21
ATOM      6  O   UNL     1      -6.350 -14.293  17.147  0.00  0.00    -0.249 OA
ATOM     21  C   UNL     1      -6.425 -13.142  16.732  0.00  0.00    +0.328 C 
BRANCH  21   5
ATOM      5  O   UNL     1      -7.352 -12.689  15.841  0.00  0.00    -0.467 OA
ATOM     26  C   UNL     1      -7.859 -11.373  16.086  0.00  0.00    +0.280 C 
ENDBRANCH  21   5
ENDBRANCH  17  21
ENDBRANCH   9  17
ENDBRANCH  11  15
BRANCH  16  19
ATOM     19  C   UNL     1      -2.434 -15.163  12.814  0.00  0.00    +0.164 C 
BRANCH  19   1
ATOM      1  S   UNL     1      -0.809 -15.914  13.001  0.00  0.00    -0.155 S 
ATOM     25  C   UNL     1      -0.667 -16.682  11.369  0.00  0.00    +0.085 C 
ENDBRANCH  19   1
ENDBRANCH  16  19
TORSDOF 10
ENDMDL
MODEL 5
REMARK VINA RESULT:      -4.9      2.920      5.609
REMARK  Name = 7049408
REMARK  14 active torsions:
REMARK  status: ('A' for Active; 'I' for Inactive)
REMARK    1  A    between atoms: S_1  and  C_19
REMARK    2  A    between atoms: S_1  and  C_25
REMARK    3  A    between atoms: O_5  and  C_21
REMARK    4  A    between atoms: O_5  and  C_26
REMARK    5  A    between atoms: N_8  and  C_12
REMARK    6  A    between atoms: N_9  and  C_17
REMARK    7  A    between atoms: N_10  and  C_24
REMARK    8  A    between atoms: C_11  and  C_15
REMARK    9  A    between atoms: C_16  and  C_19
REMARK   10  A    between atoms: C_17  and  C_18
REMARK   11  A    between atoms: C_17  and  C_21
REMARK   12  A    between atoms: C_18  and  C_22
REMARK   13  A    between atoms: C_18  and  C_23
REMARK   14  A    between atoms: C_24  and  C_27
REMARK                            x       y       z     vdW  Elec       q    Type
REMARK                         _______ _______ _______ _____ _____    ______ ____
ROOT
ATOM      3  O   UNL     1      12.500   9.937  18.033  0.00  0.00    -0.275 OA
ATOM      7  N   UNL     1      13.902   8.248  18.763  0.00  0.00    -0.287 N 
ATOM     11  C   UNL     1      13.137   7.907  19.953  0.00  0.00    +0.164 C 
ATOM     12  C   UNL     1      15.151   6.574  19.895  0.00  0.00    +0.094 C 
ATOM     13  C   UNL     1      13.718   6.578  20.432  0.00  0.00    +0.055 C 
ATOM     14  C   UNL     1      15.043   7.348  18.585  0.00  0.00    +0.131 C 
ATOM     16  C   UNL     1      13.467   9.195  17.849  0.00  0.00    +0.226 C 
ENDROOT
BRANCH  12   8
ATOM      4  O   UNL     1      18.032   6.388  19.876  0.00  0.00    -0.253 OA
ATOM      8  N   UNL     1      16.069   7.200  20.814  0.00  0.00    -0.295 N 
ATOM     10  N   UNL     1      18.099   7.765  21.742  0.00  0.00    -0.296 N 
ATOM     20  C   UNL     1      17.454   7.056  20.732  0.00  0.00    +0.300 C 
ATOM     29  H   UNL     1      15.687   7.722  21.598  0.00  0.00    +0.151 HD
ATOM     31  H   UNL     1      17.536   8.273  22.419  0.00  0.00    +0.151 HD
BRANCH  10  24
ATOM     24  C   UNL     1      19.535   7.788  21.888  0.00  0.00    +0.132 C 
BRANCH  24  27
ATOM     27  C   UNL     1      19.964   6.592  22.671  0.00  0.00    -0.016 C 
ATOM     28  C   UNL     1      21.009   5.823  22.345  0.00  0.00    +0.005 C 
ENDBRANCH  24  27
ENDBRANCH  10  24
ENDBRANCH  12   8
BRANCH  11  15
ATOM      2  O   UNL     1      14.343   9.065  21.656  0.00  0.00    -0.274 OA
ATOM      9  N   UNL     1      12.230   9.833  21.050  0.00  0.00    -0.301 N 
ATOM     15  C   UNL     1      13.324   8.988  20.973  0.00  0.00    +0.234 C 
ATOM     30  H   UNL     1      11.486   9.724  20.369  0.00  0.00    +0.150 HD
BRANCH   9  17
ATOM     17  C   UNL     1      12.152  10.943  21.972  0.00  0.00    +0.184 C 
BRANCH  17  18
ATOM     18  C   UNL     1      10.981  10.802  22.968  0.00  0.00    +0.014 C 
ATOM     22  C   UNL     1      10.534   9.343  23.095  0.00  0.00    +0.009 C 
ATOM     23  C   UNL     1      11.294  11.375  24.355  0.00  0.00    +0.009 C 
ENDBRANCH  17  18
BRANCH  17  21
ATOM      6  O   UNL     1      11.097  12.987  21.225  0.00  0.00    -0.249 OA
ATOM     21  C   UNL     1      12.099  12.279  21.239  0.00  0.00    +0.328 C 
BRANCH  21   5
ATOM      5  O   UNL     1      13.276  12.574  20.618  0.00  0.00    -0.467 OA
ATOM     26  C   UNL     1      13.166  13.099  19.291  0.00  0.00    +0.280 C 
ENDBRANCH  21   5
ENDBRANCH  17  21
ENDBRANCH   9  17
ENDBRANCH  11  15
BRANCH  16  19
ATOM     19  C   UNL     1      14.269   9.290  16.576  0.00  0.00    +0.164 C 
BRANCH  19   1
ATOM      1  S   UNL     1      14.693  11.020  16.325  0.00  0.00    -0.155 S 
ATOM     25  C   UNL     1      15.411  10.894  14.669  0.00  0.00    +0.085 C 
ENDBRANCH  19   1
ENDBRANCH  16  19
TORSDOF 10
ENDMDL
MODEL 6
REMARK VINA RESULT:      -4.7     27.630     30.455
REMARK  Name = 7049408
REMARK  14 active torsions:
REMARK  status: ('A' for Active; 'I' for Inactive)
REMARK    1  A    between atoms: S_1  and  C_19
REMARK    2  A    between atoms: S_1  and  C_25
REMARK    3  A    between atoms: O_5  and  C_21
REMARK    4  A    between atoms: O_5  and  C_26
REMARK    5  A    between atoms: N_8  and  C_12
REMARK    6  A    between atoms: N_9  and  C_17
REMARK    7  A    between atoms: N_10  and  C_24
REMARK    8  A    between atoms: C_11  and  C_15
REMARK    9  A    between atoms: C_16  and  C_19
REMARK   10  A    between atoms: C_17  and  C_18
REMARK   11  A    between atoms: C_17  and  C_21
REMARK   12  A    between atoms: C_18  and  C_22
REMARK   13  A    between atoms: C_18  and  C_23
REMARK   14  A    between atoms: C_24  and  C_27
REMARK                            x       y       z     vdW  Elec       q    Type
REMARK                         _______ _______ _______ _____ _____    ______ ____
ROOT
ATOM      3  O   UNL     1      -9.149 -12.059  18.579  0.00  0.00    -0.275 OA
ATOM      7  N   UNL     1      -6.862 -12.095  18.226  0.00  0.00    -0.287 N 
ATOM     11  C   UNL     1      -6.627 -10.698  18.558  0.00  0.00    +0.164 C 
ATOM     12  C   UNL     1      -4.553 -11.704  17.834  0.00  0.00    +0.094 C 
ATOM     13  C   UNL     1      -5.111 -10.574  18.703  0.00  0.00    +0.055 C 
ATOM     14  C   UNL     1      -5.608 -12.798  17.951  0.00  0.00    +0.131 C 
ATOM     16  C   UNL     1      -8.112 -12.683  18.346  0.00  0.00    +0.226 C 
ENDROOT
BRANCH  12   8
ATOM      4  O   UNL     1      -2.065 -10.969  16.568  0.00  0.00    -0.253 OA
ATOM      8  N   UNL     1      -4.362 -11.285  16.468  0.00  0.00    -0.295 N 
ATOM     10  N   UNL     1      -3.222 -10.580  14.596  0.00  0.00    -0.296 N 
ATOM     20  C   UNL     1      -3.119 -10.947  15.936  0.00  0.00    +0.300 C 
ATOM     29  H   UNL     1      -5.183 -11.172  15.878  0.00  0.00    +0.151 HD
ATOM     31  H   UNL     1      -4.141 -10.571  14.162  0.00  0.00    +0.151 HD
BRANCH  10  24
ATOM     24  C   UNL     1      -2.083 -10.183  13.803  0.00  0.00    +0.132 C 
BRANCH  24  27
ATOM     27  C   UNL     1      -2.167 -10.843  12.466  0.00  0.00    -0.016 C 
ATOM     28  C   UNL     1      -2.535 -10.212  11.345  0.00  0.00    +0.005 C 
ENDBRANCH  24  27
ENDBRANCH  10  24
ENDBRANCH  12   8
BRANCH  11  15
ATOM      2  O   UNL     1      -6.420  -9.478  16.516  0.00  0.00    -0.274 OA
ATOM      9  N   UNL     1      -8.480  -9.522  17.600  0.00  0.00    -0.301 N 
ATOM     15  C   UNL     1      -7.143  -9.844  17.440  0.00  0.00    +0.234 C 
ATOM     30  H   UNL     1      -8.996  -9.960  18.356  0.00  0.00    +0.150 HD
BRANCH   9  17
ATOM     17  C   UNL     1      -9.210  -8.690  16.670  0.00  0.00    +0.184 C 
BRANCH  17  18
ATOM     18  C   UNL     1     -10.373  -7.931  17.345  0.00  0.00    +0.014 C 
ATOM     22  C   UNL     1     -10.775  -6.697  16.531  0.00  0.00    +0.009 C 
ATOM     23  C   UNL     1     -11.602  -8.810  17.601  0.00  0.00    +0.009 C 
ENDBRANCH  17  18
BRANCH  17  21
ATOM      6  O   UNL     1      -9.932 -10.689  15.517  0.00  0.00    -0.249 OA
ATOM     21  C   UNL     1      -9.694  -9.488  15.464  0.00  0.00    +0.328 C 
BRANCH  21   5
ATOM      5  O   UNL     1      -9.823  -8.711  14.351  0.00  0.00    -0.467 OA
ATOM     26  C   UNL     1     -10.985  -8.956  13.553  0.00  0.00    +0.280 C 
ENDBRANCH  21   5
ENDBRANCH  17  21
ENDBRANCH   9  17
ENDBRANCH  11  15
BRANCH  16  19
ATOM     19  C   UNL     1      -8.149 -14.178  18.156  0.00  0.00    +0.164 C 
BRANCH  19   1
ATOM      1  S   UNL     1      -9.089 -14.517  16.659  0.00  0.00    -0.155 S 
ATOM     25  C   UNL     1     -10.605 -15.150  17.418  0.00  0.00    +0.085 C 
ENDBRANCH  19   1
ENDBRANCH  16  19
TORSDOF 10
ENDMDL
MODEL 7
REMARK VINA RESULT:      -4.6     17.741     21.178
REMARK  Name = 7049408
REMARK  14 active torsions:
REMARK  status: ('A' for Active; 'I' for Inactive)
REMARK    1  A    between atoms: S_1  and  C_19
REMARK    2  A    between atoms: S_1  and  C_25
REMARK    3  A    between atoms: O_5  and  C_21
REMARK    4  A    between atoms: O_5  and  C_26
REMARK    5  A    between atoms: N_8  and  C_12
REMARK    6  A    between atoms: N_9  and  C_17
REMARK    7  A    between atoms: N_10  and  C_24
REMARK    8  A    between atoms: C_11  and  C_15
REMARK    9  A    between atoms: C_16  and  C_19
REMARK   10  A    between atoms: C_17  and  C_18
REMARK   11  A    between atoms: C_17  and  C_21
REMARK   12  A    between atoms: C_18  and  C_22
REMARK   13  A    between atoms: C_18  and  C_23
REMARK   14  A    between atoms: C_24  and  C_27
REMARK                            x       y       z     vdW  Elec       q    Type
REMARK                         _______ _______ _______ _____ _____    ______ ____
ROOT
ATOM      3  O   UNL     1       9.743   4.542  -0.327  0.00  0.00    -0.275 OA
ATOM      7  N   UNL     1      11.992   4.065  -0.072  0.00  0.00    -0.287 N 
ATOM     11  C   UNL     1      11.951   3.863   1.369  0.00  0.00    +0.164 C 
ATOM     12  C   UNL     1      14.235   3.674   0.604  0.00  0.00    +0.094 C 
ATOM     13  C   UNL     1      13.290   3.216   1.718  0.00  0.00    +0.055 C 
ATOM     14  C   UNL     1      13.323   3.787  -0.612  0.00  0.00    +0.131 C 
ATOM     16  C   UNL     1      10.849   4.312  -0.817  0.00  0.00    +0.226 C 
ENDROOT
BRANCH  12   8
ATOM      4  O   UNL     1      16.572   4.812  -0.650  0.00  0.00    -0.253 OA
ATOM      8  N   UNL     1      14.867   4.930   0.921  0.00  0.00    -0.295 N 
ATOM     10  N   UNL     1      16.399   6.642   0.765  0.00  0.00    -0.296 N 
ATOM     20  C   UNL     1      15.999   5.407   0.261  0.00  0.00    +0.300 C 
ATOM     29  H   UNL     1      14.506   5.469   1.704  0.00  0.00    +0.151 HD
ATOM     31  H   UNL     1      15.875   7.048   1.536  0.00  0.00    +0.151 HD
BRANCH  10  24
ATOM     24  C   UNL     1      17.545   7.360   0.260  0.00  0.00    +0.132 C 
BRANCH  24  27
ATOM     27  C   UNL     1      18.084   8.237   1.341  0.00  0.00    -0.016 C 
ATOM     28  C   UNL     1      19.231   8.001   1.990  0.00  0.00    +0.005 C 
ENDBRANCH  24  27
ENDBRANCH  10  24
ENDBRANCH  12   8
BRANCH  11  15
ATOM      2  O   UNL     1      12.515   6.150   1.757  0.00  0.00    -0.274 OA
ATOM      9  N   UNL     1      10.786   5.191   2.986  0.00  0.00    -0.301 N 
ATOM     15  C   UNL     1      11.794   5.196   2.038  0.00  0.00    +0.234 C 
ATOM     30  H   UNL     1      10.197   4.368   3.063  0.00  0.00    +0.150 HD
BRANCH   9  17
ATOM     17  C   UNL     1      10.449   6.346   3.787  0.00  0.00    +0.184 C 
BRANCH  17  18
ATOM     18  C   UNL     1      10.181   5.983   5.264  0.00  0.00    +0.014 C 
ATOM     22  C   UNL     1       9.908   4.485   5.425  0.00  0.00    +0.009 C 
ATOM     23  C   UNL     1      11.310   6.413   6.207  0.00  0.00    +0.009 C 
ENDBRANCH  17  18
BRANCH  17  21
ATOM      6  O   UNL     1       9.265   7.492   2.017  0.00  0.00    -0.249 OA
ATOM     21  C   UNL     1       9.283   7.125   3.187  0.00  0.00    +0.328 C 
BRANCH  21   5
ATOM      5  O   UNL     1       8.294   7.353   4.096  0.00  0.00    -0.467 OA
ATOM     26  C   UNL     1       7.754   8.679   4.108  0.00  0.00    +0.280 C 
ENDBRANCH  21   5
ENDBRANCH  17  21
ENDBRANCH   9  17
ENDBRANCH  11  15
BRANCH  16  19
ATOM     19  C   UNL     1      11.032   4.299  -2.313  0.00  0.00    +0.164 C 
BRANCH  19   1
ATOM      1  S   UNL     1       9.445   4.700  -3.061  0.00  0.00    -0.155 S 
ATOM     25  C   UNL     1       9.305   3.293  -4.191  0.00  0.00    +0.085 C 
ENDBRANCH  19   1
ENDBRANCH  16  19
TORSDOF 10
ENDMDL
MODEL 8
REMARK VINA RESULT:      -4.6     29.859     32.957
REMARK  Name = 7049408
REMARK  14 active torsions:
REMARK  status: ('A' for Active; 'I' for Inactive)
REMARK    1  A    between atoms: S_1  and  C_19
REMARK    2  A    between atoms: S_1  and  C_25
REMARK    3  A    between atoms: O_5  and  C_21
REMARK    4  A    between atoms: O_5  and  C_26
REMARK    5  A    between atoms: N_8  and  C_12
REMARK    6  A    between atoms: N_9  and  C_17
REMARK    7  A    between atoms: N_10  and  C_24
REMARK    8  A    between atoms: C_11  and  C_15
REMARK    9  A    between atoms: C_16  and  C_19
REMARK   10  A    between atoms: C_17  and  C_18
REMARK   11  A    between atoms: C_17  and  C_21
REMARK   12  A    between atoms: C_18  and  C_22
REMARK   13  A    between atoms: C_18  and  C_23
REMARK   14  A    between atoms: C_24  and  C_27
REMARK                            x       y       z     vdW  Elec       q    Type
REMARK                         _______ _______ _______ _____ _____    ______ ____
ROOT
ATOM      3  O   UNL     1      -7.183  -9.858  17.935  0.00  0.00    -0.275 OA
ATOM      7  N   UNL     1      -8.400 -11.535  18.964  0.00  0.00    -0.287 N 
ATOM     11  C   UNL     1      -9.543 -11.478  18.066  0.00  0.00    +0.164 C 
ATOM     12  C   UNL     1      -9.987 -13.083  19.817  0.00  0.00    +0.094 C 
ATOM     13  C   UNL     1     -10.351 -12.738  18.371  0.00  0.00    +0.055 C 
ATOM     14  C   UNL     1      -8.540 -12.616  19.940  0.00  0.00    +0.131 C 
ATOM     16  C   UNL     1      -7.266 -10.761  18.768  0.00  0.00    +0.226 C 
ENDROOT
BRANCH  12   8
ATOM      4  O   UNL     1     -12.606 -13.930  20.684  0.00  0.00    -0.253 OA
ATOM      8  N   UNL     1     -10.848 -12.416  20.761  0.00  0.00    -0.295 N 
ATOM     10  N   UNL     1     -12.722 -12.059  22.050  0.00  0.00    -0.296 N 
ATOM     20  C   UNL     1     -12.105 -12.897  21.124  0.00  0.00    +0.300 C 
ATOM     29  H   UNL     1     -10.552 -11.518  21.135  0.00  0.00    +0.151 HD
ATOM     31  H   UNL     1     -12.239 -11.213  22.341  0.00  0.00    +0.151 HD
BRANCH  10  24
ATOM     24  C   UNL     1     -14.032 -12.324  22.595  0.00  0.00    +0.132 C 
BRANCH  24  27
ATOM     27  C   UNL     1     -13.889 -12.768  24.013  0.00  0.00    -0.016 C 
ATOM     28  C   UNL     1     -14.567 -12.231  25.034  0.00  0.00    +0.005 C 
ENDBRANCH  24  27
ENDBRANCH  10  24
ENDBRANCH  12   8
BRANCH  11  15
ATOM      2  O   UNL     1     -10.544  -9.867  19.517  0.00  0.00    -0.274 OA
ATOM      9  N   UNL     1     -10.776  -9.608  17.215  0.00  0.00    -0.301 N 
ATOM     15  C   UNL     1     -10.329 -10.236  18.365  0.00  0.00    +0.234 C 
ATOM     30  H   UNL     1     -10.455  -9.958  16.317  0.00  0.00    +0.150 HD
BRANCH   9  17
ATOM     17  C   UNL     1     -11.574  -8.404  17.231  0.00  0.00    +0.184 C 
BRANCH  17  18
ATOM     18  C   UNL     1     -13.012  -8.642  16.719  0.00  0.00    +0.014 C 
ATOM     22  C   UNL     1     -13.011  -9.460  15.424  0.00  0.00    +0.009 C 
ATOM     23  C   UNL     1     -13.920  -9.309  17.758  0.00  0.00    +0.009 C 
ENDBRANCH  17  18
BRANCH  17  21
ATOM      6  O   UNL     1      -9.733  -7.334  16.084  0.00  0.00    -0.249 OA
ATOM     21  C   UNL     1     -10.896  -7.270  16.470  0.00  0.00    +0.328 C 
BRANCH  21   5
ATOM      5  O   UNL     1     -11.727  -6.207  16.281  0.00  0.00    -0.467 OA
ATOM     26  C   UNL     1     -11.837  -5.734  14.934  0.00  0.00    +0.280 C 
ENDBRANCH  21   5
ENDBRANCH  17  21
ENDBRANCH   9  17
ENDBRANCH  11  15
BRANCH  16  19
ATOM     19  C   UNL     1      -6.097 -11.080  19.665  0.00  0.00    +0.164 C 
BRANCH  19   1
ATOM      1  S   UNL     1      -4.682 -11.440  18.612  0.00  0.00    -0.155 S 
ATOM     25  C   UNL     1      -5.209 -13.051  17.977  0.00  0.00    +0.085 C 
ENDBRANCH  19   1
ENDBRANCH  16  19
TORSDOF 10
ENDMDL
MODEL 9
REMARK VINA RESULT:      -4.5     15.663     19.399
REMARK  Name = 7049408
REMARK  14 active torsions:
REMARK  status: ('A' for Active; 'I' for Inactive)
REMARK    1  A    between atoms: S_1  and  C_19
REMARK    2  A    between atoms: S_1  and  C_25
REMARK    3  A    between atoms: O_5  and  C_21
REMARK    4  A    between atoms: O_5  and  C_26
REMARK    5  A    between atoms: N_8  and  C_12
REMARK    6  A    between atoms: N_9  and  C_17
REMARK    7  A    between atoms: N_10  and  C_24
REMARK    8  A    between atoms: C_11  and  C_15
REMARK    9  A    between atoms: C_16  and  C_19
REMARK   10  A    between atoms: C_17  and  C_18
REMARK   11  A    between atoms: C_17  and  C_21
REMARK   12  A    between atoms: C_18  and  C_22
REMARK   13  A    between atoms: C_18  and  C_23
REMARK   14  A    between atoms: C_24  and  C_27
REMARK                            x       y       z     vdW  Elec       q    Type
REMARK                         _______ _______ _______ _____ _____    ______ ____
ROOT
ATOM      3  O   UNL     1      13.534   7.128   5.828  0.00  0.00    -0.275 OA
ATOM      7  N   UNL     1      11.241   7.218   5.539  0.00  0.00    -0.287 N 
ATOM     11  C   UNL     1      11.118   5.951   4.833  0.00  0.00    +0.164 C 
ATOM     12  C   UNL     1       8.953   7.019   4.930  0.00  0.00    +0.094 C 
ATOM     13  C   UNL     1       9.621   5.646   4.820  0.00  0.00    +0.055 C 
ATOM     14  C   UNL     1       9.931   7.823   5.781  0.00  0.00    +0.131 C 
ATOM     16  C   UNL     1      12.449   7.664   6.053  0.00  0.00    +0.226 C 
ENDROOT
BRANCH  12   8
ATOM      4  O   UNL     1       7.234   9.250   4.301  0.00  0.00    -0.253 OA
ATOM      8  N   UNL     1       8.747   7.620   3.636  0.00  0.00    -0.295 N 
ATOM     10  N   UNL     1       7.883   9.081   2.080  0.00  0.00    -0.296 N 
ATOM     20  C   UNL     1       7.893   8.701   3.420  0.00  0.00    +0.300 C 
ATOM     29  H   UNL     1       9.199   7.198   2.830  0.00  0.00    +0.151 HD
ATOM     31  H   UNL     1       8.446   8.553   1.419  0.00  0.00    +0.151 HD
BRANCH  10  24
ATOM     24  C   UNL     1       7.083  10.174   1.582  0.00  0.00    +0.132 C 
BRANCH  24  27
ATOM     27  C   UNL     1       5.804   9.633   1.035  0.00  0.00    -0.016 C 
ATOM     28  C   UNL     1       4.607   9.839   1.597  0.00  0.00    +0.005 C 
ENDBRANCH  24  27
ENDBRANCH  10  24
ENDBRANCH  12   8
BRANCH  11  15
ATOM      2  O   UNL     1      11.648   7.206   2.873  0.00  0.00    -0.274 OA
ATOM      9  N   UNL     1      12.121   4.927   2.914  0.00  0.00    -0.301 N 
ATOM     15  C   UNL     1      11.657   6.119   3.445  0.00  0.00    +0.234 C 
ATOM     30  H   UNL     1      12.161   4.112   3.518  0.00  0.00    +0.150 HD
BRANCH   9  17
ATOM     17  C   UNL     1      12.670   4.815   1.582  0.00  0.00    +0.184 C 
BRANCH  17  18
ATOM     18  C   UNL     1      11.784   3.962   0.649  0.00  0.00    +0.014 C 
ATOM     22  C   UNL     1      10.346   4.489   0.614  0.00  0.00    +0.009 C 
ATOM     23  C   UNL     1      12.335   3.855  -0.777  0.00  0.00    +0.009 C 
ENDBRANCH  17  18
BRANCH  17  21
ATOM      6  O   UNL     1      14.382   3.121   1.794  0.00  0.00    -0.249 OA
ATOM     21  C   UNL     1      14.105   4.301   1.607  0.00  0.00    +0.328 C 
BRANCH  21   5
ATOM      5  O   UNL     1      15.013   5.296   1.402  0.00  0.00    -0.467 OA
ATOM     26  C   UNL     1      14.540   6.427   0.663  0.00  0.00    +0.280 C 
ENDBRANCH  21   5
ENDBRANCH  17  21
ENDBRANCH   9  17
ENDBRANCH  11  15
BRANCH  16  19
ATOM     19  C   UNL     1      12.371   8.892   6.925  0.00  0.00    +0.164 C 
BRANCH  19   1
ATOM      1  S   UNL     1      12.895  10.300   5.934  0.00  0.00    -0.155 S 
ATOM     25  C   UNL     1      14.574  10.488   6.583  0.00  0.00    +0.085 C 
ENDBRANCH  19   1
ENDBRANCH  16  19
TORSDOF 10
ENDMDL
MODEL 10
REMARK VINA RESULT:      -4.4     22.357     25.076
REMARK  Name = 7049408
REMARK  14 active torsions:
REMARK  status: ('A' for Active; 'I' for Inactive)
REMARK    1  A    between atoms: S_1  and  C_19
REMARK    2  A    between atoms: S_1  and  C_25
REMARK    3  A    between atoms: O_5  and  C_21
REMARK    4  A    between atoms: O_5  and  C_26
REMARK    5  A    between atoms: N_8  and  C_12
REMARK    6  A    between atoms: N_9  and  C_17
REMARK    7  A    between atoms: N_10  and  C_24
REMARK    8  A    between atoms: C_11  and  C_15
REMARK    9  A    between atoms: C_16  and  C_19
REMARK   10  A    between atoms: C_17  and  C_18
REMARK   11  A    between atoms: C_17  and  C_21
REMARK   12  A    between atoms: C_18  and  C_22
REMARK   13  A    between atoms: C_18  and  C_23
REMARK   14  A    between atoms: C_24  and  C_27
REMARK                            x       y       z     vdW  Elec       q    Type
REMARK                         _______ _______ _______ _____ _____    ______ ____
ROOT
ATOM      3  O   UNL     1       7.203  -7.013  36.061  0.00  0.00    -0.275 OA
ATOM      7  N   UNL     1       7.581  -7.741  33.898  0.00  0.00    -0.287 N 
ATOM     11  C   UNL     1       6.182  -7.916  33.540  0.00  0.00    +0.164 C 
ATOM     12  C   UNL     1       7.569  -8.646  31.701  0.00  0.00    +0.094 C 
ATOM     13  C   UNL     1       6.178  -8.093  32.023  0.00  0.00    +0.055 C 
ATOM     14  C   UNL     1       8.461  -8.001  32.757  0.00  0.00    +0.131 C 
ATOM     16  C   UNL     1       7.973  -7.219  35.122  0.00  0.00    +0.226 C 
ENDROOT
BRANCH  12   8
ATOM      4  O   UNL     1       7.129 -10.511  29.543  0.00  0.00    -0.253 OA
ATOM      8  N   UNL     1       7.604 -10.085  31.775  0.00  0.00    -0.295 N 
ATOM     10  N   UNL     1       7.473 -12.259  31.029  0.00  0.00    -0.296 N 
ATOM     20  C   UNL     1       7.379 -10.914  30.677  0.00  0.00    +0.300 C 
ATOM     29  H   UNL     1       7.740 -10.519  32.684  0.00  0.00    +0.151 HD
ATOM     31  H   UNL     1       7.662 -12.498  31.998  0.00  0.00    +0.151 HD
BRANCH  10  24
ATOM     24  C   UNL     1       7.283 -13.331  30.081  0.00  0.00    +0.132 C 
BRANCH  24  27
ATOM     27  C   UNL     1       5.979 -14.001  30.358  0.00  0.00    -0.016 C 
ATOM     28  C   UNL     1       4.844 -13.722  29.707  0.00  0.00    +0.005 C 
ENDBRANCH  24  27
ENDBRANCH  10  24
ENDBRANCH  12   8
BRANCH  11  15
ATOM      2  O   UNL     1       5.961 -10.269  33.876  0.00  0.00    -0.274 OA
ATOM      9  N   UNL     1       4.800  -8.816  35.278  0.00  0.00    -0.301 N 
ATOM     15  C   UNL     1       5.655  -9.135  34.237  0.00  0.00    +0.234 C 
ATOM     30  H   UNL     1       4.698  -7.841  35.539  0.00  0.00    +0.150 HD
BRANCH   9  17
ATOM     17  C   UNL     1       4.142  -9.812  36.092  0.00  0.00    +0.184 C 
BRANCH  17  18
ATOM     18  C   UNL     1       2.784 -10.252  35.505  0.00  0.00    +0.014 C 
ATOM     22  C   UNL     1       2.713 -11.775  35.354  0.00  0.00    +0.009 C 
ATOM     23  C   UNL     1       1.583  -9.751  36.315  0.00  0.00    +0.009 C 
ENDBRANCH  17  18
BRANCH  17  21
ATOM      6  O   UNL     1       3.776 -10.122  38.463  0.00  0.00    -0.249 OA
ATOM     21  C   UNL     1       3.996  -9.347  37.538  0.00  0.00    +0.328 C 
BRANCH  21   5
ATOM      5  O   UNL     1       4.138  -7.998  37.662  0.00  0.00    -0.467 OA
ATOM     26  C   UNL     1       3.325  -7.376  38.663  0.00  0.00    +0.280 C 
ENDBRANCH  21   5
ENDBRANCH  17  21
ENDBRANCH   9  17
ENDBRANCH  11  15
BRANCH  16  19
ATOM     19  C   UNL     1       9.443  -6.917  35.260  0.00  0.00    +0.164 C 
BRANCH  19   1
ATOM      1  S   UNL     1       9.632  -5.127  35.289  0.00  0.00    -0.155 S 
ATOM     25  C   UNL     1      10.469  -4.909  33.700  0.00  0.00    +0.085 C 
ENDBRANCH  19   1
ENDBRANCH  16  19
TORSDOF 10
ENDMDL
