MODEL 1
REMARK VINA RESULT:      -8.2      0.000      0.000
REMARK  Name = 71693889
REMARK  8 active torsions:
REMARK  status: ('A' for Active; 'I' for Inactive)
REMARK    1  A    between atoms: O_4  and  C_11
REMARK    2  A    between atoms: O_5  and  C_13
REMARK    3  A    between atoms: O_7  and  C_21
REMARK    4  A    between atoms: O_7  and  C_27
REMARK    5  A    between atoms: N_8  and  C_10
REMARK    6  A    between atoms: C_9  and  C_14
REMARK    7  A    between atoms: C_17  and  C_20
REMARK    8  A    between atoms: C_26  and  C_28
REMARK                            x       y       z     vdW  Elec       q    Type
REMARK                         _______ _______ _______ _____ _____    ______ ____
ROOT
ATOM      9  C   UNL     1      13.030   9.134  20.143  0.00  0.00    +0.044 C 
ATOM     10  C   UNL     1      13.188   7.609  20.345  0.00  0.00    +0.112 C 
ATOM     11  C   UNL     1      12.347   7.328  21.589  0.00  0.00    +0.164 C 
ATOM     12  C   UNL     1      11.709   9.521  20.856  0.00  0.00    +0.044 C 
ATOM     13  C   UNL     1      11.124   8.214  21.387  0.00  0.00    +0.145 C 
ENDROOT
BRANCH   9  14
ATOM     14  C   UNL     1      13.099   9.548  18.688  0.00  0.00    -0.042 A 
ATOM     15  C   UNL     1      13.996  10.537  18.285  0.00  0.00    +0.007 A 
ATOM     16  C   UNL     1      12.264   8.940  17.750  0.00  0.00    +0.007 A 
ATOM     18  C   UNL     1      14.058  10.918  16.944  0.00  0.00    +0.046 A 
ATOM     19  C   UNL     1      12.327   9.321  16.409  0.00  0.00    +0.046 A 
ATOM     21  C   UNL     1      13.224  10.311  16.007  0.00  0.00    +0.120 A 
BRANCH  21   7
ATOM      7  O   UNL     1      13.286  10.682  14.699  0.00  0.00    -0.495 OA
ATOM     27  C   UNL     1      14.069  11.835  14.388  0.00  0.00    +0.277 C 
ENDBRANCH  21   7
ENDBRANCH   9  14
BRANCH  10   8
ATOM      6  O   UNL     1      15.068   6.923  18.286  0.00  0.00    -0.270 OA
ATOM      8  N   UNL     1      14.565   7.229  20.529  0.00  0.00    -0.305 N 
ATOM     17  C   UNL     1      15.402   6.913  19.467  0.00  0.00    +0.244 C 
ATOM     29  H   UNL     1      14.903   7.175  21.484  0.00  0.00    +0.149 HD
BRANCH  17  20
ATOM     20  C   UNL     1      16.787   6.514  19.826  0.00  0.00    +0.037 A 
ATOM     22  C   UNL     1      17.477   5.597  19.033  0.00  0.00    +0.013 A 
ATOM     23  C   UNL     1      17.398   7.055  20.958  0.00  0.00    +0.013 A 
ATOM     24  C   UNL     1      18.778   5.222  19.370  0.00  0.00    +0.013 A 
ATOM     25  C   UNL     1      18.698   6.680  21.296  0.00  0.00    +0.013 A 
ATOM     26  C   UNL     1      19.388   5.764  20.502  0.00  0.00    +0.055 A 
BRANCH  26  28
ATOM      1  F   UNL     1      21.063   4.058  20.574  0.00  0.00    -0.166 F 
ATOM      2  F   UNL     1      21.060   5.501  22.192  0.00  0.00    -0.166 F 
ATOM      3  F   UNL     1      21.723   6.097  20.209  0.00  0.00    -0.166 F 
ATOM     28  C   UNL     1      20.779   5.362  20.863  0.00  0.00    +0.417 C 
ENDBRANCH  26  28
ENDBRANCH  17  20
ENDBRANCH  10   8
BRANCH  11   4
ATOM      4  O   UNL     1      11.978   5.965  21.690  0.00  0.00    -0.387 OA
ATOM     30  H   UNL     1      11.346   5.780  20.975  0.00  0.00    +0.210 HD
ENDBRANCH  11   4
BRANCH  13   5
ATOM      5  O   UNL     1      10.254   7.668  20.399  0.00  0.00    -0.389 OA
ATOM     31  H   UNL     1      10.712   6.912  19.993  0.00  0.00    +0.210 HD
ENDBRANCH  13   5
TORSDOF 7
ENDMDL
MODEL 2
REMARK VINA RESULT:      -7.0      2.457      3.014
REMARK  Name = 71693889
REMARK  8 active torsions:
REMARK  status: ('A' for Active; 'I' for Inactive)
REMARK    1  A    between atoms: O_4  and  C_11
REMARK    2  A    between atoms: O_5  and  C_13
REMARK    3  A    between atoms: O_7  and  C_21
REMARK    4  A    between atoms: O_7  and  C_27
REMARK    5  A    between atoms: N_8  and  C_10
REMARK    6  A    between atoms: C_9  and  C_14
REMARK    7  A    between atoms: C_17  and  C_20
REMARK    8  A    between atoms: C_26  and  C_28
REMARK                            x       y       z     vdW  Elec       q    Type
REMARK                         _______ _______ _______ _____ _____    ______ ____
ROOT
ATOM      9  C   UNL     1      14.107  10.951  20.862  0.00  0.00    +0.044 C 
ATOM     10  C   UNL     1      14.596  10.111  22.063  0.00  0.00    +0.112 C 
ATOM     11  C   UNL     1      14.660  11.125  23.204  0.00  0.00    +0.164 C 
ATOM     12  C   UNL     1      13.373  12.174  21.472  0.00  0.00    +0.044 C 
ATOM     13  C   UNL     1      13.411  11.969  22.986  0.00  0.00    +0.145 C 
ENDROOT
BRANCH   9  14
ATOM     14  C   UNL     1      13.276  10.153  19.879  0.00  0.00    -0.042 A 
ATOM     15  C   UNL     1      13.556  10.218  18.513  0.00  0.00    +0.007 A 
ATOM     16  C   UNL     1      12.231   9.352  20.338  0.00  0.00    +0.007 A 
ATOM     18  C   UNL     1      12.791   9.483  17.609  0.00  0.00    +0.046 A 
ATOM     19  C   UNL     1      11.466   8.616  19.433  0.00  0.00    +0.046 A 
ATOM     21  C   UNL     1      11.746   8.682  18.069  0.00  0.00    +0.120 A 
BRANCH  21   7
ATOM      7  O   UNL     1      11.001   7.963  17.185  0.00  0.00    -0.495 OA
ATOM     27  C   UNL     1      10.509   8.655  16.037  0.00  0.00    +0.277 C 
ENDBRANCH  21   7
ENDBRANCH   9  14
BRANCH  10   8
ATOM      6  O   UNL     1      15.077   7.415  21.198  0.00  0.00    -0.270 OA
ATOM      8  N   UNL     1      15.878   9.503  21.810  0.00  0.00    -0.305 N 
ATOM     17  C   UNL     1      16.012   8.186  21.392  0.00  0.00    +0.244 C 
ATOM     29  H   UNL     1      16.698  10.077  21.975  0.00  0.00    +0.149 HD
BRANCH  17  20
ATOM     20  C   UNL     1      17.404   7.702  21.201  0.00  0.00    +0.037 A 
ATOM     22  C   UNL     1      17.638   6.482  20.568  0.00  0.00    +0.013 A 
ATOM     23  C   UNL     1      18.477   8.469  21.657  0.00  0.00    +0.013 A 
ATOM     24  C   UNL     1      18.944   6.027  20.389  0.00  0.00    +0.013 A 
ATOM     25  C   UNL     1      19.784   8.014  21.479  0.00  0.00    +0.013 A 
ATOM     26  C   UNL     1      20.018   6.793  20.845  0.00  0.00    +0.055 A 
BRANCH  26  28
ATOM      1  F   UNL     1      21.491   5.105  20.011  0.00  0.00    -0.166 F 
ATOM      2  F   UNL     1      22.095   6.128  21.825  0.00  0.00    -0.166 F 
ATOM      3  F   UNL     1      22.174   7.167  19.916  0.00  0.00    -0.166 F 
ATOM     28  C   UNL     1      21.415   6.307  20.654  0.00  0.00    +0.417 C 
ENDBRANCH  26  28
ENDBRANCH  17  20
ENDBRANCH  10   8
BRANCH  11   4
ATOM      4  O   UNL     1      14.639  10.502  24.475  0.00  0.00    -0.387 OA
ATOM     30  H   UNL     1      14.273   9.610  24.357  0.00  0.00    +0.210 HD
ENDBRANCH  11   4
BRANCH  13   5
ATOM      5  O   UNL     1      12.239  11.261  23.379  0.00  0.00    -0.389 OA
ATOM     31  H   UNL     1      12.272  10.384  22.959  0.00  0.00    +0.210 HD
ENDBRANCH  13   5
TORSDOF 7
ENDMDL
MODEL 3
REMARK VINA RESULT:      -6.6     15.313     18.531
REMARK  Name = 71693889
REMARK  8 active torsions:
REMARK  status: ('A' for Active; 'I' for Inactive)
REMARK    1  A    between atoms: O_4  and  C_11
REMARK    2  A    between atoms: O_5  and  C_13
REMARK    3  A    between atoms: O_7  and  C_21
REMARK    4  A    between atoms: O_7  and  C_27
REMARK    5  A    between atoms: N_8  and  C_10
REMARK    6  A    between atoms: C_9  and  C_14
REMARK    7  A    between atoms: C_17  and  C_20
REMARK    8  A    between atoms: C_26  and  C_28
REMARK                            x       y       z     vdW  Elec       q    Type
REMARK                         _______ _______ _______ _____ _____    ______ ____
ROOT
ATOM      9  C   UNL     1       8.620   7.329   4.063  0.00  0.00    +0.044 C 
ATOM     10  C   UNL     1       9.828   7.772   3.206  0.00  0.00    +0.112 C 
ATOM     11  C   UNL     1       9.383   9.116   2.633  0.00  0.00    +0.164 C 
ATOM     12  C   UNL     1       7.851   8.629   4.413  0.00  0.00    +0.044 C 
ATOM     13  C   UNL     1       8.664   9.771   3.806  0.00  0.00    +0.145 C 
ENDROOT
BRANCH   9  14
ATOM     14  C   UNL     1       9.019   6.497   5.263  0.00  0.00    -0.042 A 
ATOM     15  C   UNL     1       8.996   7.059   6.541  0.00  0.00    +0.007 A 
ATOM     16  C   UNL     1       9.409   5.169   5.094  0.00  0.00    +0.007 A 
ATOM     18  C   UNL     1       9.364   6.292   7.646  0.00  0.00    +0.046 A 
ATOM     19  C   UNL     1       9.776   4.402   6.199  0.00  0.00    +0.046 A 
ATOM     21  C   UNL     1       9.754   4.964   7.476  0.00  0.00    +0.120 A 
BRANCH  21   7
ATOM      7  O   UNL     1      10.110   4.216   8.555  0.00  0.00    -0.495 OA
ATOM     27  C   UNL     1       9.344   4.390   9.747  0.00  0.00    +0.277 C 
ENDBRANCH  21   7
ENDBRANCH   9  14
BRANCH  10   8
ATOM      6  O   UNL     1      12.188   6.146   3.010  0.00  0.00    -0.270 OA
ATOM      8  N   UNL     1      10.133   6.819   2.169  0.00  0.00    -0.305 N 
ATOM     17  C   UNL     1      11.305   6.075   2.159  0.00  0.00    +0.244 C 
ATOM     29  H   UNL     1       9.458   6.726   1.418  0.00  0.00    +0.149 HD
BRANCH  17  20
ATOM     20  C   UNL     1      11.482   5.155   1.005  0.00  0.00    +0.037 A 
ATOM     22  C   UNL     1      10.579   5.185  -0.057  0.00  0.00    +0.013 A 
ATOM     23  C   UNL     1      12.553   4.260   0.985  0.00  0.00    +0.013 A 
ATOM     24  C   UNL     1      10.745   4.322  -1.140  0.00  0.00    +0.013 A 
ATOM     25  C   UNL     1      12.719   3.396  -0.097  0.00  0.00    +0.013 A 
ATOM     26  C   UNL     1      11.815   3.427  -1.160  0.00  0.00    +0.055 A 
BRANCH  26  28
ATOM      1  F   UNL     1      13.063   2.812  -3.105  0.00  0.00    -0.166 F 
ATOM      2  F   UNL     1      10.922   2.479  -3.166  0.00  0.00    -0.166 F 
ATOM      3  F   UNL     1      12.183   1.209  -1.931  0.00  0.00    -0.166 F 
ATOM     28  C   UNL     1      11.992   2.503  -2.317  0.00  0.00    +0.417 C 
ENDBRANCH  26  28
ENDBRANCH  17  20
ENDBRANCH  10   8
BRANCH  11   4
ATOM      4  O   UNL     1      10.478   9.904   2.203  0.00  0.00    -0.387 OA
ATOM     30  H   UNL     1      10.728  10.484   2.941  0.00  0.00    +0.210 HD
ENDBRANCH  11   4
BRANCH  13   5
ATOM      5  O   UNL     1       9.593  10.237   4.780  0.00  0.00    -0.389 OA
ATOM     31  H   UNL     1       9.101  10.385   5.606  0.00  0.00    +0.210 HD
ENDBRANCH  13   5
TORSDOF 7
ENDMDL
MODEL 4
REMARK VINA RESULT:      -6.5     16.738     19.985
REMARK  Name = 71693889
REMARK  8 active torsions:
REMARK  status: ('A' for Active; 'I' for Inactive)
REMARK    1  A    between atoms: O_4  and  C_11
REMARK    2  A    between atoms: O_5  and  C_13
REMARK    3  A    between atoms: O_7  and  C_21
REMARK    4  A    between atoms: O_7  and  C_27
REMARK    5  A    between atoms: N_8  and  C_10
REMARK    6  A    between atoms: C_9  and  C_14
REMARK    7  A    between atoms: C_17  and  C_20
REMARK    8  A    between atoms: C_26  and  C_28
REMARK                            x       y       z     vdW  Elec       q    Type
REMARK                         _______ _______ _______ _____ _____    ______ ____
ROOT
ATOM      9  C   UNL     1      12.722   6.932   2.938  0.00  0.00    +0.044 C 
ATOM     10  C   UNL     1      13.477   5.819   2.176  0.00  0.00    +0.112 C 
ATOM     11  C   UNL     1      14.773   6.503   1.742  0.00  0.00    +0.164 C 
ATOM     12  C   UNL     1      13.807   7.936   3.405  0.00  0.00    +0.044 C 
ATOM     13  C   UNL     1      15.143   7.346   2.956  0.00  0.00    +0.145 C 
ENDROOT
BRANCH   9  14
ATOM     14  C   UNL     1      11.846   6.397   4.051  0.00  0.00    -0.042 A 
ATOM     15  C   UNL     1      10.855   5.456   3.770  0.00  0.00    +0.007 A 
ATOM     16  C   UNL     1      12.029   6.846   5.359  0.00  0.00    +0.007 A 
ATOM     18  C   UNL     1      10.049   4.964   4.796  0.00  0.00    +0.046 A 
ATOM     19  C   UNL     1      11.222   6.354   6.385  0.00  0.00    +0.046 A 
ATOM     21  C   UNL     1      10.232   5.413   6.103  0.00  0.00    +0.120 A 
BRANCH  21   7
ATOM      7  O   UNL     1       9.446   4.931   7.104  0.00  0.00    -0.495 OA
ATOM     27  C   UNL     1       9.779   5.323   8.436  0.00  0.00    +0.277 C 
ENDBRANCH  21   7
ENDBRANCH   9  14
BRANCH  10   8
ATOM      6  O   UNL     1      13.794   3.278   0.876  0.00  0.00    -0.270 OA
ATOM      8  N   UNL     1      12.723   5.328   1.050  0.00  0.00    -0.305 N 
ATOM     17  C   UNL     1      12.949   4.080   0.486  0.00  0.00    +0.244 C 
ATOM     29  H   UNL     1      12.024   5.951   0.660  0.00  0.00    +0.149 HD
BRANCH  17  20
ATOM     20  C   UNL     1      12.106   3.734  -0.687  0.00  0.00    +0.037 A 
ATOM     22  C   UNL     1      11.022   4.541  -1.030  0.00  0.00    +0.013 A 
ATOM     23  C   UNL     1      12.398   2.599  -1.444  0.00  0.00    +0.013 A 
ATOM     24  C   UNL     1      10.230   4.216  -2.132  0.00  0.00    +0.013 A 
ATOM     25  C   UNL     1      11.606   2.273  -2.545  0.00  0.00    +0.013 A 
ATOM     26  C   UNL     1      10.522   3.081  -2.889  0.00  0.00    +0.055 A 
BRANCH  26  28
ATOM      1  F   UNL     1       9.036   1.533  -3.944  0.00  0.00    -0.166 F 
ATOM      2  F   UNL     1      10.375   2.645  -5.237  0.00  0.00    -0.166 F 
ATOM      3  F   UNL     1       8.692   3.650  -4.295  0.00  0.00    -0.166 F 
ATOM     28  C   UNL     1       9.675   2.733  -4.066  0.00  0.00    +0.417 C 
ENDBRANCH  26  28
ENDBRANCH  17  20
ENDBRANCH  10   8
BRANCH  11   4
ATOM      4  O   UNL     1      15.794   5.571   1.437  0.00  0.00    -0.387 OA
ATOM     30  H   UNL     1      16.626   6.067   1.355  0.00  0.00    +0.210 HD
ENDBRANCH  11   4
BRANCH  13   5
ATOM      5  O   UNL     1      15.658   6.532   4.006  0.00  0.00    -0.389 OA
ATOM     31  H   UNL     1      15.385   6.935   4.848  0.00  0.00    +0.210 HD
ENDBRANCH  13   5
TORSDOF 7
ENDMDL
MODEL 5
REMARK VINA RESULT:      -6.5     14.740     18.089
REMARK  Name = 71693889
REMARK  8 active torsions:
REMARK  status: ('A' for Active; 'I' for Inactive)
REMARK    1  A    between atoms: O_4  and  C_11
REMARK    2  A    between atoms: O_5  and  C_13
REMARK    3  A    between atoms: O_7  and  C_21
REMARK    4  A    between atoms: O_7  and  C_27
REMARK    5  A    between atoms: N_8  and  C_10
REMARK    6  A    between atoms: C_9  and  C_14
REMARK    7  A    between atoms: C_17  and  C_20
REMARK    8  A    between atoms: C_26  and  C_28
REMARK                            x       y       z     vdW  Elec       q    Type
REMARK                         _______ _______ _______ _____ _____    ______ ____
ROOT
ATOM      9  C   UNL     1      14.119   5.004   1.261  0.00  0.00    +0.044 C 
ATOM     10  C   UNL     1      13.689   6.287   2.008  0.00  0.00    +0.112 C 
ATOM     11  C   UNL     1      15.008   7.022   2.239  0.00  0.00    +0.164 C 
ATOM     12  C   UNL     1      15.482   5.336   0.600  0.00  0.00    +0.044 C 
ATOM     13  C   UNL     1      15.761   6.800   0.933  0.00  0.00    +0.145 C 
ENDROOT
BRANCH   9  14
ATOM     14  C   UNL     1      13.066   4.499   0.298  0.00  0.00    -0.042 A 
ATOM     15  C   UNL     1      13.363   3.452  -0.576  0.00  0.00    +0.007 A 
ATOM     16  C   UNL     1      11.797   5.079   0.283  0.00  0.00    +0.007 A 
ATOM     18  C   UNL     1      12.392   2.987  -1.464  0.00  0.00    +0.046 A 
ATOM     19  C   UNL     1      10.827   4.614  -0.604  0.00  0.00    +0.046 A 
ATOM     21  C   UNL     1      11.125   3.568  -1.478  0.00  0.00    +0.120 A 
BRANCH  21   7
ATOM      7  O   UNL     1      10.177   3.113  -2.342  0.00  0.00    -0.495 OA
ATOM     27  C   UNL     1      10.609   2.783  -3.663  0.00  0.00    +0.277 C 
ENDBRANCH  21   7
ENDBRANCH   9  14
BRANCH  10   8
ATOM      6  O   UNL     1      11.385   7.632   3.070  0.00  0.00    -0.270 OA
ATOM      8  N   UNL     1      13.013   5.990   3.246  0.00  0.00    -0.305 N 
ATOM     17  C   UNL     1      11.901   6.699   3.679  0.00  0.00    +0.244 C 
ATOM     29  H   UNL     1      13.402   5.245   3.813  0.00  0.00    +0.149 HD
BRANCH  17  20
ATOM     20  C   UNL     1      11.337   6.287   4.990  0.00  0.00    +0.037 A 
ATOM     22  C   UNL     1      10.288   5.370   5.042  0.00  0.00    +0.013 A 
ATOM     23  C   UNL     1      11.857   6.820   6.171  0.00  0.00    +0.013 A 
ATOM     24  C   UNL     1       9.758   4.984   6.273  0.00  0.00    +0.013 A 
ATOM     25  C   UNL     1      11.327   6.435   7.402  0.00  0.00    +0.013 A 
ATOM     26  C   UNL     1      10.278   5.516   7.454  0.00  0.00    +0.055 A 
BRANCH  26  28
ATOM      1  F   UNL     1       9.355   3.787   8.823  0.00  0.00    -0.166 F 
ATOM      2  F   UNL     1       8.582   5.792   9.118  0.00  0.00    -0.166 F 
ATOM      3  F   UNL     1      10.586   5.289   9.800  0.00  0.00    -0.166 F 
ATOM     28  C   UNL     1       9.710   5.104   8.770  0.00  0.00    +0.417 C 
ENDBRANCH  26  28
ENDBRANCH  17  20
ENDBRANCH  10   8
BRANCH  11   4
ATOM      4  O   UNL     1      14.816   8.402   2.489  0.00  0.00    -0.387 OA
ATOM     30  H   UNL     1      14.119   8.482   3.162  0.00  0.00    +0.210 HD
ENDBRANCH  11   4
BRANCH  13   5
ATOM      5  O   UNL     1      15.229   7.614  -0.108  0.00  0.00    -0.389 OA
ATOM     31  H   UNL     1      15.728   8.449  -0.110  0.00  0.00    +0.210 HD
ENDBRANCH  13   5
TORSDOF 7
ENDMDL
MODEL 6
REMARK VINA RESULT:      -6.4     15.073     18.312
REMARK  Name = 71693889
REMARK  8 active torsions:
REMARK  status: ('A' for Active; 'I' for Inactive)
REMARK    1  A    between atoms: O_4  and  C_11
REMARK    2  A    between atoms: O_5  and  C_13
REMARK    3  A    between atoms: O_7  and  C_21
REMARK    4  A    between atoms: O_7  and  C_27
REMARK    5  A    between atoms: N_8  and  C_10
REMARK    6  A    between atoms: C_9  and  C_14
REMARK    7  A    between atoms: C_17  and  C_20
REMARK    8  A    between atoms: C_26  and  C_28
REMARK                            x       y       z     vdW  Elec       q    Type
REMARK                         _______ _______ _______ _____ _____    ______ ____
ROOT
ATOM      9  C   UNL     1      12.036   4.287   0.394  0.00  0.00    +0.044 C 
ATOM     10  C   UNL     1      12.907   4.995   1.457  0.00  0.00    +0.112 C 
ATOM     11  C   UNL     1      14.218   4.212   1.422  0.00  0.00    +0.164 C 
ATOM     12  C   UNL     1      13.030   3.583  -0.565  0.00  0.00    +0.044 C 
ATOM     13  C   UNL     1      14.426   3.953  -0.065  0.00  0.00    +0.145 C 
ENDROOT
BRANCH   9  14
ATOM     14  C   UNL     1      11.063   5.222  -0.293  0.00  0.00    -0.042 A 
ATOM     15  C   UNL     1      11.232   6.604  -0.190  0.00  0.00    +0.007 A 
ATOM     16  C   UNL     1       9.998   4.703  -1.028  0.00  0.00    +0.007 A 
ATOM     18  C   UNL     1      10.335   7.464  -0.823  0.00  0.00    +0.046 A 
ATOM     19  C   UNL     1       9.101   5.564  -1.661  0.00  0.00    +0.046 A 
ATOM     21  C   UNL     1       9.270   6.945  -1.558  0.00  0.00    +0.120 A 
BRANCH  21   7
ATOM      7  O   UNL     1       8.396   7.785  -2.177  0.00  0.00    -0.495 OA
ATOM     27  C   UNL     1       7.383   7.187  -2.986  0.00  0.00    +0.277 C 
ENDBRANCH  21   7
ENDBRANCH   9  14
BRANCH  10   8
ATOM      6  O   UNL     1      12.048   7.258   3.003  0.00  0.00    -0.270 OA
ATOM      8  N   UNL     1      12.296   4.965   2.762  0.00  0.00    -0.305 N 
ATOM     17  C   UNL     1      11.913   6.117   3.435  0.00  0.00    +0.244 C 
ATOM     29  H   UNL     1      12.177   4.053   3.191  0.00  0.00    +0.149 HD
BRANCH  17  20
ATOM     20  C   UNL     1      11.322   5.917   4.784  0.00  0.00    +0.037 A 
ATOM     22  C   UNL     1      10.288   4.998   4.964  0.00  0.00    +0.013 A 
ATOM     23  C   UNL     1      11.802   6.649   5.871  0.00  0.00    +0.013 A 
ATOM     24  C   UNL     1       9.734   4.811   6.230  0.00  0.00    +0.013 A 
ATOM     25  C   UNL     1      11.248   6.462   7.137  0.00  0.00    +0.013 A 
ATOM     26  C   UNL     1      10.214   5.543   7.317  0.00  0.00    +0.055 A 
BRANCH  26  28
ATOM      1  F   UNL     1       9.043   4.118   8.838  0.00  0.00    -0.166 F 
ATOM      2  F   UNL     1       8.639   6.243   8.976  0.00  0.00    -0.166 F 
ATOM      3  F   UNL     1      10.543   5.453   9.669  0.00  0.00    -0.166 F 
ATOM     28  C   UNL     1       9.620   5.343   8.671  0.00  0.00    +0.417 C 
ENDBRANCH  26  28
ENDBRANCH  17  20
ENDBRANCH  10   8
BRANCH  11   4
ATOM      4  O   UNL     1      15.297   4.949   1.967  0.00  0.00    -0.387 OA
ATOM     30  H   UNL     1      15.039   5.886   1.968  0.00  0.00    +0.210 HD
ENDBRANCH  11   4
BRANCH  13   5
ATOM      5  O   UNL     1      14.852   5.136  -0.736  0.00  0.00    -0.389 OA
ATOM     31  H   UNL     1      15.684   5.422  -0.323  0.00  0.00    +0.210 HD
ENDBRANCH  13   5
TORSDOF 7
ENDMDL
MODEL 7
REMARK VINA RESULT:      -6.4     27.451     29.521
REMARK  Name = 71693889
REMARK  8 active torsions:
REMARK  status: ('A' for Active; 'I' for Inactive)
REMARK    1  A    between atoms: O_4  and  C_11
REMARK    2  A    between atoms: O_5  and  C_13
REMARK    3  A    between atoms: O_7  and  C_21
REMARK    4  A    between atoms: O_7  and  C_27
REMARK    5  A    between atoms: N_8  and  C_10
REMARK    6  A    between atoms: C_9  and  C_14
REMARK    7  A    between atoms: C_17  and  C_20
REMARK    8  A    between atoms: C_26  and  C_28
REMARK                            x       y       z     vdW  Elec       q    Type
REMARK                         _______ _______ _______ _____ _____    ______ ____
ROOT
ATOM      9  C   UNL     1     -10.010  -9.950  18.937  0.00  0.00    +0.044 C 
ATOM     10  C   UNL     1      -9.579 -11.306  18.332  0.00  0.00    +0.112 C 
ATOM     11  C   UNL     1      -9.654 -12.265  19.518  0.00  0.00    +0.164 C 
ATOM     12  C   UNL     1     -10.845 -10.297  20.197  0.00  0.00    +0.044 C 
ATOM     13  C   UNL     1     -10.920 -11.822  20.242  0.00  0.00    +0.145 C 
ENDROOT
BRANCH   9  14
ATOM     14  C   UNL     1     -10.721  -9.056  17.944  0.00  0.00    -0.042 A 
ATOM     15  C   UNL     1     -10.039  -7.996  17.346  0.00  0.00    +0.007 A 
ATOM     16  C   UNL     1     -12.058  -9.292  17.625  0.00  0.00    +0.007 A 
ATOM     18  C   UNL     1     -10.695  -7.173  16.430  0.00  0.00    +0.046 A 
ATOM     19  C   UNL     1     -12.714  -8.469  16.710  0.00  0.00    +0.046 A 
ATOM     21  C   UNL     1     -12.032  -7.409  16.113  0.00  0.00    +0.120 A 
BRANCH  21   7
ATOM      7  O   UNL     1     -12.671  -6.606  15.218  0.00  0.00    -0.495 OA
ATOM     27  C   UNL     1     -11.875  -5.642  14.528  0.00  0.00    +0.277 C 
ENDBRANCH  21   7
ENDBRANCH   9  14
BRANCH  10   8
ATOM      6  O   UNL     1      -7.148 -10.675  19.724  0.00  0.00    -0.270 OA
ATOM      8  N   UNL     1      -8.254 -11.248  17.768  0.00  0.00    -0.305 N 
ATOM     17  C   UNL     1      -7.134 -10.933  18.524  0.00  0.00    +0.244 C 
ATOM     29  H   UNL     1      -8.171 -11.426  16.773  0.00  0.00    +0.149 HD
BRANCH  17  20
ATOM     20  C   UNL     1      -5.844 -10.889  17.788  0.00  0.00    +0.037 A 
ATOM     22  C   UNL     1      -4.683 -11.383  18.383  0.00  0.00    +0.013 A 
ATOM     23  C   UNL     1      -5.793 -10.351  16.501  0.00  0.00    +0.013 A 
ATOM     24  C   UNL     1      -3.472 -11.341  17.693  0.00  0.00    +0.013 A 
ATOM     25  C   UNL     1      -4.582 -10.309  15.811  0.00  0.00    +0.013 A 
ATOM     26  C   UNL     1      -3.421 -10.804  16.406  0.00  0.00    +0.055 A 
BRANCH  26  28
ATOM      1  F   UNL     1      -1.719 -11.976  15.204  0.00  0.00    -0.166 F 
ATOM      2  F   UNL     1      -1.084 -10.298  16.421  0.00  0.00    -0.166 F 
ATOM      3  F   UNL     1      -2.174  -9.946  14.573  0.00  0.00    -0.166 F 
ATOM     28  C   UNL     1      -2.126 -10.759  15.668  0.00  0.00    +0.417 C 
ENDBRANCH  26  28
ENDBRANCH  17  20
ENDBRANCH  10   8
BRANCH  11   4
ATOM      4  O   UNL     1      -9.747 -13.617  19.109  0.00  0.00    -0.387 OA
ATOM     30  H   UNL     1      -8.967 -14.081  19.456  0.00  0.00    +0.210 HD
ENDBRANCH  11   4
BRANCH  13   5
ATOM      5  O   UNL     1     -12.085 -12.242  19.538  0.00  0.00    -0.389 OA
ATOM     31  H   UNL     1     -12.129 -13.212  19.598  0.00  0.00    +0.210 HD
ENDBRANCH  13   5
TORSDOF 7
ENDMDL
MODEL 8
REMARK VINA RESULT:      -6.3     14.616     17.902
REMARK  Name = 71693889
REMARK  8 active torsions:
REMARK  status: ('A' for Active; 'I' for Inactive)
REMARK    1  A    between atoms: O_4  and  C_11
REMARK    2  A    between atoms: O_5  and  C_13
REMARK    3  A    between atoms: O_7  and  C_21
REMARK    4  A    between atoms: O_7  and  C_27
REMARK    5  A    between atoms: N_8  and  C_10
REMARK    6  A    between atoms: C_9  and  C_14
REMARK    7  A    between atoms: C_17  and  C_20
REMARK    8  A    between atoms: C_26  and  C_28
REMARK                            x       y       z     vdW  Elec       q    Type
REMARK                         _______ _______ _______ _____ _____    ______ ____
ROOT
ATOM      9  C   UNL     1      11.381   4.711   0.490  0.00  0.00    +0.044 C 
ATOM     10  C   UNL     1      12.466   4.615   1.587  0.00  0.00    +0.112 C 
ATOM     11  C   UNL     1      13.138   3.272   1.306  0.00  0.00    +0.164 C 
ATOM     12  C   UNL     1      11.858   3.783  -0.657  0.00  0.00    +0.044 C 
ATOM     13  C   UNL     1      13.214   3.236  -0.216  0.00  0.00    +0.145 C 
ENDROOT
BRANCH   9  14
ATOM     14  C   UNL     1      11.095   6.134   0.062  0.00  0.00    -0.042 A 
ATOM     15  C   UNL     1      12.135   6.952  -0.384  0.00  0.00    +0.007 A 
ATOM     16  C   UNL     1       9.793   6.631   0.115  0.00  0.00    +0.007 A 
ATOM     18  C   UNL     1      11.871   8.264  -0.778  0.00  0.00    +0.046 A 
ATOM     19  C   UNL     1       9.529   7.943  -0.279  0.00  0.00    +0.046 A 
ATOM     21  C   UNL     1      10.568   8.759  -0.725  0.00  0.00    +0.120 A 
BRANCH  21   7
ATOM      7  O   UNL     1      10.311  10.038  -1.111  0.00  0.00    -0.495 OA
ATOM     27  C   UNL     1      10.568  11.068  -0.156  0.00  0.00    +0.277 C 
ENDBRANCH  21   7
ENDBRANCH   9  14
BRANCH  10   8
ATOM      6  O   UNL     1      12.088   6.960   3.202  0.00  0.00    -0.270 OA
ATOM      8  N   UNL     1      11.899   4.666   2.911  0.00  0.00    -0.305 N 
ATOM     17  C   UNL     1      11.756   5.853   3.618  0.00  0.00    +0.244 C 
ATOM     29  H   UNL     1      11.626   3.783   3.328  0.00  0.00    +0.149 HD
BRANCH  17  20
ATOM     20  C   UNL     1      11.180   5.733   4.982  0.00  0.00    +0.037 A 
ATOM     22  C   UNL     1      11.646   6.550   6.011  0.00  0.00    +0.013 A 
ATOM     23  C   UNL     1      10.172   4.801   5.233  0.00  0.00    +0.013 A 
ATOM     24  C   UNL     1      11.106   6.438   7.292  0.00  0.00    +0.013 A 
ATOM     25  C   UNL     1       9.631   4.688   6.514  0.00  0.00    +0.013 A 
ATOM     26  C   UNL     1      10.098   5.506   7.543  0.00  0.00    +0.055 A 
BRANCH  26  28
ATOM      1  F   UNL     1       8.569   6.325   9.190  0.00  0.00    -0.166 F 
ATOM      2  F   UNL     1      10.446   5.512   9.910  0.00  0.00    -0.166 F 
ATOM      3  F   UNL     1       8.917   4.180   9.124  0.00  0.00    -0.166 F 
ATOM     28  C   UNL     1       9.520   5.385   8.913  0.00  0.00    +0.417 C 
ENDBRANCH  26  28
ENDBRANCH  17  20
ENDBRANCH  10   8
BRANCH  11   4
ATOM      4  O   UNL     1      14.428   3.188   1.883  0.00  0.00    -0.387 OA
ATOM     30  H   UNL     1      14.394   2.507   2.575  0.00  0.00    +0.210 HD
ENDBRANCH  11   4
BRANCH  13   5
ATOM      5  O   UNL     1      14.235   4.105  -0.698  0.00  0.00    -0.389 OA
ATOM     31  H   UNL     1      14.987   4.041  -0.085  0.00  0.00    +0.210 HD
ENDBRANCH  13   5
TORSDOF 7
ENDMDL
MODEL 9
REMARK VINA RESULT:      -6.3      2.097      4.529
REMARK  Name = 71693889
REMARK  8 active torsions:
REMARK  status: ('A' for Active; 'I' for Inactive)
REMARK    1  A    between atoms: O_4  and  C_11
REMARK    2  A    between atoms: O_5  and  C_13
REMARK    3  A    between atoms: O_7  and  C_21
REMARK    4  A    between atoms: O_7  and  C_27
REMARK    5  A    between atoms: N_8  and  C_10
REMARK    6  A    between atoms: C_9  and  C_14
REMARK    7  A    between atoms: C_17  and  C_20
REMARK    8  A    between atoms: C_26  and  C_28
REMARK                            x       y       z     vdW  Elec       q    Type
REMARK                         _______ _______ _______ _____ _____    ______ ____
ROOT
ATOM      9  C   UNL     1      13.933   9.517  18.879  0.00  0.00    +0.044 C 
ATOM     10  C   UNL     1      15.037  10.149  19.757  0.00  0.00    +0.112 C 
ATOM     11  C   UNL     1      15.364  11.454  19.032  0.00  0.00    +0.164 C 
ATOM     12  C   UNL     1      13.290  10.693  18.098  0.00  0.00    +0.044 C 
ATOM     13  C   UNL     1      13.995  11.955  18.589  0.00  0.00    +0.145 C 
ENDROOT
BRANCH   9  14
ATOM     14  C   UNL     1      12.949   8.685  19.674  0.00  0.00    -0.042 A 
ATOM     15  C   UNL     1      13.162   7.314  19.832  0.00  0.00    +0.007 A 
ATOM     16  C   UNL     1      11.830   9.286  20.248  0.00  0.00    +0.007 A 
ATOM     18  C   UNL     1      12.255   6.548  20.564  0.00  0.00    +0.046 A 
ATOM     19  C   UNL     1      10.923   8.520  20.980  0.00  0.00    +0.046 A 
ATOM     21  C   UNL     1      11.136   7.150  21.138  0.00  0.00    +0.120 A 
BRANCH  21   7
ATOM      7  O   UNL     1      10.253   6.402  21.853  0.00  0.00    -0.495 OA
ATOM     27  C   UNL     1      10.473   4.992  21.885  0.00  0.00    +0.277 C 
ENDBRANCH  21   7
ENDBRANCH   9  14
BRANCH  10   8
ATOM      6  O   UNL     1      15.698   8.447  21.974  0.00  0.00    -0.270 OA
ATOM      8  N   UNL     1      16.191   9.293  19.871  0.00  0.00    -0.305 N 
ATOM     17  C   UNL     1      16.427   8.503  20.987  0.00  0.00    +0.244 C 
ATOM     29  H   UNL     1      16.851   9.308  19.101  0.00  0.00    +0.149 HD
BRANCH  17  20
ATOM     20  C   UNL     1      17.676   7.697  20.962  0.00  0.00    +0.037 A 
ATOM     22  C   UNL     1      18.775   8.091  21.725  0.00  0.00    +0.013 A 
ATOM     23  C   UNL     1      17.748   6.548  20.175  0.00  0.00    +0.013 A 
ATOM     24  C   UNL     1      19.947   7.335  21.701  0.00  0.00    +0.013 A 
ATOM     25  C   UNL     1      18.920   5.792  20.150  0.00  0.00    +0.013 A 
ATOM     26  C   UNL     1      20.020   6.185  20.914  0.00  0.00    +0.055 A 
BRANCH  26  28
ATOM      1  F   UNL     1      22.223   5.869  20.038  0.00  0.00    -0.166 F 
ATOM      2  F   UNL     1      21.082   4.083  20.497  0.00  0.00    -0.166 F 
ATOM      3  F   UNL     1      21.877   5.307  22.109  0.00  0.00    -0.166 F 
ATOM     28  C   UNL     1      21.274   5.378  20.888  0.00  0.00    +0.417 C 
ENDBRANCH  26  28
ENDBRANCH  17  20
ENDBRANCH  10   8
BRANCH  11   4
ATOM      4  O   UNL     1      16.002  12.392  19.879  0.00  0.00    -0.387 OA
ATOM     30  H   UNL     1      16.824  11.985  20.198  0.00  0.00    +0.210 HD
ENDBRANCH  11   4
BRANCH  13   5
ATOM      5  O   UNL     1      13.264  12.487  19.691  0.00  0.00    -0.389 OA
ATOM     31  H   UNL     1      12.669  11.787  20.011  0.00  0.00    +0.210 HD
ENDBRANCH  13   5
TORSDOF 7
ENDMDL
MODEL 10
REMARK VINA RESULT:      -6.3      4.583      6.709
REMARK  Name = 71693889
REMARK  8 active torsions:
REMARK  status: ('A' for Active; 'I' for Inactive)
REMARK    1  A    between atoms: O_4  and  C_11
REMARK    2  A    between atoms: O_5  and  C_13
REMARK    3  A    between atoms: O_7  and  C_21
REMARK    4  A    between atoms: O_7  and  C_27
REMARK    5  A    between atoms: N_8  and  C_10
REMARK    6  A    between atoms: C_9  and  C_14
REMARK    7  A    between atoms: C_17  and  C_20
REMARK    8  A    between atoms: C_26  and  C_28
REMARK                            x       y       z     vdW  Elec       q    Type
REMARK                         _______ _______ _______ _____ _____    ______ ____
ROOT
ATOM      9  C   UNL     1      13.490   8.710  20.891  0.00  0.00    +0.044 C 
ATOM     10  C   UNL     1      12.975   8.681  19.434  0.00  0.00    +0.112 C 
ATOM     11  C   UNL     1      12.887   7.189  19.117  0.00  0.00    +0.164 C 
ATOM     12  C   UNL     1      13.108   7.336  21.501  0.00  0.00    +0.044 C 
ATOM     13  C   UNL     1      12.341   6.593  20.409  0.00  0.00    +0.145 C 
ENDROOT
BRANCH   9  14
ATOM     14  C   UNL     1      12.984   9.902  21.674  0.00  0.00    -0.042 A 
ATOM     15  C   UNL     1      13.812  10.527  22.608  0.00  0.00    +0.007 A 
ATOM     16  C   UNL     1      11.690  10.378  21.464  0.00  0.00    +0.007 A 
ATOM     18  C   UNL     1      13.346  11.625  23.330  0.00  0.00    +0.046 A 
ATOM     19  C   UNL     1      11.223  11.476  22.185  0.00  0.00    +0.046 A 
ATOM     21  C   UNL     1      12.051  12.100  23.119  0.00  0.00    +0.120 A 
BRANCH  21   7
ATOM      7  O   UNL     1      11.597  13.173  23.822  0.00  0.00    -0.495 OA
ATOM     27  C   UNL     1      10.436  12.976  24.629  0.00  0.00    +0.277 C 
ENDBRANCH  21   7
ENDBRANCH   9  14
BRANCH  10   8
ATOM      6  O   UNL     1      12.313   9.744  16.849  0.00  0.00    -0.270 OA
ATOM      8  N   UNL     1      13.863   9.371  18.534  0.00  0.00    -0.305 N 
ATOM     17  C   UNL     1      13.451   9.852  17.298  0.00  0.00    +0.244 C 
ATOM     29  H   UNL     1      14.828   9.475  18.831  0.00  0.00    +0.149 HD
BRANCH  17  20
ATOM     20  C   UNL     1      14.495  10.517  16.477  0.00  0.00    +0.037 A 
ATOM     22  C   UNL     1      14.741  10.082  15.175  0.00  0.00    +0.013 A 
ATOM     23  C   UNL     1      15.231  11.576  17.009  0.00  0.00    +0.013 A 
ATOM     24  C   UNL     1      15.721  10.706  14.403  0.00  0.00    +0.013 A 
ATOM     25  C   UNL     1      16.212  12.200  16.239  0.00  0.00    +0.013 A 
ATOM     26  C   UNL     1      16.457  11.766  14.936  0.00  0.00    +0.055 A 
BRANCH  26  28
ATOM      1  F   UNL     1      17.164  12.568  12.797  0.00  0.00    -0.166 F 
ATOM      2  F   UNL     1      18.699  11.766  14.101  0.00  0.00    -0.166 F 
ATOM      3  F   UNL     1      17.794  13.692  14.547  0.00  0.00    -0.166 F 
ATOM     28  C   UNL     1      17.506  12.432  14.111  0.00  0.00    +0.417 C 
ENDBRANCH  26  28
ENDBRANCH  17  20
ENDBRANCH  10   8
BRANCH  11   4
ATOM      4  O   UNL     1      12.024   6.922  18.027  0.00  0.00    -0.387 OA
ATOM     30  H   UNL     1      11.119   7.125  18.316  0.00  0.00    +0.210 HD
ENDBRANCH  11   4
BRANCH  13   5
ATOM      5  O   UNL     1      10.952   6.874  20.555  0.00  0.00    -0.389 OA
ATOM     31  H   UNL     1      10.482   6.397  19.849  0.00  0.00    +0.210 HD
ENDBRANCH  13   5
TORSDOF 7
ENDMDL
