MODEL 1
REMARK VINA RESULT:      -6.8      0.000      0.000
REMARK  Name = 40777111
REMARK  7 active torsions:
REMARK  status: ('A' for Active; 'I' for Inactive)
REMARK    1  A    between atoms: N_4  and  C_14
REMARK    2  A    between atoms: C_8  and  C_15
REMARK    3  A    between atoms: C_9  and  C_14
REMARK    4  A    between atoms: C_17  and  C_20
REMARK    5  A    between atoms: C_18  and  C_21
REMARK    6  A    between atoms: C_19  and  C_22
REMARK    7  A    between atoms: C_31  and  C_33
REMARK                            x       y       z     vdW  Elec       q    Type
REMARK                         _______ _______ _______ _____ _____    ______ ____
ROOT
ATOM      3  N   UNL     1      15.456   9.867   3.897  0.00  0.00    -0.297 NA
ATOM      7  C   UNL     1      15.939   7.341   4.302  0.00  0.00    +0.002 C 
ATOM      8  C   UNL     1      15.088   7.532   3.016  0.00  0.00    +0.055 C 
ATOM      9  C   UNL     1      15.121   9.505   5.299  0.00  0.00    +0.074 C 
ATOM     10  C   UNL     1      15.203   7.976   5.501  0.00  0.00    +0.024 C 
ATOM     11  C   UNL     1      17.244   8.140   4.096  0.00  0.00    +0.019 C 
ATOM     12  C   UNL     1      14.673   9.030   2.954  0.00  0.00    +0.094 C 
ATOM     13  C   UNL     1      16.895   9.581   3.684  0.00  0.00    +0.085 C 
ENDROOT
BRANCH   8  15
ATOM      5  N   UNL     1      14.092   5.594   1.906  0.00  0.00    -0.237 NA
ATOM      6  N   UNL     1      11.829   4.887   2.340  0.00  0.00    -0.232 NA
ATOM     15  C   UNL     1      13.909   6.597   2.790  0.00  0.00    +0.050 A 
ATOM     16  C   UNL     1      12.732   6.807   3.478  0.00  0.00    +0.052 A 
ATOM     17  C   UNL     1      11.715   5.912   3.210  0.00  0.00    +0.076 A 
ATOM     18  C   UNL     1      13.026   4.788   1.732  0.00  0.00    +0.127 A 
ATOM     21  C   UNL     1      13.189   3.669   0.761  0.00  0.00    +0.088 C 
BRANCH  17  20
ATOM      1 BR   UNL     1      10.027   8.524   2.460  0.00  0.00    -0.050 Br
ATOM     20  C   UNL     1      10.433   6.024   3.864  0.00  0.00    +0.014 A 
ATOM     23  C   UNL     1       9.579   7.104   3.641  0.00  0.00    +0.027 A 
ATOM     24  C   UNL     1      10.057   5.007   4.742  0.00  0.00    +0.011 A 
ATOM     27  C   UNL     1       8.349   7.168   4.295  0.00  0.00    +0.016 A 
ATOM     28  C   UNL     1       8.827   5.071   5.396  0.00  0.00    +0.001 A 
ATOM     32  C   UNL     1       7.973   6.151   5.173  0.00  0.00    +0.001 A 
ENDBRANCH  17  20
ENDBRANCH   8  15
BRANCH   9  14
ATOM     14  C   UNL     1      13.768  10.067   5.739  0.00  0.00    +0.123 C 
BRANCH  14   4
ATOM      2  O   UNL     1      10.923   9.696   5.635  0.00  0.00    -0.270 OA
ATOM      4  N   UNL     1      13.009   9.079   6.442  0.00  0.00    -0.310 N 
ATOM     19  C   UNL     1      11.624   8.969   6.334  0.00  0.00    +0.244 C 
ATOM     34  H   UNL     1      13.520   8.485   7.085  0.00  0.00    +0.149 HD
BRANCH  19  22
ATOM     22  C   UNL     1      10.981   7.908   7.150  0.00  0.00    +0.037 A 
ATOM     25  C   UNL     1       9.706   8.111   7.678  0.00  0.00    +0.013 A 
ATOM     26  C   UNL     1      11.652   6.708   7.389  0.00  0.00    +0.013 A 
ATOM     29  C   UNL     1       9.102   7.114   8.445  0.00  0.00    +0.004 A 
ATOM     30  C   UNL     1      11.048   5.712   8.155  0.00  0.00    +0.004 A 
ATOM     31  C   UNL     1       9.773   5.915   8.684  0.00  0.00    -0.050 A 
ATOM     33  C   UNL     1       9.127   4.850   9.504  0.00  0.00    +0.044 C 
ENDBRANCH  19  22
ENDBRANCH  14   4
ENDBRANCH   9  14
TORSDOF 5
ENDMDL
MODEL 2
REMARK VINA RESULT:      -6.6     23.925     27.053
REMARK  Name = 40777111
REMARK  7 active torsions:
REMARK  status: ('A' for Active; 'I' for Inactive)
REMARK    1  A    between atoms: N_4  and  C_14
REMARK    2  A    between atoms: C_8  and  C_15
REMARK    3  A    between atoms: C_9  and  C_14
REMARK    4  A    between atoms: C_17  and  C_20
REMARK    5  A    between atoms: C_18  and  C_21
REMARK    6  A    between atoms: C_19  and  C_22
REMARK    7  A    between atoms: C_31  and  C_33
REMARK                            x       y       z     vdW  Elec       q    Type
REMARK                         _______ _______ _______ _____ _____    ______ ____
ROOT
ATOM      3  N   UNL     1      -5.620 -10.651   9.615  0.00  0.00    -0.297 NA
ATOM      7  C   UNL     1      -3.778  -9.195  10.740  0.00  0.00    +0.002 C 
ATOM      8  C   UNL     1      -3.487 -10.705  10.960  0.00  0.00    +0.055 C 
ATOM      9  C   UNL     1      -6.248  -9.598  10.456  0.00  0.00    +0.074 C 
ATOM     10  C   UNL     1      -5.180  -8.859  11.291  0.00  0.00    +0.024 C 
ATOM     11  C   UNL     1      -3.825  -8.967   9.214  0.00  0.00    +0.019 C 
ATOM     12  C   UNL     1      -4.722 -11.495  10.442  0.00  0.00    +0.094 C 
ATOM     13  C   UNL     1      -4.799  -9.977   8.582  0.00  0.00    +0.085 C 
ENDROOT
BRANCH   8  15
ATOM      5  N   UNL     1      -2.291 -10.297  13.054  0.00  0.00    -0.237 NA
ATOM      6  N   UNL     1      -2.237 -11.917  14.839  0.00  0.00    -0.232 NA
ATOM     15  C   UNL     1      -3.051 -11.158  12.346  0.00  0.00    +0.050 A 
ATOM     16  C   UNL     1      -3.439 -12.399  12.809  0.00  0.00    +0.052 A 
ATOM     17  C   UNL     1      -2.998 -12.728  14.075  0.00  0.00    +0.076 A 
ATOM     18  C   UNL     1      -1.925 -10.735  14.275  0.00  0.00    +0.127 A 
ATOM     21  C   UNL     1      -1.082  -9.811  15.088  0.00  0.00    +0.088 C 
BRANCH  17  20
ATOM      1 BR   UNL     1      -1.034 -15.143  13.338  0.00  0.00    -0.050 Br
ATOM     20  C   UNL     1      -3.334 -13.998  14.674  0.00  0.00    +0.014 A 
ATOM     23  C   UNL     1      -2.575 -15.146  14.451  0.00  0.00    +0.027 A 
ATOM     24  C   UNL     1      -4.457 -14.054  15.499  0.00  0.00    +0.011 A 
ATOM     27  C   UNL     1      -2.938 -16.351  15.052  0.00  0.00    +0.016 A 
ATOM     28  C   UNL     1      -4.821 -15.258  16.101  0.00  0.00    +0.001 A 
ATOM     32  C   UNL     1      -4.062 -16.407  15.877  0.00  0.00    +0.001 A 
ENDBRANCH  17  20
ENDBRANCH   8  15
BRANCH   9  14
ATOM     14  C   UNL     1      -7.376 -10.148  11.332  0.00  0.00    +0.123 C 
BRANCH  14   4
ATOM      2  O   UNL     1      -7.113 -12.448  13.030  0.00  0.00    -0.270 OA
ATOM      4  N   UNL     1      -6.997 -10.152  12.711  0.00  0.00    -0.310 N 
ATOM     19  C   UNL     1      -6.894 -11.320  13.465  0.00  0.00    +0.244 C 
ATOM     34  H   UNL     1      -6.861  -9.248  13.149  0.00  0.00    +0.149 HD
BRANCH  19  22
ATOM     22  C   UNL     1      -6.515 -11.153  14.891  0.00  0.00    +0.037 A 
ATOM     25  C   UNL     1      -7.215 -11.839  15.883  0.00  0.00    +0.013 A 
ATOM     26  C   UNL     1      -5.458 -10.311  15.238  0.00  0.00    +0.013 A 
ATOM     29  C   UNL     1      -6.860 -11.681  17.223  0.00  0.00    +0.004 A 
ATOM     30  C   UNL     1      -5.102 -10.154  16.578  0.00  0.00    +0.004 A 
ATOM     31  C   UNL     1      -5.803 -10.839  17.570  0.00  0.00    -0.050 A 
ATOM     33  C   UNL     1      -5.423 -10.671  19.003  0.00  0.00    +0.044 C 
ENDBRANCH  19  22
ENDBRANCH  14   4
ENDBRANCH   9  14
TORSDOF 5
ENDMDL
MODEL 3
REMARK VINA RESULT:      -6.3      3.281      6.704
REMARK  Name = 40777111
REMARK  7 active torsions:
REMARK  status: ('A' for Active; 'I' for Inactive)
REMARK    1  A    between atoms: N_4  and  C_14
REMARK    2  A    between atoms: C_8  and  C_15
REMARK    3  A    between atoms: C_9  and  C_14
REMARK    4  A    between atoms: C_17  and  C_20
REMARK    5  A    between atoms: C_18  and  C_21
REMARK    6  A    between atoms: C_19  and  C_22
REMARK    7  A    between atoms: C_31  and  C_33
REMARK                            x       y       z     vdW  Elec       q    Type
REMARK                         _______ _______ _______ _____ _____    ______ ____
ROOT
ATOM      3  N   UNL     1       8.216  10.944   2.611  0.00  0.00    -0.297 NA
ATOM      7  C   UNL     1       7.392  11.624   4.986  0.00  0.00    +0.002 C 
ATOM      8  C   UNL     1       8.940  11.720   4.900  0.00  0.00    +0.055 C 
ATOM      9  C   UNL     1       7.285   9.914   3.139  0.00  0.00    +0.074 C 
ATOM     10  C   UNL     1       6.949  10.191   4.621  0.00  0.00    +0.024 C 
ATOM     11  C   UNL     1       6.826  12.564   3.900  0.00  0.00    +0.019 C 
ATOM     12  C   UNL     1       9.367  11.111   3.534  0.00  0.00    +0.094 C 
ATOM     13  C   UNL     1       7.483  12.231   2.549  0.00  0.00    +0.085 C 
ENDROOT
BRANCH   8  15
ATOM      5  N   UNL     1       9.323  11.461   7.302  0.00  0.00    -0.237 NA
ATOM      6  N   UNL     1      11.191  10.213   8.177  0.00  0.00    -0.232 NA
ATOM     15  C   UNL     1       9.760  11.171   6.058  0.00  0.00    +0.050 A 
ATOM     16  C   UNL     1      10.887  10.419   5.797  0.00  0.00    +0.052 A 
ATOM     17  C   UNL     1      11.570   9.962   6.907  0.00  0.00    +0.076 A 
ATOM     18  C   UNL     1      10.075  10.958   8.300  0.00  0.00    +0.127 A 
ATOM     21  C   UNL     1       9.626  11.259   9.689  0.00  0.00    +0.088 C 
BRANCH  17  20
ATOM      1 BR   UNL     1      14.243  11.613   6.304  0.00  0.00    -0.050 Br
ATOM     20  C   UNL     1      12.766   9.165   6.770  0.00  0.00    +0.014 A 
ATOM     23  C   UNL     1      14.011   9.737   6.507  0.00  0.00    +0.027 A 
ATOM     24  C   UNL     1      12.649   7.782   6.909  0.00  0.00    +0.011 A 
ATOM     27  C   UNL     1      15.139   8.927   6.383  0.00  0.00    +0.016 A 
ATOM     28  C   UNL     1      13.777   6.972   6.786  0.00  0.00    +0.001 A 
ATOM     32  C   UNL     1      15.022   7.544   6.522  0.00  0.00    +0.001 A 
ENDBRANCH  17  20
ENDBRANCH   8  15
BRANCH   9  14
ATOM     14  C   UNL     1       7.810   8.492   2.931  0.00  0.00    +0.123 C 
BRANCH  14   4
ATOM      2  O   UNL     1      10.327   7.596   3.983  0.00  0.00    -0.270 OA
ATOM      4  N   UNL     1       8.028   7.839   4.185  0.00  0.00    -0.310 N 
ATOM     19  C   UNL     1       9.289   7.435   4.620  0.00  0.00    +0.244 C 
ATOM     34  H   UNL     1       7.204   7.619   4.733  0.00  0.00    +0.149 HD
BRANCH  19  22
ATOM     22  C   UNL     1       9.344   6.745   5.934  0.00  0.00    +0.037 A 
ATOM     25  C   UNL     1       9.830   5.441   6.017  0.00  0.00    +0.013 A 
ATOM     26  C   UNL     1       8.910   7.402   7.085  0.00  0.00    +0.013 A 
ATOM     29  C   UNL     1       9.881   4.793   7.251  0.00  0.00    +0.004 A 
ATOM     30  C   UNL     1       8.962   6.755   8.319  0.00  0.00    +0.004 A 
ATOM     31  C   UNL     1       9.447   5.450   8.402  0.00  0.00    -0.050 A 
ATOM     33  C   UNL     1       9.501   4.757   9.722  0.00  0.00    +0.044 C 
ENDBRANCH  19  22
ENDBRANCH  14   4
ENDBRANCH   9  14
TORSDOF 5
ENDMDL
MODEL 4
REMARK VINA RESULT:      -6.2     24.227     28.267
REMARK  Name = 40777111
REMARK  7 active torsions:
REMARK  status: ('A' for Active; 'I' for Inactive)
REMARK    1  A    between atoms: N_4  and  C_14
REMARK    2  A    between atoms: C_8  and  C_15
REMARK    3  A    between atoms: C_9  and  C_14
REMARK    4  A    between atoms: C_17  and  C_20
REMARK    5  A    between atoms: C_18  and  C_21
REMARK    6  A    between atoms: C_19  and  C_22
REMARK    7  A    between atoms: C_31  and  C_33
REMARK                            x       y       z     vdW  Elec       q    Type
REMARK                         _______ _______ _______ _____ _____    ______ ____
ROOT
ATOM      3  N   UNL     1      -4.588 -11.742  18.697  0.00  0.00    -0.297 NA
ATOM      7  C   UNL     1      -6.877 -11.508  17.477  0.00  0.00    +0.002 C 
ATOM      8  C   UNL     1      -6.408 -12.989  17.475  0.00  0.00    +0.055 C 
ATOM      9  C   UNL     1      -4.519 -10.647  17.694  0.00  0.00    +0.074 C 
ATOM     10  C   UNL     1      -5.792 -10.628  16.820  0.00  0.00    +0.024 C 
ATOM     11  C   UNL     1      -6.977 -11.075  18.956  0.00  0.00    +0.019 C 
ATOM     12  C   UNL     1      -4.957 -13.017  18.033  0.00  0.00    +0.094 C 
ATOM     13  C   UNL     1      -5.653 -11.401  19.670  0.00  0.00    +0.085 C 
ENDROOT
BRANCH   8  15
ATOM      5  N   UNL     1      -7.409 -14.820  16.198  0.00  0.00    -0.237 NA
ATOM      6  N   UNL     1      -6.832 -15.246  13.897  0.00  0.00    -0.232 NA
ATOM     15  C   UNL     1      -6.545 -13.783  16.184  0.00  0.00    +0.050 A 
ATOM     16  C   UNL     1      -5.800 -13.422  15.081  0.00  0.00    +0.052 A 
ATOM     17  C   UNL     1      -5.986 -14.197  13.954  0.00  0.00    +0.076 A 
ATOM     18  C   UNL     1      -7.501 -15.498  15.038  0.00  0.00    +0.127 A 
ATOM     21  C   UNL     1      -8.444 -16.653  15.015  0.00  0.00    +0.088 C 
BRANCH  17  20
ATOM      1 BR   UNL     1      -2.862 -14.881  14.036  0.00  0.00    -0.050 Br
ATOM     20  C   UNL     1      -5.265 -13.923  12.733  0.00  0.00    +0.014 A 
ATOM     23  C   UNL     1      -3.897 -14.168  12.610  0.00  0.00    +0.027 A 
ATOM     24  C   UNL     1      -5.979 -13.398  11.656  0.00  0.00    +0.011 A 
ATOM     27  C   UNL     1      -3.243 -13.888  11.411  0.00  0.00    +0.016 A 
ATOM     28  C   UNL     1      -5.325 -13.119  10.456  0.00  0.00    +0.001 A 
ATOM     32  C   UNL     1      -3.957 -13.363  10.334  0.00  0.00    +0.001 A 
ENDBRANCH  17  20
ENDBRANCH   8  15
BRANCH   9  14
ATOM     14  C   UNL     1      -3.247 -10.711  16.847  0.00  0.00    +0.123 C 
BRANCH  14   4
ATOM      2  O   UNL     1      -1.756 -11.587  14.555  0.00  0.00    -0.270 OA
ATOM      4  N   UNL     1      -3.529 -10.408  15.478  0.00  0.00    -0.310 N 
ATOM     19  C   UNL     1      -2.749 -10.877  14.422  0.00  0.00    +0.244 C 
ATOM     34  H   UNL     1      -4.300  -9.774  15.301  0.00  0.00    +0.149 HD
BRANCH  19  22
ATOM     22  C   UNL     1      -3.159 -10.451  13.059  0.00  0.00    +0.037 A 
ATOM     25  C   UNL     1      -2.199 -10.297  12.059  0.00  0.00    +0.013 A 
ATOM     26  C   UNL     1      -4.503 -10.204  12.780  0.00  0.00    +0.013 A 
ATOM     29  C   UNL     1      -2.584  -9.896  10.779  0.00  0.00    +0.004 A 
ATOM     30  C   UNL     1      -4.888  -9.803  11.501  0.00  0.00    +0.004 A 
ATOM     31  C   UNL     1      -3.928  -9.649  10.500  0.00  0.00    -0.050 A 
ATOM     33  C   UNL     1      -4.339  -9.220   9.132  0.00  0.00    +0.044 C 
ENDBRANCH  19  22
ENDBRANCH  14   4
ENDBRANCH   9  14
TORSDOF 5
ENDMDL
MODEL 5
REMARK VINA RESULT:      -6.2     24.480     27.770
REMARK  Name = 40777111
REMARK  7 active torsions:
REMARK  status: ('A' for Active; 'I' for Inactive)
REMARK    1  A    between atoms: N_4  and  C_14
REMARK    2  A    between atoms: C_8  and  C_15
REMARK    3  A    between atoms: C_9  and  C_14
REMARK    4  A    between atoms: C_17  and  C_20
REMARK    5  A    between atoms: C_18  and  C_21
REMARK    6  A    between atoms: C_19  and  C_22
REMARK    7  A    between atoms: C_31  and  C_33
REMARK                            x       y       z     vdW  Elec       q    Type
REMARK                         _______ _______ _______ _____ _____    ______ ____
ROOT
ATOM      3  N   UNL     1      -4.841 -11.822  10.263  0.00  0.00    -0.297 NA
ATOM      7  C   UNL     1      -4.291  -9.533  11.375  0.00  0.00    +0.002 C 
ATOM      8  C   UNL     1      -3.404 -10.657  11.979  0.00  0.00    +0.055 C 
ATOM      9  C   UNL     1      -6.095 -11.161  10.709  0.00  0.00    +0.074 C 
ATOM     10  C   UNL     1      -5.778  -9.906  11.552  0.00  0.00    +0.024 C 
ATOM     11  C   UNL     1      -4.007  -9.507   9.858  0.00  0.00    +0.019 C 
ATOM     12  C   UNL     1      -3.926 -12.010  11.418  0.00  0.00    +0.094 C 
ATOM     13  C   UNL     1      -4.176 -10.926   9.287  0.00  0.00    +0.085 C 
ENDROOT
BRANCH   8  15
ATOM      5  N   UNL     1      -1.997 -10.356  13.956  0.00  0.00    -0.237 NA
ATOM      6  N   UNL     1      -2.822 -10.738  16.189  0.00  0.00    -0.232 NA
ATOM     15  C   UNL     1      -3.217 -10.692  13.489  0.00  0.00    +0.050 A 
ATOM     16  C   UNL     1      -4.275 -11.057  14.296  0.00  0.00    +0.052 A 
ATOM     17  C   UNL     1      -4.016 -11.062  15.652  0.00  0.00    +0.076 A 
ATOM     18  C   UNL     1      -1.871 -10.400  15.297  0.00  0.00    +0.127 A 
ATOM     21  C   UNL     1      -0.535 -10.038  15.852  0.00  0.00    +0.088 C 
BRANCH  17  20
ATOM      1 BR   UNL     1      -4.739 -14.176  15.749  0.00  0.00    -0.050 Br
ATOM     20  C   UNL     1      -5.039 -11.426  16.605  0.00  0.00    +0.014 A 
ATOM     23  C   UNL     1      -5.464 -12.744  16.767  0.00  0.00    +0.027 A 
ATOM     24  C   UNL     1      -5.604 -10.411  17.376  0.00  0.00    +0.011 A 
ATOM     27  C   UNL     1      -6.455 -13.048  17.700  0.00  0.00    +0.016 A 
ATOM     28  C   UNL     1      -6.594 -10.714  18.310  0.00  0.00    +0.001 A 
ATOM     32  C   UNL     1      -7.020 -12.033  18.471  0.00  0.00    +0.001 A 
ENDBRANCH  17  20
ENDBRANCH   8  15
BRANCH   9  14
ATOM     14  C   UNL     1      -7.031 -12.121  11.446  0.00  0.00    +0.123 C 
BRANCH  14   4
ATOM      2  O   UNL     1      -7.692 -13.331  13.964  0.00  0.00    -0.270 OA
ATOM      4  N   UNL     1      -7.642 -11.478  12.567  0.00  0.00    -0.310 N 
ATOM     19  C   UNL     1      -7.930 -12.144  13.758  0.00  0.00    +0.244 C 
ATOM     34  H   UNL     1      -7.922 -10.512  12.443  0.00  0.00    +0.149 HD
BRANCH  19  22
ATOM     22  C   UNL     1      -8.591 -11.342  14.819  0.00  0.00    +0.037 A 
ATOM     25  C   UNL     1      -9.471 -11.955  15.711  0.00  0.00    +0.013 A 
ATOM     26  C   UNL     1      -8.332  -9.975  14.924  0.00  0.00    +0.013 A 
ATOM     29  C   UNL     1     -10.092 -11.202  16.707  0.00  0.00    +0.004 A 
ATOM     30  C   UNL     1      -8.952  -9.222  15.921  0.00  0.00    +0.004 A 
ATOM     31  C   UNL     1      -9.833  -9.835  16.812  0.00  0.00    -0.050 A 
ATOM     33  C   UNL     1     -10.497  -9.030  17.877  0.00  0.00    +0.044 C 
ENDBRANCH  19  22
ENDBRANCH  14   4
ENDBRANCH   9  14
TORSDOF 5
ENDMDL
MODEL 6
REMARK VINA RESULT:      -6.2      2.174      6.107
REMARK  Name = 40777111
REMARK  7 active torsions:
REMARK  status: ('A' for Active; 'I' for Inactive)
REMARK    1  A    between atoms: N_4  and  C_14
REMARK    2  A    between atoms: C_8  and  C_15
REMARK    3  A    between atoms: C_9  and  C_14
REMARK    4  A    between atoms: C_17  and  C_20
REMARK    5  A    between atoms: C_18  and  C_21
REMARK    6  A    between atoms: C_19  and  C_22
REMARK    7  A    between atoms: C_31  and  C_33
REMARK                            x       y       z     vdW  Elec       q    Type
REMARK                         _______ _______ _______ _____ _____    ______ ____
ROOT
ATOM      3  N   UNL     1      10.618   5.633   7.737  0.00  0.00    -0.297 NA
ATOM      7  C   UNL     1       9.391   7.624   6.592  0.00  0.00    +0.002 C 
ATOM      8  C   UNL     1       9.284   6.344   5.718  0.00  0.00    +0.055 C 
ATOM      9  C   UNL     1      11.507   6.823   7.701  0.00  0.00    +0.074 C 
ATOM     10  C   UNL     1      10.879   7.945   6.846  0.00  0.00    +0.024 C 
ATOM     11  C   UNL     1       8.762   7.283   7.961  0.00  0.00    +0.019 C 
ATOM     12  C   UNL     1      10.202   5.266   6.360  0.00  0.00    +0.094 C 
ATOM     13  C   UNL     1       9.404   5.995   8.506  0.00  0.00    +0.085 C 
ENDROOT
BRANCH   8  15
ATOM      5  N   UNL     1       8.886   7.501   3.600  0.00  0.00    -0.237 NA
ATOM      6  N   UNL     1       9.879   6.766   1.530  0.00  0.00    -0.232 NA
ATOM     15  C   UNL     1       9.511   6.477   4.219  0.00  0.00    +0.050 A 
ATOM     16  C   UNL     1      10.324   5.570   3.571  0.00  0.00    +0.052 A 
ATOM     17  C   UNL     1      10.473   5.765   2.213  0.00  0.00    +0.076 A 
ATOM     18  C   UNL     1       9.111   7.584   2.274  0.00  0.00    +0.127 A 
ATOM     21  C   UNL     1       8.436   8.701   1.554  0.00  0.00    +0.088 C 
BRANCH  17  20
ATOM      1 BR   UNL     1       9.874   5.807  -0.929  0.00  0.00    -0.050 Br
ATOM     20  C   UNL     1      11.296   4.884   1.419  0.00  0.00    +0.014 A 
ATOM     23  C   UNL     1      11.158   4.789   0.035  0.00  0.00    +0.027 A 
ATOM     24  C   UNL     1      12.254   4.114   2.079  0.00  0.00    +0.011 A 
ATOM     27  C   UNL     1      11.976   3.923  -0.691  0.00  0.00    +0.016 A 
ATOM     28  C   UNL     1      13.073   3.250   1.354  0.00  0.00    +0.001 A 
ATOM     32  C   UNL     1      12.934   3.154  -0.031  0.00  0.00    +0.001 A 
ENDBRANCH  17  20
ENDBRANCH   8  15
BRANCH   9  14
ATOM     14  C   UNL     1      12.924   6.478   7.237  0.00  0.00    +0.123 C 
BRANCH  14   4
ATOM      2  O   UNL     1      14.654   8.246   5.779  0.00  0.00    -0.270 OA
ATOM      4  N   UNL     1      13.036   6.582   5.815  0.00  0.00    -0.310 N 
ATOM     19  C   UNL     1      13.905   7.473   5.187  0.00  0.00    +0.244 C 
ATOM     34  H   UNL     1      12.400   6.015   5.265  0.00  0.00    +0.149 HD
BRANCH  19  22
ATOM     22  C   UNL     1      13.884   7.478   3.701  0.00  0.00    +0.037 A 
ATOM     25  C   UNL     1      12.970   8.283   3.021  0.00  0.00    +0.013 A 
ATOM     26  C   UNL     1      14.776   6.679   2.987  0.00  0.00    +0.013 A 
ATOM     29  C   UNL     1      12.949   8.288   1.626  0.00  0.00    +0.004 A 
ATOM     30  C   UNL     1      14.756   6.684   1.593  0.00  0.00    +0.004 A 
ATOM     31  C   UNL     1      13.842   7.489   0.912  0.00  0.00    -0.050 A 
ATOM     33  C   UNL     1      13.819   7.494  -0.579  0.00  0.00    +0.044 C 
ENDBRANCH  19  22
ENDBRANCH  14   4
ENDBRANCH   9  14
TORSDOF 5
ENDMDL
MODEL 7
REMARK VINA RESULT:      -6.2      2.896      6.274
REMARK  Name = 40777111
REMARK  7 active torsions:
REMARK  status: ('A' for Active; 'I' for Inactive)
REMARK    1  A    between atoms: N_4  and  C_14
REMARK    2  A    between atoms: C_8  and  C_15
REMARK    3  A    between atoms: C_9  and  C_14
REMARK    4  A    between atoms: C_17  and  C_20
REMARK    5  A    between atoms: C_18  and  C_21
REMARK    6  A    between atoms: C_19  and  C_22
REMARK    7  A    between atoms: C_31  and  C_33
REMARK                            x       y       z     vdW  Elec       q    Type
REMARK                         _______ _______ _______ _____ _____    ______ ____
ROOT
ATOM      3  N   UNL     1       9.881   6.933   7.686  0.00  0.00    -0.297 NA
ATOM      7  C   UNL     1       9.816   5.086   5.852  0.00  0.00    +0.002 C 
ATOM      8  C   UNL     1      11.126   5.914   5.744  0.00  0.00    +0.055 C 
ATOM      9  C   UNL     1       8.581   6.978   6.967  0.00  0.00    +0.074 C 
ATOM     10  C   UNL     1       8.603   6.033   5.745  0.00  0.00    +0.024 C 
ATOM     11  C   UNL     1       9.791   4.476   7.271  0.00  0.00    +0.019 C 
ATOM     12  C   UNL     1      11.000   7.112   6.728  0.00  0.00    +0.094 C 
ATOM     13  C   UNL     1      10.011   5.593   8.306  0.00  0.00    +0.085 C 
ENDROOT
BRANCH   8  15
ATOM      5  N   UNL     1      12.250   7.523   4.284  0.00  0.00    -0.237 NA
ATOM      6  N   UNL     1      12.438   7.184   1.905  0.00  0.00    -0.232 NA
ATOM     15  C   UNL     1      11.588   6.350   4.360  0.00  0.00    +0.050 A 
ATOM     16  C   UNL     1      11.316   5.549   3.270  0.00  0.00    +0.052 A 
ATOM     17  C   UNL     1      11.770   6.021   2.055  0.00  0.00    +0.076 A 
ATOM     18  C   UNL     1      12.641   7.874   3.043  0.00  0.00    +0.127 A 
ATOM     21  C   UNL     1      13.374   9.166   2.917  0.00  0.00    +0.088 C 
BRANCH  17  20
ATOM      1 BR   UNL     1      13.915   3.726   1.454  0.00  0.00    -0.050 Br
ATOM     20  C   UNL     1      11.550   5.278   0.837  0.00  0.00    +0.014 A 
ATOM     23  C   UNL     1      12.397   4.246   0.436  0.00  0.00    +0.027 A 
ATOM     24  C   UNL     1      10.448   5.621   0.053  0.00  0.00    +0.011 A 
ATOM     27  C   UNL     1      12.143   3.555  -0.749  0.00  0.00    +0.016 A 
ATOM     28  C   UNL     1      10.194   4.931  -1.132  0.00  0.00    +0.001 A 
ATOM     32  C   UNL     1      11.042   3.899  -1.533  0.00  0.00    +0.001 A 
ENDBRANCH  17  20
ENDBRANCH   8  15
BRANCH   9  14
ATOM     14  C   UNL     1       8.178   8.402   6.578  0.00  0.00    +0.123 C 
BRANCH  14   4
ATOM      2  O   UNL     1       9.792   9.739   4.616  0.00  0.00    -0.270 OA
ATOM      4  N   UNL     1       7.915   8.494   5.176  0.00  0.00    -0.310 N 
ATOM     19  C   UNL     1       8.755   9.167   4.290  0.00  0.00    +0.244 C 
ATOM     34  H   UNL     1       7.042   8.096   4.849  0.00  0.00    +0.149 HD
BRANCH  19  22
ATOM     22  C   UNL     1       8.328   9.195   2.867  0.00  0.00    +0.037 A 
ATOM     25  C   UNL     1       7.037   9.606   2.536  0.00  0.00    +0.013 A 
ATOM     26  C   UNL     1       9.217   8.810   1.864  0.00  0.00    +0.013 A 
ATOM     29  C   UNL     1       6.635   9.632   1.200  0.00  0.00    +0.004 A 
ATOM     30  C   UNL     1       8.815   8.836   0.529  0.00  0.00    +0.004 A 
ATOM     31  C   UNL     1       7.524   9.247   0.197  0.00  0.00    -0.050 A 
ATOM     33  C   UNL     1       7.094   9.274  -1.231  0.00  0.00    +0.044 C 
ENDBRANCH  19  22
ENDBRANCH  14   4
ENDBRANCH   9  14
TORSDOF 5
ENDMDL
MODEL 8
REMARK VINA RESULT:      -5.9     24.581     27.751
REMARK  Name = 40777111
REMARK  7 active torsions:
REMARK  status: ('A' for Active; 'I' for Inactive)
REMARK    1  A    between atoms: N_4  and  C_14
REMARK    2  A    between atoms: C_8  and  C_15
REMARK    3  A    between atoms: C_9  and  C_14
REMARK    4  A    between atoms: C_17  and  C_20
REMARK    5  A    between atoms: C_18  and  C_21
REMARK    6  A    between atoms: C_19  and  C_22
REMARK    7  A    between atoms: C_31  and  C_33
REMARK                            x       y       z     vdW  Elec       q    Type
REMARK                         _______ _______ _______ _____ _____    ______ ____
ROOT
ATOM      3  N   UNL     1      -7.411 -11.313  17.377  0.00  0.00    -0.297 NA
ATOM      7  C   UNL     1      -4.961 -11.558  18.226  0.00  0.00    +0.002 C 
ATOM      8  C   UNL     1      -5.040 -10.500  17.090  0.00  0.00    +0.055 C 
ATOM      9  C   UNL     1      -7.027 -12.748  17.411  0.00  0.00    +0.074 C 
ATOM     10  C   UNL     1      -5.520 -12.902  17.711  0.00  0.00    +0.024 C 
ATOM     11  C   UNL     1      -5.904 -11.077  19.350  0.00  0.00    +0.019 C 
ATOM     12  C   UNL     1      -6.479 -10.557  16.503  0.00  0.00    +0.094 C 
ATOM     13  C   UNL     1      -7.291 -10.778  18.754  0.00  0.00    +0.085 C 
ENDROOT
BRANCH   8  15
ATOM      5  N   UNL     1      -2.692 -10.404  16.413  0.00  0.00    -0.237 NA
ATOM      6  N   UNL     1      -2.014 -10.572  14.106  0.00  0.00    -0.232 NA
ATOM     15  C   UNL     1      -3.972 -10.529  16.006  0.00  0.00    +0.050 A 
ATOM     16  C   UNL     1      -4.347 -10.676  14.687  0.00  0.00    +0.052 A 
ATOM     17  C   UNL     1      -3.315 -10.691  13.771  0.00  0.00    +0.076 A 
ATOM     18  C   UNL     1      -1.777 -10.433  15.424  0.00  0.00    +0.127 A 
ATOM     21  C   UNL     1      -0.350 -10.296  15.834  0.00  0.00    +0.088 C 
BRANCH  17  20
ATOM      1 BR   UNL     1      -3.247 -13.697  12.681  0.00  0.00    -0.050 Br
ATOM     20  C   UNL     1      -3.574 -10.838  12.358  0.00  0.00    +0.014 A 
ATOM     23  C   UNL     1      -3.580 -12.084  11.732  0.00  0.00    +0.027 A 
ATOM     24  C   UNL     1      -3.823  -9.683  11.616  0.00  0.00    +0.011 A 
ATOM     27  C   UNL     1      -3.835 -12.177  10.364  0.00  0.00    +0.016 A 
ATOM     28  C   UNL     1      -4.080  -9.776  10.248  0.00  0.00    +0.001 A 
ATOM     32  C   UNL     1      -4.085 -11.022   9.622  0.00  0.00    +0.001 A 
ENDBRANCH  17  20
ENDBRANCH   8  15
BRANCH   9  14
ATOM     14  C   UNL     1      -7.432 -13.490  16.135  0.00  0.00    +0.123 C 
BRANCH  14   4
ATOM      2  O   UNL     1      -6.758 -14.037  13.399  0.00  0.00    -0.270 OA
ATOM      4  N   UNL     1      -7.544 -12.587  15.032  0.00  0.00    -0.310 N 
ATOM     19  C   UNL     1      -7.192 -12.936  13.729  0.00  0.00    +0.244 C 
ATOM     34  H   UNL     1      -7.837 -11.641  15.246  0.00  0.00    +0.149 HD
BRANCH  19  22
ATOM     22  C   UNL     1      -7.340 -11.876  12.699  0.00  0.00    +0.037 A 
ATOM     25  C   UNL     1      -7.390 -12.218  11.348  0.00  0.00    +0.013 A 
ATOM     26  C   UNL     1      -7.430 -10.538  13.084  0.00  0.00    +0.013 A 
ATOM     29  C   UNL     1      -7.528 -11.222  10.381  0.00  0.00    +0.004 A 
ATOM     30  C   UNL     1      -7.570  -9.542  12.117  0.00  0.00    +0.004 A 
ATOM     31  C   UNL     1      -7.619  -9.885  10.766  0.00  0.00    -0.050 A 
ATOM     33  C   UNL     1      -7.767  -8.820   9.732  0.00  0.00    +0.044 C 
ENDBRANCH  19  22
ENDBRANCH  14   4
ENDBRANCH   9  14
TORSDOF 5
ENDMDL
MODEL 9
REMARK VINA RESULT:      -5.8      1.971      5.168
REMARK  Name = 40777111
REMARK  7 active torsions:
REMARK  status: ('A' for Active; 'I' for Inactive)
REMARK    1  A    between atoms: N_4  and  C_14
REMARK    2  A    between atoms: C_8  and  C_15
REMARK    3  A    between atoms: C_9  and  C_14
REMARK    4  A    between atoms: C_17  and  C_20
REMARK    5  A    between atoms: C_18  and  C_21
REMARK    6  A    between atoms: C_19  and  C_22
REMARK    7  A    between atoms: C_31  and  C_33
REMARK                            x       y       z     vdW  Elec       q    Type
REMARK                         _______ _______ _______ _____ _____    ______ ____
ROOT
ATOM      3  N   UNL     1      13.330   3.514   0.734  0.00  0.00    -0.297 NA
ATOM      7  C   UNL     1      13.550   5.991  -0.042  0.00  0.00    +0.002 C 
ATOM      8  C   UNL     1      14.516   5.703   1.140  0.00  0.00    +0.055 C 
ATOM      9  C   UNL     1      11.984   4.139   0.643  0.00  0.00    +0.074 C 
ATOM     10  C   UNL     1      12.105   5.658   0.387  0.00  0.00    +0.024 C 
ATOM     11  C   UNL     1      13.925   5.008  -1.173  0.00  0.00    +0.019 C 
ATOM     12  C   UNL     1      14.185   4.281   1.675  0.00  0.00    +0.094 C 
ATOM     13  C   UNL     1      13.951   3.576  -0.610  0.00  0.00    +0.085 C 
ENDROOT
BRANCH   8  15
ATOM      5  N   UNL     1      15.720   7.501   2.282  0.00  0.00    -0.237 NA
ATOM      6  N   UNL     1      14.836   8.596   4.239  0.00  0.00    -0.232 NA
ATOM     15  C   UNL     1      14.610   6.733   2.257  0.00  0.00    +0.050 A 
ATOM     16  C   UNL     1      13.586   6.835   3.176  0.00  0.00    +0.052 A 
ATOM     17  C   UNL     1      13.755   7.793   4.154  0.00  0.00    +0.076 A 
ATOM     18  C   UNL     1      15.766   8.399   3.286  0.00  0.00    +0.127 A 
ATOM     21  C   UNL     1      16.978   9.265   3.348  0.00  0.00    +0.088 C 
BRANCH  17  20
ATOM      1 BR   UNL     1      12.113  10.528   3.918  0.00  0.00    -0.050 Br
ATOM     20  C   UNL     1      12.755   8.000   5.176  0.00  0.00    +0.014 A 
ATOM     23  C   UNL     1      11.957   9.143   5.210  0.00  0.00    +0.027 A 
ATOM     24  C   UNL     1      12.601   7.012   6.148  0.00  0.00    +0.011 A 
ATOM     27  C   UNL     1      11.004   9.299   6.216  0.00  0.00    +0.016 A 
ATOM     28  C   UNL     1      11.648   7.167   7.154  0.00  0.00    +0.001 A 
ATOM     32  C   UNL     1      10.850   8.311   7.189  0.00  0.00    +0.001 A 
ENDBRANCH  17  20
ENDBRANCH   8  15
BRANCH   9  14
ATOM     14  C   UNL     1      11.117   3.835   1.866  0.00  0.00    +0.123 C 
BRANCH  14   4
ATOM      2  O   UNL     1      10.567   4.643   4.565  0.00  0.00    -0.270 OA
ATOM      4  N   UNL     1      10.390   4.996   2.278  0.00  0.00    -0.310 N 
ATOM     19  C   UNL     1      10.168   5.314   3.617  0.00  0.00    +0.244 C 
ATOM     34  H   UNL     1       9.979   5.561   1.544  0.00  0.00    +0.149 HD
BRANCH  19  22
ATOM     22  C   UNL     1       9.371   6.540   3.880  0.00  0.00    +0.037 A 
ATOM     25  C   UNL     1       9.416   7.607   2.983  0.00  0.00    +0.013 A 
ATOM     26  C   UNL     1       8.577   6.624   5.024  0.00  0.00    +0.013 A 
ATOM     29  C   UNL     1       8.669   8.758   3.230  0.00  0.00    +0.004 A 
ATOM     30  C   UNL     1       7.829   7.775   5.271  0.00  0.00    +0.004 A 
ATOM     31  C   UNL     1       7.875   8.842   4.374  0.00  0.00    -0.050 A 
ATOM     33  C   UNL     1       7.076  10.073   4.639  0.00  0.00    +0.044 C 
ENDBRANCH  19  22
ENDBRANCH  14   4
ENDBRANCH   9  14
TORSDOF 5
ENDMDL
MODEL 10
REMARK VINA RESULT:      -5.8     23.490     27.082
REMARK  Name = 40777111
REMARK  7 active torsions:
REMARK  status: ('A' for Active; 'I' for Inactive)
REMARK    1  A    between atoms: N_4  and  C_14
REMARK    2  A    between atoms: C_8  and  C_15
REMARK    3  A    between atoms: C_9  and  C_14
REMARK    4  A    between atoms: C_17  and  C_20
REMARK    5  A    between atoms: C_18  and  C_21
REMARK    6  A    between atoms: C_19  and  C_22
REMARK    7  A    between atoms: C_31  and  C_33
REMARK                            x       y       z     vdW  Elec       q    Type
REMARK                         _______ _______ _______ _____ _____    ______ ____
ROOT
ATOM      3  N   UNL     1      18.823  -2.684  31.793  0.00  0.00    -0.297 NA
ATOM      7  C   UNL     1      16.286  -2.341  31.313  0.00  0.00    +0.002 C 
ATOM      8  C   UNL     1      16.602  -3.848  31.519  0.00  0.00    +0.055 C 
ATOM      9  C   UNL     1      18.645  -1.833  30.588  0.00  0.00    +0.074 C 
ATOM     10  C   UNL     1      17.160  -1.789  30.166  0.00  0.00    +0.024 C 
ATOM     11  C   UNL     1      16.721  -1.614  32.604  0.00  0.00    +0.019 C 
ATOM     12  C   UNL     1      18.148  -3.992  31.597  0.00  0.00    +0.094 C 
ATOM     13  C   UNL     1      18.175  -1.995  32.935  0.00  0.00    +0.085 C 
ENDROOT
BRANCH   8  15
ATOM      5  N   UNL     1      14.753  -5.318  30.883  0.00  0.00    -0.237 NA
ATOM      6  N   UNL     1      14.806  -6.653  28.877  0.00  0.00    -0.232 NA
ATOM     15  C   UNL     1      15.977  -4.851  30.559  0.00  0.00    +0.050 A 
ATOM     16  C   UNL     1      16.670  -5.232  29.429  0.00  0.00    +0.052 A 
ATOM     17  C   UNL     1      16.029  -6.146  28.616  0.00  0.00    +0.076 A 
ATOM     18  C   UNL     1      14.234  -6.203  30.009  0.00  0.00    +0.127 A 
ATOM     21  C   UNL     1      12.883  -6.744  30.334  0.00  0.00    +0.088 C 
BRANCH  17  20
ATOM      1 BR   UNL     1      17.473  -8.990  28.859  0.00  0.00    -0.050 Br
ATOM     20  C   UNL     1      16.647  -6.626  27.403  0.00  0.00    +0.014 A 
ATOM     23  C   UNL     1      17.315  -7.849  27.346  0.00  0.00    +0.027 A 
ATOM     24  C   UNL     1      16.560  -5.826  26.264  0.00  0.00    +0.011 A 
ATOM     27  C   UNL     1      17.897  -8.272  26.152  0.00  0.00    +0.016 A 
ATOM     28  C   UNL     1      17.141  -6.249  25.069  0.00  0.00    +0.001 A 
ATOM     32  C   UNL     1      17.810  -7.471  25.013  0.00  0.00    +0.001 A 
ENDBRANCH  17  20
ENDBRANCH   8  15
BRANCH   9  14
ATOM     14  C   UNL     1      19.552  -2.262  29.433  0.00  0.00    +0.123 C 
BRANCH  14   4
ATOM      2  O   UNL     1      20.434  -1.693  26.760  0.00  0.00    -0.270 OA
ATOM      4  N   UNL     1      18.799  -2.438  28.230  0.00  0.00    -0.310 N 
ATOM     19  C   UNL     1      19.307  -2.134  26.967  0.00  0.00    +0.244 C 
ATOM     34  H   UNL     1      17.838  -2.741  28.334  0.00  0.00    +0.149 HD
BRANCH  19  22
ATOM     22  C   UNL     1      18.389  -2.347  25.819  0.00  0.00    +0.037 A 
ATOM     25  C   UNL     1      17.037  -2.027  25.938  0.00  0.00    +0.013 A 
ATOM     26  C   UNL     1      18.880  -2.868  24.621  0.00  0.00    +0.013 A 
ATOM     29  C   UNL     1      16.175  -2.228  24.859  0.00  0.00    +0.004 A 
ATOM     30  C   UNL     1      18.018  -3.069  23.543  0.00  0.00    +0.004 A 
ATOM     31  C   UNL     1      16.666  -2.749  23.662  0.00  0.00    -0.050 A 
ATOM     33  C   UNL     1      15.744  -2.963  22.509  0.00  0.00    +0.044 C 
ENDBRANCH  19  22
ENDBRANCH  14   4
ENDBRANCH   9  14
TORSDOF 5
ENDMDL
