MODEL 1
REMARK VINA RESULT:      -6.4      0.000      0.000
REMARK  Name = 38027563
REMARK  11 active torsions:
REMARK  status: ('A' for Active; 'I' for Inactive)
REMARK    1  A    between atoms: N_4  and  C_11
REMARK    2  A    between atoms: N_5  and  C_23
REMARK    3  A    between atoms: C_6  and  C_10
REMARK    4  A    between atoms: C_7  and  C_11
REMARK    5  A    between atoms: C_9  and  C_17
REMARK    6  A    between atoms: C_10  and  C_19
REMARK    7  A    between atoms: C_10  and  C_20
REMARK    8  A    between atoms: C_12  and  C_21
REMARK    9  A    between atoms: C_13  and  C_18
REMARK   10  A    between atoms: C_17  and  C_22
REMARK   11  A    between atoms: C_23  and  C_24
REMARK                            x       y       z     vdW  Elec       q    Type
REMARK                         _______ _______ _______ _____ _____    ______ ____
ROOT
ATOM      6  C   UNL     1      -5.770 -10.565  15.202  0.00  0.00    +0.000 C 
ATOM      7  C   UNL     1      -6.611 -10.532  16.502  0.00  0.00    +0.032 C 
ATOM      8  C   UNL     1      -4.834 -11.783  15.200  0.00  0.00    +0.012 C 
ATOM      9  C   UNL     1      -3.872 -11.781  16.404  0.00  0.00    +0.023 C 
ATOM     12  C   UNL     1      -4.596 -11.485  17.702  0.00  0.00    -0.073 C 
ATOM     14  C   UNL     1      -5.824 -10.940  17.726  0.00  0.00    -0.022 C 
ATOM     21  C   UNL     1      -3.892 -11.875  18.973  0.00  0.00    +0.039 C 
ENDROOT
BRANCH   6  10
ATOM     10  C   UNL     1      -6.655 -10.590  13.952  0.00  0.00    -0.013 C 
ATOM     19  C   UNL     1      -6.764 -12.009  13.405  0.00  0.00    +0.007 C 
ATOM     20  C   UNL     1      -6.105  -9.642  12.891  0.00  0.00    +0.007 C 
ENDBRANCH   6  10
BRANCH   7  11
ATOM     11  C   UNL     1      -7.225  -9.145  16.728  0.00  0.00    +0.112 C 
BRANCH  11   4
ATOM      2  O   UNL     1      -9.670  -7.632  16.299  0.00  0.00    -0.276 OA
ATOM      4  N   UNL     1      -8.451  -9.246  17.457  0.00  0.00    -0.315 N 
ATOM     18  C   UNL     1      -9.576  -8.477  17.181  0.00  0.00    +0.216 C 
ATOM     30  H   UNL     1      -8.518  -9.947  18.189  0.00  0.00    +0.149 HD
BRANCH  18  13
ATOM     13  C   UNL     1     -10.746  -8.749  18.067  0.00  0.00    +0.075 C 
ATOM     15  C   UNL     1     -10.700  -9.925  18.998  0.00  0.00    +0.013 C 
ATOM     16  C   UNL     1     -11.600  -9.953  17.799  0.00  0.00    +0.013 C 
ENDBRANCH  18  13
ENDBRANCH  11   4
ENDBRANCH   7  11
BRANCH   9  17
ATOM     17  C   UNL     1      -2.715 -10.799  16.185  0.00  0.00    +0.103 C 
BRANCH  17  22
ATOM      3  O   UNL     1      -1.209 -12.063  14.775  0.00  0.00    -0.276 OA
ATOM      5  N   UNL     1      -2.206 -10.134  13.946  0.00  0.00    -0.311 N 
ATOM     22  C   UNL     1      -1.952 -11.096  14.913  0.00  0.00    +0.214 C 
ATOM     31  H   UNL     1      -2.841  -9.370  14.152  0.00  0.00    +0.149 HD
BRANCH   5  23
ATOM     23  C   UNL     1      -1.608 -10.163  12.630  0.00  0.00    +0.139 C 
BRANCH  23  24
ATOM      1  F   UNL     1      -5.408 -11.251   8.620  0.00  0.00    -0.205 F 
ATOM     24  C   UNL     1      -2.621 -10.454  11.560  0.00  0.00    -0.030 A 
ATOM     25  C   UNL     1      -2.929  -9.481  10.609  0.00  0.00    +0.008 A 
ATOM     26  C   UNL     1      -3.253 -11.696  11.518  0.00  0.00    +0.008 A 
ATOM     27  C   UNL     1      -3.870  -9.750   9.615  0.00  0.00    +0.038 A 
ATOM     28  C   UNL     1      -4.195 -11.966  10.524  0.00  0.00    +0.038 A 
ATOM     29  C   UNL     1      -4.503 -10.993   9.573  0.00  0.00    +0.123 A 
ENDBRANCH  23  24
ENDBRANCH   5  23
ENDBRANCH  17  22
ENDBRANCH   9  17
TORSDOF 8
ENDMDL
MODEL 2
REMARK VINA RESULT:      -6.2      3.709      7.649
REMARK  Name = 38027563
REMARK  11 active torsions:
REMARK  status: ('A' for Active; 'I' for Inactive)
REMARK    1  A    between atoms: N_4  and  C_11
REMARK    2  A    between atoms: N_5  and  C_23
REMARK    3  A    between atoms: C_6  and  C_10
REMARK    4  A    between atoms: C_7  and  C_11
REMARK    5  A    between atoms: C_9  and  C_17
REMARK    6  A    between atoms: C_10  and  C_19
REMARK    7  A    between atoms: C_10  and  C_20
REMARK    8  A    between atoms: C_12  and  C_21
REMARK    9  A    between atoms: C_13  and  C_18
REMARK   10  A    between atoms: C_17  and  C_22
REMARK   11  A    between atoms: C_23  and  C_24
REMARK                            x       y       z     vdW  Elec       q    Type
REMARK                         _______ _______ _______ _____ _____    ______ ____
ROOT
ATOM      6  C   UNL     1      -5.070 -10.540  10.872  0.00  0.00    +0.000 C 
ATOM      7  C   UNL     1      -4.556  -9.591   9.762  0.00  0.00    +0.032 C 
ATOM      8  C   UNL     1      -4.486 -10.138  12.235  0.00  0.00    +0.012 C 
ATOM      9  C   UNL     1      -2.945 -10.170  12.241  0.00  0.00    +0.023 C 
ATOM     12  C   UNL     1      -2.363  -9.479  11.024  0.00  0.00    -0.073 C 
ATOM     14  C   UNL     1      -3.101  -9.216   9.932  0.00  0.00    -0.022 C 
ATOM     21  C   UNL     1      -0.923  -9.055  11.111  0.00  0.00    +0.039 C 
ENDROOT
BRANCH   6  10
ATOM     10  C   UNL     1      -6.600 -10.551  10.948  0.00  0.00    -0.013 C 
ATOM     19  C   UNL     1      -7.142  -9.127  10.974  0.00  0.00    +0.007 C 
ATOM     20  C   UNL     1      -7.067 -11.331  12.173  0.00  0.00    +0.007 C 
ENDBRANCH   6  10
BRANCH   7  11
ATOM     11  C   UNL     1      -4.768 -10.200   8.371  0.00  0.00    +0.112 C 
BRANCH  11   4
ATOM      2  O   UNL     1      -7.523 -10.514   7.499  0.00  0.00    -0.276 OA
ATOM      4  N   UNL     1      -5.524  -9.316   7.540  0.00  0.00    -0.315 N 
ATOM     18  C   UNL     1      -6.844  -9.548   7.171  0.00  0.00    +0.216 C 
ATOM     30  H   UNL     1      -5.088  -8.450   7.238  0.00  0.00    +0.149 HD
BRANCH  18  13
ATOM     13  C   UNL     1      -7.440  -8.492   6.300  0.00  0.00    +0.075 C 
ATOM     15  C   UNL     1      -8.616  -8.836   5.435  0.00  0.00    +0.013 C 
ATOM     16  C   UNL     1      -7.273  -8.594   4.812  0.00  0.00    +0.013 C 
ENDBRANCH  18  13
ENDBRANCH  11   4
ENDBRANCH   7  11
BRANCH   9  17
ATOM     17  C   UNL     1      -2.423 -11.607  12.358  0.00  0.00    +0.103 C 
BRANCH  17  22
ATOM      3  O   UNL     1      -2.283 -13.248  14.130  0.00  0.00    -0.276 OA
ATOM      5  N   UNL     1      -2.370 -10.988  14.666  0.00  0.00    -0.311 N 
ATOM     22  C   UNL     1      -2.350 -12.069  13.796  0.00  0.00    +0.214 C 
ATOM     31  H   UNL     1      -2.422 -10.045  14.295  0.00  0.00    +0.149 HD
BRANCH   5  23
ATOM     23  C   UNL     1      -2.314 -11.132  16.103  0.00  0.00    +0.139 C 
BRANCH  23  24
ATOM      1  F   UNL     1      -7.338 -10.292  18.503  0.00  0.00    -0.205 F 
ATOM     24  C   UNL     1      -3.653 -10.907  16.743  0.00  0.00    -0.030 A 
ATOM     25  C   UNL     1      -3.911 -11.413  18.018  0.00  0.00    +0.008 A 
ATOM     26  C   UNL     1      -4.640 -10.194  16.063  0.00  0.00    +0.008 A 
ATOM     27  C   UNL     1      -5.155 -11.204  18.613  0.00  0.00    +0.038 A 
ATOM     28  C   UNL     1      -5.884  -9.985  16.658  0.00  0.00    +0.038 A 
ATOM     29  C   UNL     1      -6.142 -10.491  17.932  0.00  0.00    +0.123 A 
ENDBRANCH  23  24
ENDBRANCH   5  23
ENDBRANCH  17  22
ENDBRANCH   9  17
TORSDOF 8
ENDMDL
MODEL 3
REMARK VINA RESULT:      -6.0     19.560     23.501
REMARK  Name = 38027563
REMARK  11 active torsions:
REMARK  status: ('A' for Active; 'I' for Inactive)
REMARK    1  A    between atoms: N_4  and  C_11
REMARK    2  A    between atoms: N_5  and  C_23
REMARK    3  A    between atoms: C_6  and  C_10
REMARK    4  A    between atoms: C_7  and  C_11
REMARK    5  A    between atoms: C_9  and  C_17
REMARK    6  A    between atoms: C_10  and  C_19
REMARK    7  A    between atoms: C_10  and  C_20
REMARK    8  A    between atoms: C_12  and  C_21
REMARK    9  A    between atoms: C_13  and  C_18
REMARK   10  A    between atoms: C_17  and  C_22
REMARK   11  A    between atoms: C_23  and  C_24
REMARK                            x       y       z     vdW  Elec       q    Type
REMARK                         _______ _______ _______ _____ _____    ______ ____
ROOT
ATOM      6  C   UNL     1     -11.991  10.091  18.645  0.00  0.00    +0.000 C 
ATOM      7  C   UNL     1     -11.795   8.710  17.972  0.00  0.00    +0.032 C 
ATOM      8  C   UNL     1     -11.347  10.104  20.040  0.00  0.00    +0.012 C 
ATOM      9  C   UNL     1     -11.937   9.023  20.965  0.00  0.00    +0.023 C 
ATOM     12  C   UNL     1     -12.026   7.678  20.273  0.00  0.00    -0.073 C 
ATOM     14  C   UNL     1     -11.947   7.556  18.936  0.00  0.00    -0.022 C 
ATOM     21  C   UNL     1     -12.162   6.469  21.157  0.00  0.00    +0.039 C 
ENDROOT
BRANCH   6  10
ATOM     10  C   UNL     1     -11.409  11.225  17.796  0.00  0.00    -0.013 C 
ATOM     19  C   UNL     1     -10.023  10.850  17.284  0.00  0.00    +0.007 C 
ATOM     20  C   UNL     1     -11.357  12.520  18.601  0.00  0.00    +0.007 C 
ENDBRANCH   6  10
BRANCH   7  11
ATOM     11  C   UNL     1     -12.761   8.525  16.797  0.00  0.00    +0.112 C 
BRANCH  11   4
ATOM      2  O   UNL     1     -13.740   8.415  14.062  0.00  0.00    -0.276 OA
ATOM      4  N   UNL     1     -12.072   8.037  15.644  0.00  0.00    -0.315 N 
ATOM     18  C   UNL     1     -12.621   8.022  14.367  0.00  0.00    +0.216 C 
ATOM     30  H   UNL     1     -11.112   7.723  15.756  0.00  0.00    +0.149 HD
BRANCH  18  13
ATOM     13  C   UNL     1     -11.721   7.470  13.311  0.00  0.00    +0.075 C 
ATOM     15  C   UNL     1     -10.259   7.314  13.605  0.00  0.00    +0.013 C 
ATOM     16  C   UNL     1     -10.724   8.378  12.655  0.00  0.00    +0.013 C 
ENDBRANCH  18  13
ENDBRANCH  11   4
ENDBRANCH   7  11
BRANCH   9  17
ATOM     17  C   UNL     1     -13.305   9.450  21.511  0.00  0.00    +0.103 C 
BRANCH  17  22
ATOM      3  O   UNL     1     -13.762  11.779  21.978  0.00  0.00    -0.276 OA
ATOM      5  N   UNL     1     -12.459  10.549  23.458  0.00  0.00    -0.311 N 
ATOM     22  C   UNL     1     -13.222  10.730  22.313  0.00  0.00    +0.214 C 
ATOM     31  H   UNL     1     -12.054   9.639  23.653  0.00  0.00    +0.149 HD
BRANCH   5  23
ATOM     23  C   UNL     1     -12.208  11.605  24.412  0.00  0.00    +0.139 C 
BRANCH  23  24
ATOM      1  F   UNL     1     -11.393   9.601  29.610  0.00  0.00    -0.205 F 
ATOM     24  C   UNL     1     -11.990  11.069  25.798  0.00  0.00    -0.030 A 
ATOM     25  C   UNL     1     -13.010  11.154  26.746  0.00  0.00    +0.008 A 
ATOM     26  C   UNL     1     -10.769  10.489  26.137  0.00  0.00    +0.008 A 
ATOM     27  C   UNL     1     -12.809  10.657  28.034  0.00  0.00    +0.038 A 
ATOM     28  C   UNL     1     -10.567   9.992  27.425  0.00  0.00    +0.038 A 
ATOM     29  C   UNL     1     -11.586  10.076  28.373  0.00  0.00    +0.123 A 
ENDBRANCH  23  24
ENDBRANCH   5  23
ENDBRANCH  17  22
ENDBRANCH   9  17
TORSDOF 8
ENDMDL
MODEL 4
REMARK VINA RESULT:      -5.9     24.112     26.807
REMARK  Name = 38027563
REMARK  11 active torsions:
REMARK  status: ('A' for Active; 'I' for Inactive)
REMARK    1  A    between atoms: N_4  and  C_11
REMARK    2  A    between atoms: N_5  and  C_23
REMARK    3  A    between atoms: C_6  and  C_10
REMARK    4  A    between atoms: C_7  and  C_11
REMARK    5  A    between atoms: C_9  and  C_17
REMARK    6  A    between atoms: C_10  and  C_19
REMARK    7  A    between atoms: C_10  and  C_20
REMARK    8  A    between atoms: C_12  and  C_21
REMARK    9  A    between atoms: C_13  and  C_18
REMARK   10  A    between atoms: C_17  and  C_22
REMARK   11  A    between atoms: C_23  and  C_24
REMARK                            x       y       z     vdW  Elec       q    Type
REMARK                         _______ _______ _______ _____ _____    ______ ____
ROOT
ATOM      6  C   UNL     1       8.943   8.762   4.703  0.00  0.00    +0.000 C 
ATOM      7  C   UNL     1       8.775   8.421   6.203  0.00  0.00    +0.032 C 
ATOM      8  C   UNL     1       8.469   7.591   3.829  0.00  0.00    +0.012 C 
ATOM      9  C   UNL     1       9.244   6.292   4.124  0.00  0.00    +0.023 C 
ATOM     12  C   UNL     1       9.353   6.028   5.612  0.00  0.00    -0.073 C 
ATOM     14  C   UNL     1       9.127   6.986   6.526  0.00  0.00    -0.022 C 
ATOM     21  C   UNL     1       9.684   4.620   6.026  0.00  0.00    +0.039 C 
ENDROOT
BRANCH   6  10
ATOM     10  C   UNL     1       8.181  10.035   4.320  0.00  0.00    -0.013 C 
ATOM     19  C   UNL     1       6.767   9.692   3.866  0.00  0.00    +0.007 C 
ATOM     20  C   UNL     1       8.930  10.797   3.230  0.00  0.00    +0.007 C 
ENDBRANCH   6  10
BRANCH   7  11
ATOM     11  C   UNL     1       9.608   9.361   7.082  0.00  0.00    +0.112 C 
BRANCH  11   4
ATOM      2  O   UNL     1      12.073   9.928   5.649  0.00  0.00    -0.276 OA
ATOM      4  N   UNL     1      10.904   8.810   7.327  0.00  0.00    -0.315 N 
ATOM     18  C   UNL     1      12.034   9.141   6.586  0.00  0.00    +0.216 C 
ATOM     30  H   UNL     1      11.016   8.176   8.112  0.00  0.00    +0.149 HD
BRANCH  18  13
ATOM     13  C   UNL     1      13.284   8.447   7.018  0.00  0.00    +0.075 C 
ATOM     15  C   UNL     1      14.155   7.800   5.982  0.00  0.00    +0.013 C 
ATOM     16  C   UNL     1      13.357   6.951   6.927  0.00  0.00    +0.013 C 
ENDBRANCH  18  13
ENDBRANCH  11   4
ENDBRANCH   7  11
BRANCH   9  17
ATOM     17  C   UNL     1      10.630   6.317   3.468  0.00  0.00    +0.103 C 
BRANCH  17  22
ATOM      3  O   UNL     1      10.106   5.079   1.457  0.00  0.00    -0.276 OA
ATOM      5  N   UNL     1      11.836   4.354   2.830  0.00  0.00    -0.311 N 
ATOM     22  C   UNL     1      10.801   5.202   2.461  0.00  0.00    +0.214 C 
ATOM     31  H   UNL     1      12.359   4.540   3.679  0.00  0.00    +0.149 HD
BRANCH   5  23
ATOM     23  C   UNL     1      12.223   3.198   2.053  0.00  0.00    +0.139 C 
BRANCH  23  24
ATOM      1  F   UNL     1      16.317   4.410  -1.618  0.00  0.00    -0.205 F 
ATOM     24  C   UNL     1      13.315   3.521   1.073  0.00  0.00    -0.030 A 
ATOM     25  C   UNL     1      14.628   3.670   1.518  0.00  0.00    +0.008 A 
ATOM     26  C   UNL     1      13.015   3.671  -0.280  0.00  0.00    +0.008 A 
ATOM     27  C   UNL     1      15.643   3.970   0.609  0.00  0.00    +0.038 A 
ATOM     28  C   UNL     1      14.029   3.971  -1.190  0.00  0.00    +0.038 A 
ATOM     29  C   UNL     1      15.343   4.121  -0.745  0.00  0.00    +0.123 A 
ENDBRANCH  23  24
ENDBRANCH   5  23
ENDBRANCH  17  22
ENDBRANCH   9  17
TORSDOF 8
ENDMDL
MODEL 5
REMARK VINA RESULT:      -5.8      3.625      8.150
REMARK  Name = 38027563
REMARK  11 active torsions:
REMARK  status: ('A' for Active; 'I' for Inactive)
REMARK    1  A    between atoms: N_4  and  C_11
REMARK    2  A    between atoms: N_5  and  C_23
REMARK    3  A    between atoms: C_6  and  C_10
REMARK    4  A    between atoms: C_7  and  C_11
REMARK    5  A    between atoms: C_9  and  C_17
REMARK    6  A    between atoms: C_10  and  C_19
REMARK    7  A    between atoms: C_10  and  C_20
REMARK    8  A    between atoms: C_12  and  C_21
REMARK    9  A    between atoms: C_13  and  C_18
REMARK   10  A    between atoms: C_17  and  C_22
REMARK   11  A    between atoms: C_23  and  C_24
REMARK                            x       y       z     vdW  Elec       q    Type
REMARK                         _______ _______ _______ _____ _____    ______ ____
ROOT
ATOM      6  C   UNL     1      -7.336 -10.318  15.941  0.00  0.00    +0.000 C 
ATOM      7  C   UNL     1      -6.345  -9.989  14.798  0.00  0.00    +0.032 C 
ATOM      8  C   UNL     1      -6.752  -9.890  17.297  0.00  0.00    +0.012 C 
ATOM      9  C   UNL     1      -5.410 -10.584  17.600  0.00  0.00    +0.023 C 
ATOM     12  C   UNL     1      -4.471 -10.534  16.411  0.00  0.00    -0.073 C 
ATOM     14  C   UNL     1      -4.904 -10.253  15.170  0.00  0.00    -0.022 C 
ATOM     21  C   UNL     1      -3.012 -10.769  16.692  0.00  0.00    +0.039 C 
ENDROOT
BRANCH   6  10
ATOM     10  C   UNL     1      -8.695  -9.647  15.727  0.00  0.00    -0.013 C 
ATOM     19  C   UNL     1      -8.895  -8.517  16.731  0.00  0.00    +0.007 C 
ATOM     20  C   UNL     1      -9.819 -10.673  15.836  0.00  0.00    +0.007 C 
ENDBRANCH   6  10
BRANCH   7  11
ATOM     11  C   UNL     1      -6.694 -10.765  13.523  0.00  0.00    +0.112 C 
BRANCH  11   4
ATOM      2  O   UNL     1      -6.221  -9.789  10.826  0.00  0.00    -0.276 OA
ATOM      4  N   UNL     1      -5.531 -10.965  12.716  0.00  0.00    -0.315 N 
ATOM     18  C   UNL     1      -5.391 -10.458  11.429  0.00  0.00    +0.216 C 
ATOM     30  H   UNL     1      -4.746 -11.467  13.120  0.00  0.00    +0.149 HD
BRANCH  18  13
ATOM     13  C   UNL     1      -4.092 -10.786  10.770  0.00  0.00    +0.075 C 
ATOM     15  C   UNL     1      -2.852 -10.887  11.609  0.00  0.00    +0.013 C 
ATOM     16  C   UNL     1      -3.034  -9.727  10.676  0.00  0.00    +0.013 C 
ENDBRANCH  18  13
ENDBRANCH  11   4
ENDBRANCH   7  11
BRANCH   9  17
ATOM     17  C   UNL     1      -5.628 -12.028  18.067  0.00  0.00    +0.103 C 
BRANCH  17  22
ATOM      3  O   UNL     1      -6.172 -11.500  20.364  0.00  0.00    -0.276 OA
ATOM      5  N   UNL     1      -7.560 -12.920  19.156  0.00  0.00    -0.311 N 
ATOM     22  C   UNL     1      -6.456 -12.097  19.330  0.00  0.00    +0.214 C 
ATOM     31  H   UNL     1      -7.715 -13.369  18.260  0.00  0.00    +0.149 HD
BRANCH   5  23
ATOM     23  C   UNL     1      -8.526 -13.173  20.201  0.00  0.00    +0.139 C 
BRANCH  23  24
ATOM      1  F   UNL     1     -12.970  -9.734  19.836  0.00  0.00    -0.205 F 
ATOM     24  C   UNL     1      -9.712 -12.256  20.103  0.00  0.00    -0.030 A 
ATOM     25  C   UNL     1      -9.560 -10.974  19.574  0.00  0.00    +0.008 A 
ATOM     26  C   UNL     1     -10.964 -12.687  20.541  0.00  0.00    +0.008 A 
ATOM     27  C   UNL     1     -10.660 -10.122  19.484  0.00  0.00    +0.038 A 
ATOM     28  C   UNL     1     -12.065 -11.835  20.450  0.00  0.00    +0.038 A 
ATOM     29  C   UNL     1     -11.913 -10.553  19.922  0.00  0.00    +0.123 A 
ENDBRANCH  23  24
ENDBRANCH   5  23
ENDBRANCH  17  22
ENDBRANCH   9  17
TORSDOF 8
ENDMDL
MODEL 6
REMARK VINA RESULT:      -5.6      2.299      3.871
REMARK  Name = 38027563
REMARK  11 active torsions:
REMARK  status: ('A' for Active; 'I' for Inactive)
REMARK    1  A    between atoms: N_4  and  C_11
REMARK    2  A    between atoms: N_5  and  C_23
REMARK    3  A    between atoms: C_6  and  C_10
REMARK    4  A    between atoms: C_7  and  C_11
REMARK    5  A    between atoms: C_9  and  C_17
REMARK    6  A    between atoms: C_10  and  C_19
REMARK    7  A    between atoms: C_10  and  C_20
REMARK    8  A    between atoms: C_12  and  C_21
REMARK    9  A    between atoms: C_13  and  C_18
REMARK   10  A    between atoms: C_17  and  C_22
REMARK   11  A    between atoms: C_23  and  C_24
REMARK                            x       y       z     vdW  Elec       q    Type
REMARK                         _______ _______ _______ _____ _____    ______ ____
ROOT
ATOM      6  C   UNL     1      -6.012 -10.634  16.600  0.00  0.00    +0.000 C 
ATOM      7  C   UNL     1      -7.066  -9.794  17.364  0.00  0.00    +0.032 C 
ATOM      8  C   UNL     1      -5.869 -10.130  15.155  0.00  0.00    +0.012 C 
ATOM      9  C   UNL     1      -7.200 -10.195  14.381  0.00  0.00    +0.023 C 
ATOM     12  C   UNL     1      -8.348  -9.623  15.187  0.00  0.00    -0.073 C 
ATOM     14  C   UNL     1      -8.266  -9.439  16.516  0.00  0.00    -0.022 C 
ATOM     21  C   UNL     1      -9.580  -9.225  14.421  0.00  0.00    +0.039 C 
ENDROOT
BRANCH   6  10
ATOM     10  C   UNL     1      -4.648 -10.605  17.296  0.00  0.00    -0.013 C 
ATOM     19  C   UNL     1      -3.529 -10.479  16.268  0.00  0.00    +0.007 C 
ATOM     20  C   UNL     1      -4.460 -11.855  18.151  0.00  0.00    +0.007 C 
ENDBRANCH   6  10
BRANCH   7  11
ATOM     11  C   UNL     1      -7.533 -10.515  18.633  0.00  0.00    +0.112 C 
BRANCH  11   4
ATOM      2  O   UNL     1      -9.603 -12.000  20.033  0.00  0.00    -0.276 OA
ATOM      4  N   UNL     1      -8.818 -10.042  19.041  0.00  0.00    -0.315 N 
ATOM     18  C   UNL     1      -9.751 -10.827  19.710  0.00  0.00    +0.216 C 
ATOM     30  H   UNL     1      -9.047  -9.067  18.873  0.00  0.00    +0.149 HD
BRANCH  18  13
ATOM     13  C   UNL     1     -11.028 -10.128  20.042  0.00  0.00    +0.075 C 
ATOM     15  C   UNL     1     -12.245 -10.943  20.363  0.00  0.00    +0.013 C 
ATOM     16  C   UNL     1     -12.168 -10.189  19.068  0.00  0.00    +0.013 C 
ENDBRANCH  18  13
ENDBRANCH  11   4
ENDBRANCH   7  11
BRANCH   9  17
ATOM     17  C   UNL     1      -7.506 -11.627  13.929  0.00  0.00    +0.103 C 
BRANCH  17  22
ATOM      3  O   UNL     1      -5.602 -13.099  13.679  0.00  0.00    -0.276 OA
ATOM      5  N   UNL     1      -6.235 -11.733  11.907  0.00  0.00    -0.311 N 
ATOM     22  C   UNL     1      -6.343 -12.251  13.191  0.00  0.00    +0.214 C 
ATOM     31  H   UNL     1      -6.900 -11.035  11.590  0.00  0.00    +0.149 HD
BRANCH   5  23
ATOM     23  C   UNL     1      -5.210 -12.146  10.975  0.00  0.00    +0.139 C 
BRANCH  23  24
ATOM      1  F   UNL     1      -0.770  -8.684  11.052  0.00  0.00    -0.205 F 
ATOM     24  C   UNL     1      -4.026 -11.223  10.997  0.00  0.00    -0.030 A 
ATOM     25  C   UNL     1      -4.007 -10.095  10.176  0.00  0.00    +0.008 A 
ATOM     26  C   UNL     1      -2.946 -11.494  11.836  0.00  0.00    +0.008 A 
ATOM     27  C   UNL     1      -2.908  -9.237  10.195  0.00  0.00    +0.038 A 
ATOM     28  C   UNL     1      -1.846 -10.636  11.855  0.00  0.00    +0.038 A 
ATOM     29  C   UNL     1      -1.827  -9.508  11.035  0.00  0.00    +0.123 A 
ENDBRANCH  23  24
ENDBRANCH   5  23
ENDBRANCH  17  22
ENDBRANCH   9  17
TORSDOF 8
ENDMDL
MODEL 7
REMARK VINA RESULT:      -5.6     19.507     21.779
REMARK  Name = 38027563
REMARK  11 active torsions:
REMARK  status: ('A' for Active; 'I' for Inactive)
REMARK    1  A    between atoms: N_4  and  C_11
REMARK    2  A    between atoms: N_5  and  C_23
REMARK    3  A    between atoms: C_6  and  C_10
REMARK    4  A    between atoms: C_7  and  C_11
REMARK    5  A    between atoms: C_9  and  C_17
REMARK    6  A    between atoms: C_10  and  C_19
REMARK    7  A    between atoms: C_10  and  C_20
REMARK    8  A    between atoms: C_12  and  C_21
REMARK    9  A    between atoms: C_13  and  C_18
REMARK   10  A    between atoms: C_17  and  C_22
REMARK   11  A    between atoms: C_23  and  C_24
REMARK                            x       y       z     vdW  Elec       q    Type
REMARK                         _______ _______ _______ _____ _____    ______ ____
ROOT
ATOM      6  C   UNL     1     -13.169   8.876  20.573  0.00  0.00    +0.000 C 
ATOM      7  C   UNL     1     -13.483   8.474  22.035  0.00  0.00    +0.032 C 
ATOM      8  C   UNL     1     -11.951   9.812  20.523  0.00  0.00    +0.012 C 
ATOM      9  C   UNL     1     -12.169  11.096  21.346  0.00  0.00    +0.023 C 
ATOM     12  C   UNL     1     -12.737  10.795  22.719  0.00  0.00    -0.073 C 
ATOM     14  C   UNL     1     -13.308   9.614  23.012  0.00  0.00    -0.022 C 
ATOM     21  C   UNL     1     -12.592  11.870  23.761  0.00  0.00    +0.039 C 
ENDROOT
BRANCH   6  10
ATOM     10  C   UNL     1     -12.917   7.652  19.688  0.00  0.00    -0.013 C 
ATOM     19  C   UNL     1     -11.425   7.352  19.605  0.00  0.00    +0.007 C 
ATOM     20  C   UNL     1     -13.503   7.871  18.296  0.00  0.00    +0.007 C 
ENDBRANCH   6  10
BRANCH   7  11
ATOM     11  C   UNL     1     -14.901   7.907  22.160  0.00  0.00    +0.112 C 
BRANCH  11   4
ATOM      2  O   UNL     1     -15.135   5.051  21.669  0.00  0.00    -0.276 OA
ATOM      4  N   UNL     1     -14.945   6.858  23.130  0.00  0.00    -0.315 N 
ATOM     18  C   UNL     1     -15.059   5.511  22.802  0.00  0.00    +0.216 C 
ATOM     30  H   UNL     1     -14.843   7.104  24.110  0.00  0.00    +0.149 HD
BRANCH  18  13
ATOM     13  C   UNL     1     -15.083   4.587  23.974  0.00  0.00    +0.075 C 
ATOM     15  C   UNL     1     -15.935   3.354  23.915  0.00  0.00    +0.013 C 
ATOM     16  C   UNL     1     -16.328   4.495  24.805  0.00  0.00    +0.013 C 
ENDBRANCH  18  13
ENDBRANCH  11   4
ENDBRANCH   7  11
BRANCH   9  17
ATOM     17  C   UNL     1     -13.058  12.092  20.591  0.00  0.00    +0.103 C 
BRANCH  17  22
ATOM      3  O   UNL     1     -11.576  13.175  19.015  0.00  0.00    -0.276 OA
ATOM      5  N   UNL     1     -13.216  11.725  18.234  0.00  0.00    -0.311 N 
ATOM     22  C   UNL     1     -12.514  12.409  19.216  0.00  0.00    +0.214 C 
ATOM     31  H   UNL     1     -13.977  11.107  18.499  0.00  0.00    +0.149 HD
BRANCH   5  23
ATOM     23  C   UNL     1     -12.914  11.839  16.825  0.00  0.00    +0.139 C 
BRANCH  23  24
ATOM      1  F   UNL     1     -10.131   7.340  14.895  0.00  0.00    -0.205 F 
ATOM     24  C   UNL     1     -12.173  10.638  16.311  0.00  0.00    -0.030 A 
ATOM     25  C   UNL     1     -10.989  10.233  16.928  0.00  0.00    +0.008 A 
ATOM     26  C   UNL     1     -12.667   9.930  15.216  0.00  0.00    +0.008 A 
ATOM     27  C   UNL     1     -10.300   9.118  16.450  0.00  0.00    +0.038 A 
ATOM     28  C   UNL     1     -11.978   8.815  14.738  0.00  0.00    +0.038 A 
ATOM     29  C   UNL     1     -10.794   8.410  15.355  0.00  0.00    +0.123 A 
ENDBRANCH  23  24
ENDBRANCH   5  23
ENDBRANCH  17  22
ENDBRANCH   9  17
TORSDOF 8
ENDMDL
MODEL 8
REMARK VINA RESULT:      -5.5     22.751     26.200
REMARK  Name = 38027563
REMARK  11 active torsions:
REMARK  status: ('A' for Active; 'I' for Inactive)
REMARK    1  A    between atoms: N_4  and  C_11
REMARK    2  A    between atoms: N_5  and  C_23
REMARK    3  A    between atoms: C_6  and  C_10
REMARK    4  A    between atoms: C_7  and  C_11
REMARK    5  A    between atoms: C_9  and  C_17
REMARK    6  A    between atoms: C_10  and  C_19
REMARK    7  A    between atoms: C_10  and  C_20
REMARK    8  A    between atoms: C_12  and  C_21
REMARK    9  A    between atoms: C_13  and  C_18
REMARK   10  A    between atoms: C_17  and  C_22
REMARK   11  A    between atoms: C_23  and  C_24
REMARK                            x       y       z     vdW  Elec       q    Type
REMARK                         _______ _______ _______ _____ _____    ______ ____
ROOT
ATOM      6  C   UNL     1      11.467   7.097   4.932  0.00  0.00    +0.000 C 
ATOM      7  C   UNL     1      10.112   7.762   4.585  0.00  0.00    +0.032 C 
ATOM      8  C   UNL     1      12.369   7.036   3.690  0.00  0.00    +0.012 C 
ATOM      9  C   UNL     1      11.719   6.247   2.536  0.00  0.00    +0.023 C 
ATOM     12  C   UNL     1      10.280   6.665   2.309  0.00  0.00    -0.073 C 
ATOM     14  C   UNL     1       9.583   7.353   3.230  0.00  0.00    -0.022 C 
ATOM     21  C   UNL     1       9.676   6.313   0.978  0.00  0.00    +0.039 C 
ENDROOT
BRANCH   6  10
ATOM     10  C   UNL     1      12.191   7.836   6.062  0.00  0.00    -0.013 C 
ATOM     19  C   UNL     1      12.983   9.014   5.505  0.00  0.00    +0.007 C 
ATOM     20  C   UNL     1      13.105   6.881   6.823  0.00  0.00    +0.007 C 
ENDBRANCH   6  10
BRANCH   7  11
ATOM     11  C   UNL     1       9.058   7.462   5.657  0.00  0.00    +0.112 C 
BRANCH  11   4
ATOM      2  O   UNL     1       8.633   7.487   8.533  0.00  0.00    -0.276 OA
ATOM      4  N   UNL     1       9.563   6.534   6.620  0.00  0.00    -0.315 N 
ATOM     18  C   UNL     1       9.308   6.624   7.984  0.00  0.00    +0.216 C 
ATOM     30  H   UNL     1      10.102   5.741   6.286  0.00  0.00    +0.149 HD
BRANCH  18  13
ATOM     13  C   UNL     1       9.934   5.547   8.806  0.00  0.00    +0.075 C 
ATOM     15  C   UNL     1       9.778   4.118   8.377  0.00  0.00    +0.013 C 
ATOM     16  C   UNL     1       9.051   4.620   9.589  0.00  0.00    +0.013 C 
ENDBRANCH  18  13
ENDBRANCH  11   4
ENDBRANCH   7  11
BRANCH   9  17
ATOM     17  C   UNL     1      11.821   4.736   2.775  0.00  0.00    +0.103 C 
BRANCH  17  22
ATOM      3  O   UNL     1      12.920   2.861   1.712  0.00  0.00    -0.276 OA
ATOM      5  N   UNL     1      12.774   4.890   0.588  0.00  0.00    -0.311 N 
ATOM     22  C   UNL     1      12.561   4.033   1.659  0.00  0.00    +0.214 C 
ATOM     31  H   UNL     1      12.434   5.846   0.634  0.00  0.00    +0.149 HD
BRANCH   5  23
ATOM     23  C   UNL     1      13.460   4.488  -0.619  0.00  0.00    +0.139 C 
BRANCH  23  24
ATOM      1  F   UNL     1       9.879   2.687  -4.573  0.00  0.00    -0.205 F 
ATOM     24  C   UNL     1      12.505   4.008  -1.674  0.00  0.00    -0.030 A 
ATOM     25  C   UNL     1      11.199   4.497  -1.707  0.00  0.00    +0.008 A 
ATOM     26  C   UNL     1      12.924   3.073  -2.620  0.00  0.00    +0.008 A 
ATOM     27  C   UNL     1      10.312   4.051  -2.687  0.00  0.00    +0.038 A 
ATOM     28  C   UNL     1      12.037   2.627  -3.600  0.00  0.00    +0.038 A 
ATOM     29  C   UNL     1      10.731   3.116  -3.633  0.00  0.00    +0.123 A 
ENDBRANCH  23  24
ENDBRANCH   5  23
ENDBRANCH  17  22
ENDBRANCH   9  17
TORSDOF 8
ENDMDL
MODEL 9
REMARK VINA RESULT:      -5.5     20.422     23.694
REMARK  Name = 38027563
REMARK  11 active torsions:
REMARK  status: ('A' for Active; 'I' for Inactive)
REMARK    1  A    between atoms: N_4  and  C_11
REMARK    2  A    between atoms: N_5  and  C_23
REMARK    3  A    between atoms: C_6  and  C_10
REMARK    4  A    between atoms: C_7  and  C_11
REMARK    5  A    between atoms: C_9  and  C_17
REMARK    6  A    between atoms: C_10  and  C_19
REMARK    7  A    between atoms: C_10  and  C_20
REMARK    8  A    between atoms: C_12  and  C_21
REMARK    9  A    between atoms: C_13  and  C_18
REMARK   10  A    between atoms: C_17  and  C_22
REMARK   11  A    between atoms: C_23  and  C_24
REMARK                            x       y       z     vdW  Elec       q    Type
REMARK                         _______ _______ _______ _____ _____    ______ ____
ROOT
ATOM      6  C   UNL     1     -11.926  10.302  18.743  0.00  0.00    +0.000 C 
ATOM      7  C   UNL     1     -11.669   8.982  17.975  0.00  0.00    +0.032 C 
ATOM      8  C   UNL     1     -11.283  10.245  20.138  0.00  0.00    +0.012 C 
ATOM      9  C   UNL     1     -11.824   9.076  20.982  0.00  0.00    +0.023 C 
ATOM     12  C   UNL     1     -11.854   7.780  20.197  0.00  0.00    -0.073 C 
ATOM     14  C   UNL     1     -11.770   7.757  18.855  0.00  0.00    -0.022 C 
ATOM     21  C   UNL     1     -11.936   6.508  20.994  0.00  0.00    +0.039 C 
ENDROOT
BRANCH   6  10
ATOM     10  C   UNL     1     -11.396  11.517  17.978  0.00  0.00    -0.013 C 
ATOM     19  C   UNL     1      -9.924  11.327  17.629  0.00  0.00    +0.007 C 
ATOM     20  C   UNL     1     -11.599  12.791  18.794  0.00  0.00    +0.007 C 
ENDBRANCH   6  10
BRANCH   7  11
ATOM     11  C   UNL     1     -12.627   8.837  16.788  0.00  0.00    +0.112 C 
BRANCH  11   4
ATOM      2  O   UNL     1     -15.204   9.866  17.656  0.00  0.00    -0.276 OA
ATOM      4  N   UNL     1     -13.785   8.085  17.158  0.00  0.00    -0.315 N 
ATOM     18  C   UNL     1     -14.983   8.665  17.564  0.00  0.00    +0.216 C 
ATOM     30  H   UNL     1     -13.746   7.074  17.080  0.00  0.00    +0.149 HD
BRANCH  18  13
ATOM     13  C   UNL     1     -16.061   7.690  17.903  0.00  0.00    +0.075 C 
ATOM     15  C   UNL     1     -17.096   8.070  18.920  0.00  0.00    +0.013 C 
ATOM     16  C   UNL     1     -16.058   7.039  19.255  0.00  0.00    +0.013 C 
ENDBRANCH  18  13
ENDBRANCH  11   4
ENDBRANCH   7  11
BRANCH   9  17
ATOM     17  C   UNL     1     -13.209   9.403  21.553  0.00  0.00    +0.103 C 
BRANCH  17  22
ATOM      3  O   UNL     1     -13.767  11.727  21.927  0.00  0.00    -0.276 OA
ATOM      5  N   UNL     1     -12.514  10.581  23.513  0.00  0.00    -0.311 N 
ATOM     22  C   UNL     1     -13.214  10.705  22.322  0.00  0.00    +0.214 C 
ATOM     31  H   UNL     1     -12.093   9.690  23.758  0.00  0.00    +0.149 HD
BRANCH   5  23
ATOM     23  C   UNL     1     -12.353  11.670  24.450  0.00  0.00    +0.139 C 
BRANCH  23  24
ATOM      1  F   UNL     1     -11.347   9.827  29.675  0.00  0.00    -0.205 F 
ATOM     24  C   UNL     1     -12.085  11.177  25.843  0.00  0.00    -0.030 A 
ATOM     25  C   UNL     1     -12.952  11.517  26.881  0.00  0.00    +0.008 A 
ATOM     26  C   UNL     1     -10.968  10.382  26.099  0.00  0.00    +0.008 A 
ATOM     27  C   UNL     1     -12.704  11.060  28.176  0.00  0.00    +0.038 A 
ATOM     28  C   UNL     1     -10.719   9.925  27.393  0.00  0.00    +0.038 A 
ATOM     29  C   UNL     1     -11.587  10.264  28.431  0.00  0.00    +0.123 A 
ENDBRANCH  23  24
ENDBRANCH   5  23
ENDBRANCH  17  22
ENDBRANCH   9  17
TORSDOF 8
ENDMDL
MODEL 10
REMARK VINA RESULT:      -5.5      3.130      7.666
REMARK  Name = 38027563
REMARK  11 active torsions:
REMARK  status: ('A' for Active; 'I' for Inactive)
REMARK    1  A    between atoms: N_4  and  C_11
REMARK    2  A    between atoms: N_5  and  C_23
REMARK    3  A    between atoms: C_6  and  C_10
REMARK    4  A    between atoms: C_7  and  C_11
REMARK    5  A    between atoms: C_9  and  C_17
REMARK    6  A    between atoms: C_10  and  C_19
REMARK    7  A    between atoms: C_10  and  C_20
REMARK    8  A    between atoms: C_12  and  C_21
REMARK    9  A    between atoms: C_13  and  C_18
REMARK   10  A    between atoms: C_17  and  C_22
REMARK   11  A    between atoms: C_23  and  C_24
REMARK                            x       y       z     vdW  Elec       q    Type
REMARK                         _______ _______ _______ _____ _____    ______ ____
ROOT
ATOM      6  C   UNL     1      -5.279 -10.938  13.906  0.00  0.00    +0.000 C 
ATOM      7  C   UNL     1      -4.005 -10.616  13.086  0.00  0.00    +0.032 C 
ATOM      8  C   UNL     1      -5.235 -10.225  15.267  0.00  0.00    +0.012 C 
ATOM      9  C   UNL     1      -4.003 -10.631  16.098  0.00  0.00    +0.023 C 
ATOM     12  C   UNL     1      -2.732 -10.597  15.275  0.00  0.00    -0.073 C 
ATOM     14  C   UNL     1      -2.752 -10.577  13.931  0.00  0.00    -0.022 C 
ATOM     21  C   UNL     1      -1.435 -10.540  16.035  0.00  0.00    +0.039 C 
ENDROOT
BRANCH   6  10
ATOM     10  C   UNL     1      -6.553 -10.542  13.155  0.00  0.00    -0.013 C 
ATOM     19  C   UNL     1      -6.421  -9.135  12.585  0.00  0.00    +0.007 C 
ATOM     20  C   UNL     1      -7.766 -10.642  14.076  0.00  0.00    +0.007 C 
ENDBRANCH   6  10
BRANCH   7  11
ATOM     11  C   UNL     1      -3.817 -11.616  11.940  0.00  0.00    +0.112 C 
BRANCH  11   4
ATOM      2  O   UNL     1      -2.729  -9.435  10.355  0.00  0.00    -0.276 OA
ATOM      4  N   UNL     1      -4.332 -11.088  10.716  0.00  0.00    -0.315 N 
ATOM     18  C   UNL     1      -3.743 -10.036  10.022  0.00  0.00    +0.216 C 
ATOM     30  H   UNL     1      -5.149 -11.533  10.307  0.00  0.00    +0.149 HD
BRANCH  18  13
ATOM     13  C   UNL     1      -4.449  -9.649   8.765  0.00  0.00    +0.075 C 
ATOM     15  C   UNL     1      -5.872 -10.081   8.563  0.00  0.00    +0.013 C 
ATOM     16  C   UNL     1      -4.775 -10.709   7.755  0.00  0.00    +0.013 C 
ENDBRANCH  18  13
ENDBRANCH  11   4
ENDBRANCH   7  11
BRANCH   9  17
ATOM     17  C   UNL     1      -4.203 -12.008  16.743  0.00  0.00    +0.103 C 
BRANCH  17  22
ATOM      3  O   UNL     1      -4.260 -11.692  19.141  0.00  0.00    -0.276 OA
ATOM      5  N   UNL     1      -6.238 -12.102  17.993  0.00  0.00    -0.311 N 
ATOM     22  C   UNL     1      -4.868 -11.910  18.097  0.00  0.00    +0.214 C 
ATOM     31  H   UNL     1      -6.653 -12.273  17.082  0.00  0.00    +0.149 HD
BRANCH   5  23
ATOM     23  C   UNL     1      -7.129 -12.065  19.131  0.00  0.00    +0.139 C 
BRANCH  23  24
ATOM      1  F   UNL     1     -11.573  -8.730  18.219  0.00  0.00    -0.205 F 
ATOM     24  C   UNL     1      -8.313 -11.174  18.888  0.00  0.00    -0.030 A 
ATOM     25  C   UNL     1      -9.421 -11.242  19.732  0.00  0.00    +0.008 A 
ATOM     26  C   UNL     1      -8.306 -10.281  17.817  0.00  0.00    +0.008 A 
ATOM     27  C   UNL     1     -10.523 -10.417  19.507  0.00  0.00    +0.038 A 
ATOM     28  C   UNL     1      -9.407  -9.454  17.591  0.00  0.00    +0.038 A 
ATOM     29  C   UNL     1     -10.515  -9.522  18.436  0.00  0.00    +0.123 A 
ENDBRANCH  23  24
ENDBRANCH   5  23
ENDBRANCH  17  22
ENDBRANCH   9  17
TORSDOF 8
ENDMDL
