MODEL 1
REMARK VINA RESULT:      -6.0      0.000      0.000
REMARK  Name = 45361190
REMARK  8 active torsions:
REMARK  status: ('A' for Active; 'I' for Inactive)
REMARK    1  A    between atoms: O_3  and  C_24
REMARK    2  A    between atoms: O_3  and  C_25
REMARK    3  A    between atoms: N_4  and  C_16
REMARK    4  A    between atoms: N_5  and  C_19
REMARK    5  A    between atoms: C_11  and  C_14
REMARK    6  A    between atoms: C_14  and  C_17
REMARK    7  A    between atoms: C_17  and  C_23
REMARK    8  A    between atoms: C_18  and  C_24
REMARK                            x       y       z     vdW  Elec       q    Type
REMARK                         _______ _______ _______ _____ _____    ______ ____
ROOT
ATOM      1  O   UNL     1      -1.170 -10.599  15.403  0.00  0.00    -0.274 OA
ATOM      4  N   UNL     1      -4.277 -12.768  16.200  0.00  0.00    -0.296 NA
ATOM      5  N   UNL     1      -2.220 -11.921  13.295  0.00  0.00    -0.293 NA
ATOM      6  N   UNL     1      -3.190 -10.099  16.354  0.00  0.00    -0.312 N 
ATOM      8  C   UNL     1      -4.042 -12.593  14.750  0.00  0.00    +0.084 C 
ATOM      9  C   UNL     1      -3.180 -11.385  14.278  0.00  0.00    +0.160 C 
ATOM     10  C   UNL     1      -3.321 -13.781  14.086  0.00  0.00    +0.036 C 
ATOM     11  C   UNL     1      -5.050 -11.664  16.837  0.00  0.00    +0.074 C 
ATOM     12  C   UNL     1      -2.761 -13.185  12.811  0.00  0.00    +0.086 C 
ATOM     13  C   UNL     1      -4.631 -10.245  16.401  0.00  0.00    +0.123 C 
ATOM     15  C   UNL     1      -2.397 -10.681  15.383  0.00  0.00    +0.232 C 
ATOM     16  C   UNL     1      -4.920 -14.064  16.475  0.00  0.00    +0.105 C 
ATOM     19  C   UNL     1      -1.931 -10.996  12.207  0.00  0.00    +0.105 C 
ATOM     26  H   UNL     1      -2.735  -9.548  17.074  0.00  0.00    +0.149 HD
ENDROOT
BRANCH  11  14
ATOM     14  C   UNL     1      -4.923 -11.734  18.373  0.00  0.00    +0.029 C 
BRANCH  14  17
ATOM     17  C   UNL     1      -5.766 -10.679  19.061  0.00  0.00    +0.097 C 
BRANCH  17  23
ATOM      2  O   UNL     1      -7.350 -12.101  20.130  0.00  0.00    -0.276 OA
ATOM      7  N   UNL     1      -8.172 -10.549  18.624  0.00  0.00    -0.296 N 
ATOM     18  C   UNL     1      -9.571 -10.977  18.691  0.00  0.00    +0.102 C 
ATOM     20  C   UNL     1     -10.213 -10.315  17.468  0.00  0.00    +0.026 C 
ATOM     21  C   UNL     1      -7.997  -9.460  17.665  0.00  0.00    +0.108 C 
ATOM     22  C   UNL     1      -9.411  -9.030  17.300  0.00  0.00    +0.021 C 
ATOM     23  C   UNL     1      -7.163 -11.184  19.327  0.00  0.00    +0.216 C 
BRANCH  18  24
ATOM     24  C   UNL     1     -10.229 -10.535  19.997  0.00  0.00    +0.181 C 
BRANCH  24   3
ATOM      3  O   UNL     1     -11.303 -11.413  20.277  0.00  0.00    -0.381 OA
ATOM     25  C   UNL     1     -10.843 -12.712  20.636  0.00  0.00    +0.194 C 
ENDBRANCH  24   3
ENDBRANCH  18  24
ENDBRANCH  17  23
ENDBRANCH  14  17
ENDBRANCH  11  14
TORSDOF 5
ENDMDL
MODEL 2
REMARK VINA RESULT:      -5.7     24.069     27.693
REMARK  Name = 45361190
REMARK  8 active torsions:
REMARK  status: ('A' for Active; 'I' for Inactive)
REMARK    1  A    between atoms: O_3  and  C_24
REMARK    2  A    between atoms: O_3  and  C_25
REMARK    3  A    between atoms: N_4  and  C_16
REMARK    4  A    between atoms: N_5  and  C_19
REMARK    5  A    between atoms: C_11  and  C_14
REMARK    6  A    between atoms: C_14  and  C_17
REMARK    7  A    between atoms: C_17  and  C_23
REMARK    8  A    between atoms: C_18  and  C_24
REMARK                            x       y       z     vdW  Elec       q    Type
REMARK                         _______ _______ _______ _____ _____    ______ ____
ROOT
ATOM      1  O   UNL     1      11.698   7.221  -1.343  0.00  0.00    -0.274 OA
ATOM      4  N   UNL     1      12.263   4.157   0.955  0.00  0.00    -0.296 NA
ATOM      5  N   UNL     1      12.033   4.869  -2.627  0.00  0.00    -0.293 NA
ATOM      6  N   UNL     1      10.468   6.341   0.374  0.00  0.00    -0.312 N 
ATOM      8  C   UNL     1      11.995   3.790  -0.453  0.00  0.00    +0.084 C 
ATOM      9  C   UNL     1      11.271   4.826  -1.365  0.00  0.00    +0.160 C 
ATOM     10  C   UNL     1      13.262   3.476  -1.269  0.00  0.00    +0.036 C 
ATOM     11  C   UNL     1      11.039   4.381   1.777  0.00  0.00    +0.074 C 
ATOM     12  C   UNL     1      12.807   3.636  -2.704  0.00  0.00    +0.086 C 
ATOM     13  C   UNL     1       9.931   5.196   1.081  0.00  0.00    +0.123 C 
ATOM     15  C   UNL     1      11.194   6.241  -0.799  0.00  0.00    +0.232 C 
ATOM     16  C   UNL     1      13.134   3.161   1.599  0.00  0.00    +0.105 C 
ATOM     19  C   UNL     1      11.193   5.063  -3.801  0.00  0.00    +0.105 C 
ATOM     26  H   UNL     1      10.312   7.267   0.760  0.00  0.00    +0.149 HD
ENDROOT
BRANCH  11  14
ATOM     14  C   UNL     1      11.398   5.110   3.088  0.00  0.00    +0.029 C 
BRANCH  14  17
ATOM     17  C   UNL     1      10.210   5.849   3.671  0.00  0.00    +0.097 C 
BRANCH  17  23
ATOM      2  O   UNL     1       9.873   4.177   5.332  0.00  0.00    -0.276 OA
ATOM      7  N   UNL     1       9.695   6.384   6.004  0.00  0.00    -0.296 N 
ATOM     18  C   UNL     1       9.299   6.106   7.386  0.00  0.00    +0.102 C 
ATOM     20  C   UNL     1       8.761   7.449   7.888  0.00  0.00    +0.026 C 
ATOM     21  C   UNL     1       9.730   7.821   5.742  0.00  0.00    +0.108 C 
ATOM     22  C   UNL     1       9.582   8.471   7.110  0.00  0.00    +0.021 C 
ATOM     23  C   UNL     1       9.909   5.381   5.073  0.00  0.00    +0.216 C 
BRANCH  18  24
ATOM     24  C   UNL     1      10.481   5.613   8.218  0.00  0.00    +0.181 C 
BRANCH  24   3
ATOM      3  O   UNL     1      10.123   4.383   8.821  0.00  0.00    -0.381 OA
ATOM     25  C   UNL     1       9.539   4.575  10.105  0.00  0.00    +0.194 C 
ENDBRANCH  24   3
ENDBRANCH  18  24
ENDBRANCH  17  23
ENDBRANCH  14  17
ENDBRANCH  11  14
TORSDOF 5
ENDMDL
MODEL 3
REMARK VINA RESULT:      -5.6     24.609     27.742
REMARK  Name = 45361190
REMARK  8 active torsions:
REMARK  status: ('A' for Active; 'I' for Inactive)
REMARK    1  A    between atoms: O_3  and  C_24
REMARK    2  A    between atoms: O_3  and  C_25
REMARK    3  A    between atoms: N_4  and  C_16
REMARK    4  A    between atoms: N_5  and  C_19
REMARK    5  A    between atoms: C_11  and  C_14
REMARK    6  A    between atoms: C_14  and  C_17
REMARK    7  A    between atoms: C_17  and  C_23
REMARK    8  A    between atoms: C_18  and  C_24
REMARK                            x       y       z     vdW  Elec       q    Type
REMARK                         _______ _______ _______ _____ _____    ______ ____
ROOT
ATOM      1  O   UNL     1      10.040   5.833  -1.592  0.00  0.00    -0.274 OA
ATOM      4  N   UNL     1      12.668   4.641   0.989  0.00  0.00    -0.296 NA
ATOM      5  N   UNL     1      11.816   4.019  -2.515  0.00  0.00    -0.293 NA
ATOM      6  N   UNL     1       9.838   4.882   0.479  0.00  0.00    -0.312 N 
ATOM      8  C   UNL     1      12.644   3.821  -0.242  0.00  0.00    +0.084 C 
ATOM      9  C   UNL     1      11.360   3.843  -1.123  0.00  0.00    +0.160 C 
ATOM     10  C   UNL     1      13.738   4.190  -1.260  0.00  0.00    +0.036 C 
ATOM     11  C   UNL     1      11.668   4.237   2.019  0.00  0.00    +0.074 C 
ATOM     12  C   UNL     1      13.217   3.618  -2.561  0.00  0.00    +0.086 C 
ATOM     13  C   UNL     1      10.266   3.913   1.468  0.00  0.00    +0.123 C 
ATOM     15  C   UNL     1      10.371   4.958  -0.794  0.00  0.00    +0.232 C 
ATOM     16  C   UNL     1      14.019   4.670   1.574  0.00  0.00    +0.105 C 
ATOM     19  C   UNL     1      11.006   3.294  -3.484  0.00  0.00    +0.105 C 
ATOM     26  H   UNL     1       9.115   5.548   0.733  0.00  0.00    +0.149 HD
ENDROOT
BRANCH  11  14
ATOM     14  C   UNL     1      11.506   5.348   3.077  0.00  0.00    +0.029 C 
BRANCH  14  17
ATOM     17  C   UNL     1      10.514   4.964   4.156  0.00  0.00    +0.097 C 
BRANCH  17  23
ATOM      2  O   UNL     1      10.493   7.235   4.870  0.00  0.00    -0.276 OA
ATOM      7  N   UNL     1      10.146   5.617   6.487  0.00  0.00    -0.296 N 
ATOM     18  C   UNL     1      10.091   6.533   7.629  0.00  0.00    +0.102 C 
ATOM     20  C   UNL     1      10.250   5.611   8.842  0.00  0.00    +0.026 C 
ATOM     21  C   UNL     1      10.013   4.228   6.916  0.00  0.00    +0.108 C 
ATOM     22  C   UNL     1       9.608   4.308   8.381  0.00  0.00    +0.021 C 
ATOM     23  C   UNL     1      10.387   6.051   5.194  0.00  0.00    +0.216 C 
BRANCH  18  24
ATOM     24  C   UNL     1       8.775   7.306   7.663  0.00  0.00    +0.181 C 
BRANCH  24   3
ATOM      3  O   UNL     1       9.044   8.632   8.080  0.00  0.00    -0.381 OA
ATOM     25  C   UNL     1      10.373   9.027   7.756  0.00  0.00    +0.194 C 
ENDBRANCH  24   3
ENDBRANCH  18  24
ENDBRANCH  17  23
ENDBRANCH  14  17
ENDBRANCH  11  14
TORSDOF 5
ENDMDL
MODEL 4
REMARK VINA RESULT:      -5.5     25.623     29.031
REMARK  Name = 45361190
REMARK  8 active torsions:
REMARK  status: ('A' for Active; 'I' for Inactive)
REMARK    1  A    between atoms: O_3  and  C_24
REMARK    2  A    between atoms: O_3  and  C_25
REMARK    3  A    between atoms: N_4  and  C_16
REMARK    4  A    between atoms: N_5  and  C_19
REMARK    5  A    between atoms: C_11  and  C_14
REMARK    6  A    between atoms: C_14  and  C_17
REMARK    7  A    between atoms: C_17  and  C_23
REMARK    8  A    between atoms: C_18  and  C_24
REMARK                            x       y       z     vdW  Elec       q    Type
REMARK                         _______ _______ _______ _____ _____    ______ ____
ROOT
ATOM      1  O   UNL     1      12.362   6.647   6.510  0.00  0.00    -0.274 OA
ATOM      4  N   UNL     1       9.267   7.404   4.311  0.00  0.00    -0.296 NA
ATOM      5  N   UNL     1       9.998   6.652   7.816  0.00  0.00    -0.293 NA
ATOM      6  N   UNL     1      11.544   5.658   4.616  0.00  0.00    -0.312 N 
ATOM      8  C   UNL     1       8.918   6.900   5.657  0.00  0.00    +0.084 C 
ATOM      9  C   UNL     1       9.992   6.098   6.450  0.00  0.00    +0.160 C 
ATOM     10  C   UNL     1       8.539   8.005   6.660  0.00  0.00    +0.036 C 
ATOM     11  C   UNL     1       9.553   6.339   3.308  0.00  0.00    +0.074 C 
ATOM     12  C   UNL     1       8.726   7.339   8.007  0.00  0.00    +0.086 C 
ATOM     13  C   UNL     1      10.427   5.180   3.826  0.00  0.00    +0.123 C 
ATOM     15  C   UNL     1      11.408   6.184   5.887  0.00  0.00    +0.232 C 
ATOM     16  C   UNL     1       8.225   8.313   3.805  0.00  0.00    +0.105 C 
ATOM     19  C   UNL     1      10.239   5.649   8.845  0.00  0.00    +0.105 C 
ATOM     26  H   UNL     1      12.476   5.614   4.216  0.00  0.00    +0.149 HD
ENDROOT
BRANCH  11  14
ATOM     14  C   UNL     1      10.260   6.937   2.074  0.00  0.00    +0.029 C 
BRANCH  14  17
ATOM     17  C   UNL     1      10.516   5.893   1.005  0.00  0.00    +0.097 C 
BRANCH  17  23
ATOM      2  O   UNL     1      12.809   6.448   1.326  0.00  0.00    -0.276 OA
ATOM      7  N   UNL     1      12.332   4.765  -0.189  0.00  0.00    -0.296 N 
ATOM     18  C   UNL     1      13.710   4.549  -0.637  0.00  0.00    +0.102 C 
ATOM     20  C   UNL     1      13.550   3.734  -1.924  0.00  0.00    +0.026 C 
ATOM     21  C   UNL     1      11.399   3.903  -0.910  0.00  0.00    +0.108 C 
ATOM     22  C   UNL     1      12.282   2.926  -1.674  0.00  0.00    +0.021 C 
ATOM     23  C   UNL     1      11.992   5.739   0.736  0.00  0.00    +0.216 C 
BRANCH  18  24
ATOM     24  C   UNL     1      14.530   3.808   0.417  0.00  0.00    +0.181 C 
BRANCH  24   3
ATOM      3  O   UNL     1      15.877   4.231   0.316  0.00  0.00    -0.381 OA
ATOM     25  C   UNL     1      15.973   5.624   0.034  0.00  0.00    +0.194 C 
ENDBRANCH  24   3
ENDBRANCH  18  24
ENDBRANCH  17  23
ENDBRANCH  14  17
ENDBRANCH  11  14
TORSDOF 5
ENDMDL
MODEL 5
REMARK VINA RESULT:      -5.4     25.590     28.584
REMARK  Name = 45361190
REMARK  8 active torsions:
REMARK  status: ('A' for Active; 'I' for Inactive)
REMARK    1  A    between atoms: O_3  and  C_24
REMARK    2  A    between atoms: O_3  and  C_25
REMARK    3  A    between atoms: N_4  and  C_16
REMARK    4  A    between atoms: N_5  and  C_19
REMARK    5  A    between atoms: C_11  and  C_14
REMARK    6  A    between atoms: C_14  and  C_17
REMARK    7  A    between atoms: C_17  and  C_23
REMARK    8  A    between atoms: C_18  and  C_24
REMARK                            x       y       z     vdW  Elec       q    Type
REMARK                         _______ _______ _______ _____ _____    ______ ____
ROOT
ATOM      1  O   UNL     1       8.237   8.797   4.013  0.00  0.00    -0.274 OA
ATOM      4  N   UNL     1       9.996   5.772   5.671  0.00  0.00    -0.296 NA
ATOM      5  N   UNL     1       9.025   9.185   6.567  0.00  0.00    -0.293 NA
ATOM      6  N   UNL     1      10.077   7.574   3.418  0.00  0.00    -0.312 N 
ATOM      8  C   UNL     1      10.120   7.022   6.453  0.00  0.00    +0.084 C 
ATOM      9  C   UNL     1       9.923   8.380   5.718  0.00  0.00    +0.160 C 
ATOM     10  C   UNL     1       9.114   7.136   7.613  0.00  0.00    +0.036 C 
ATOM     11  C   UNL     1      11.020   5.611   4.600  0.00  0.00    +0.074 C 
ATOM     12  C   UNL     1       9.085   8.621   7.910  0.00  0.00    +0.086 C 
ATOM     13  C   UNL     1      11.300   6.882   3.774  0.00  0.00    +0.123 C 
ATOM     15  C   UNL     1       9.307   8.277   4.325  0.00  0.00    +0.232 C 
ATOM     16  C   UNL     1       9.996   4.596   6.557  0.00  0.00    +0.105 C 
ATOM     19  C   UNL     1       9.340  10.607   6.555  0.00  0.00    +0.105 C 
ATOM     26  H   UNL     1       9.761   7.535   2.454  0.00  0.00    +0.149 HD
ENDROOT
BRANCH  11  14
ATOM     14  C   UNL     1      10.598   4.501   3.615  0.00  0.00    +0.029 C 
BRANCH  14  17
ATOM     17  C   UNL     1      11.629   4.289   2.524  0.00  0.00    +0.097 C 
BRANCH  17  23
ATOM      2  O   UNL     1       9.742   4.037   1.094  0.00  0.00    -0.276 OA
ATOM      7  N   UNL     1      11.833   3.932   0.110  0.00  0.00    -0.296 N 
ATOM     18  C   UNL     1      11.364   3.621  -1.243  0.00  0.00    +0.102 C 
ATOM     20  C   UNL     1      12.626   3.134  -1.962  0.00  0.00    +0.026 C 
ATOM     21  C   UNL     1      13.292   3.968   0.170  0.00  0.00    +0.108 C 
ATOM     22  C   UNL     1      13.743   3.917  -1.283  0.00  0.00    +0.021 C 
ATOM     23  C   UNL     1      10.970   4.073   1.184  0.00  0.00    +0.216 C 
BRANCH  18  24
ATOM     24  C   UNL     1      10.754   4.848  -1.918  0.00  0.00    +0.181 C 
BRANCH  24   3
ATOM      3  O   UNL     1       9.373   4.611  -2.116  0.00  0.00    -0.381 OA
ATOM     25  C   UNL     1       8.734   5.712  -2.753  0.00  0.00    +0.194 C 
ENDBRANCH  24   3
ENDBRANCH  18  24
ENDBRANCH  17  23
ENDBRANCH  14  17
ENDBRANCH  11  14
TORSDOF 5
ENDMDL
MODEL 6
REMARK VINA RESULT:      -5.3      2.236      8.162
REMARK  Name = 45361190
REMARK  8 active torsions:
REMARK  status: ('A' for Active; 'I' for Inactive)
REMARK    1  A    between atoms: O_3  and  C_24
REMARK    2  A    between atoms: O_3  and  C_25
REMARK    3  A    between atoms: N_4  and  C_16
REMARK    4  A    between atoms: N_5  and  C_19
REMARK    5  A    between atoms: C_11  and  C_14
REMARK    6  A    between atoms: C_14  and  C_17
REMARK    7  A    between atoms: C_17  and  C_23
REMARK    8  A    between atoms: C_18  and  C_24
REMARK                            x       y       z     vdW  Elec       q    Type
REMARK                         _______ _______ _______ _____ _____    ______ ____
ROOT
ATOM      1  O   UNL     1     -10.969 -10.901  16.202  0.00  0.00    -0.274 OA
ATOM      4  N   UNL     1      -8.107 -11.372  18.767  0.00  0.00    -0.296 NA
ATOM      5  N   UNL     1     -11.709 -10.726  18.793  0.00  0.00    -0.293 NA
ATOM      6  N   UNL     1      -8.971  -9.824  16.489  0.00  0.00    -0.312 N 
ATOM      8  C   UNL     1      -9.355 -10.856  19.371  0.00  0.00    +0.084 C 
ATOM      9  C   UNL     1     -10.394 -10.156  18.446  0.00  0.00    +0.160 C 
ATOM     10  C   UNL     1     -10.212 -11.938  20.054  0.00  0.00    +0.036 C 
ATOM     11  C   UNL     1      -7.228 -10.322  18.178  0.00  0.00    +0.074 C 
ATOM     12  C   UNL     1     -11.587 -11.307  20.125  0.00  0.00    +0.086 C 
ATOM     13  C   UNL     1      -7.965  -9.245  17.356  0.00  0.00    +0.123 C 
ATOM     15  C   UNL     1     -10.162 -10.353  16.950  0.00  0.00    +0.232 C 
ATOM     16  C   UNL     1      -7.352 -12.185  19.735  0.00  0.00    +0.105 C 
ATOM     19  C   UNL     1     -12.796  -9.759  18.715  0.00  0.00    +0.105 C 
ATOM     26  H   UNL     1      -8.792  -9.853  15.490  0.00  0.00    +0.149 HD
ENDROOT
BRANCH  11  14
ATOM     14  C   UNL     1      -6.166 -10.961  17.259  0.00  0.00    +0.029 C 
BRANCH  14  17
ATOM     17  C   UNL     1      -5.345  -9.918  16.529  0.00  0.00    +0.097 C 
BRANCH  17  23
ATOM      2  O   UNL     1      -5.668 -10.525  14.249  0.00  0.00    -0.276 OA
ATOM      7  N   UNL     1      -3.535 -10.765  15.113  0.00  0.00    -0.296 N 
ATOM     18  C   UNL     1      -2.939 -11.366  13.918  0.00  0.00    +0.102 C 
ATOM     20  C   UNL     1      -1.618 -11.951  14.426  0.00  0.00    +0.026 C 
ATOM     21  C   UNL     1      -2.563 -10.668  16.199  0.00  0.00    +0.108 C 
ATOM     22  C   UNL     1      -1.225 -11.006  15.556  0.00  0.00    +0.021 C 
ATOM     23  C   UNL     1      -4.877 -10.431  15.189  0.00  0.00    +0.216 C 
BRANCH  18  24
ATOM     24  C   UNL     1      -2.724 -10.329  12.818  0.00  0.00    +0.181 C 
BRANCH  24   3
ATOM      3  O   UNL     1      -3.508 -10.694  11.698  0.00  0.00    -0.381 OA
ATOM     25  C   UNL     1      -3.126  -9.976  10.529  0.00  0.00    +0.194 C 
ENDBRANCH  24   3
ENDBRANCH  18  24
ENDBRANCH  17  23
ENDBRANCH  14  17
ENDBRANCH  11  14
TORSDOF 5
ENDMDL
MODEL 7
REMARK VINA RESULT:      -5.3      1.404      2.045
REMARK  Name = 45361190
REMARK  8 active torsions:
REMARK  status: ('A' for Active; 'I' for Inactive)
REMARK    1  A    between atoms: O_3  and  C_24
REMARK    2  A    between atoms: O_3  and  C_25
REMARK    3  A    between atoms: N_4  and  C_16
REMARK    4  A    between atoms: N_5  and  C_19
REMARK    5  A    between atoms: C_11  and  C_14
REMARK    6  A    between atoms: C_14  and  C_17
REMARK    7  A    between atoms: C_17  and  C_23
REMARK    8  A    between atoms: C_18  and  C_24
REMARK                            x       y       z     vdW  Elec       q    Type
REMARK                         _______ _______ _______ _____ _____    ______ ____
ROOT
ATOM      1  O   UNL     1      -1.079 -10.605  15.219  0.00  0.00    -0.274 OA
ATOM      4  N   UNL     1      -4.190 -12.793  15.948  0.00  0.00    -0.296 NA
ATOM      5  N   UNL     1      -2.279 -11.657  13.041  0.00  0.00    -0.293 NA
ATOM      6  N   UNL     1      -3.028 -10.179  16.338  0.00  0.00    -0.312 N 
ATOM      8  C   UNL     1      -4.033 -12.458  14.515  0.00  0.00    +0.084 C 
ATOM      9  C   UNL     1      -3.168 -11.220  14.133  0.00  0.00    +0.160 C 
ATOM     10  C   UNL     1      -3.381 -13.574  13.680  0.00  0.00    +0.036 C 
ATOM     11  C   UNL     1      -4.896 -11.754  16.750  0.00  0.00    +0.074 C 
ATOM     12  C   UNL     1      -2.879 -12.848  12.450  0.00  0.00    +0.086 C 
ATOM     13  C   UNL     1      -4.468 -10.303  16.454  0.00  0.00    +0.123 C 
ATOM     15  C   UNL     1      -2.306 -10.661  15.262  0.00  0.00    +0.232 C 
ATOM     16  C   UNL     1      -4.848 -14.099  16.112  0.00  0.00    +0.105 C 
ATOM     19  C   UNL     1      -2.029 -10.620  12.049  0.00  0.00    +0.105 C 
ATOM     26  H   UNL     1      -2.519  -9.723  17.088  0.00  0.00    +0.149 HD
ENDROOT
BRANCH  11  14
ATOM     14  C   UNL     1      -4.685 -12.002  18.258  0.00  0.00    +0.029 C 
BRANCH  14  17
ATOM     17  C   UNL     1      -5.980 -12.353  18.963  0.00  0.00    +0.097 C 
BRANCH  17  23
ATOM      2  O   UNL     1      -6.655 -10.158  19.593  0.00  0.00    -0.276 OA
ATOM      7  N   UNL     1      -8.095 -11.355  18.235  0.00  0.00    -0.296 N 
ATOM     18  C   UNL     1      -9.168 -10.359  18.211  0.00  0.00    +0.102 C 
ATOM     20  C   UNL     1     -10.373 -11.136  17.672  0.00  0.00    +0.026 C 
ATOM     21  C   UNL     1      -8.464 -12.550  17.480  0.00  0.00    +0.108 C 
ATOM     22  C   UNL     1      -9.742 -12.169  16.746  0.00  0.00    +0.021 C 
ATOM     23  C   UNL     1      -6.933 -11.183  18.969  0.00  0.00    +0.216 C 
BRANCH  18  24
ATOM     24  C   UNL     1      -8.806  -9.170  17.324  0.00  0.00    +0.181 C 
BRANCH  24   3
ATOM      3  O   UNL     1      -9.970  -8.756  16.632  0.00  0.00    -0.381 OA
ATOM     25  C   UNL     1     -10.434  -7.490  17.090  0.00  0.00    +0.194 C 
ENDBRANCH  24   3
ENDBRANCH  18  24
ENDBRANCH  17  23
ENDBRANCH  14  17
ENDBRANCH  11  14
TORSDOF 5
ENDMDL
MODEL 8
REMARK VINA RESULT:      -5.3      2.396      7.950
REMARK  Name = 45361190
REMARK  8 active torsions:
REMARK  status: ('A' for Active; 'I' for Inactive)
REMARK    1  A    between atoms: O_3  and  C_24
REMARK    2  A    between atoms: O_3  and  C_25
REMARK    3  A    between atoms: N_4  and  C_16
REMARK    4  A    between atoms: N_5  and  C_19
REMARK    5  A    between atoms: C_11  and  C_14
REMARK    6  A    between atoms: C_14  and  C_17
REMARK    7  A    between atoms: C_17  and  C_23
REMARK    8  A    between atoms: C_18  and  C_24
REMARK                            x       y       z     vdW  Elec       q    Type
REMARK                         _______ _______ _______ _____ _____    ______ ____
ROOT
ATOM      1  O   UNL     1     -10.142  -9.911  14.649  0.00  0.00    -0.274 OA
ATOM      4  N   UNL     1      -8.964 -10.756  18.239  0.00  0.00    -0.296 NA
ATOM      5  N   UNL     1     -11.757  -9.028  16.625  0.00  0.00    -0.293 NA
ATOM      6  N   UNL     1      -8.195  -9.476  15.769  0.00  0.00    -0.312 N 
ATOM      8  C   UNL     1     -10.069  -9.774  18.203  0.00  0.00    +0.084 C 
ATOM      9  C   UNL     1     -10.306  -8.973  16.888  0.00  0.00    +0.160 C 
ATOM     10  C   UNL     1     -11.458 -10.386  18.460  0.00  0.00    +0.036 C 
ATOM     11  C   UNL     1      -7.606 -10.164  18.075  0.00  0.00    +0.074 C 
ATOM     12  C   UNL     1     -12.409  -9.356  17.888  0.00  0.00    +0.086 C 
ATOM     13  C   UNL     1      -7.497  -9.087  16.977  0.00  0.00    +0.123 C 
ATOM     15  C   UNL     1      -9.573  -9.510  15.663  0.00  0.00    +0.232 C 
ATOM     16  C   UNL     1      -9.021 -11.566  19.467  0.00  0.00    +0.105 C 
ATOM     19  C   UNL     1     -12.284  -7.804  16.038  0.00  0.00    +0.105 C 
ATOM     26  H   UNL     1      -7.648  -9.747  14.958  0.00  0.00    +0.149 HD
ENDROOT
BRANCH  11  14
ATOM     14  C   UNL     1      -6.573 -11.263  17.751  0.00  0.00    +0.029 C 
BRANCH  14  17
ATOM     17  C   UNL     1      -5.246 -10.682  17.306  0.00  0.00    +0.097 C 
BRANCH  17  23
ATOM      2  O   UNL     1      -5.822 -11.369  15.100  0.00  0.00    -0.276 OA
ATOM      7  N   UNL     1      -3.572 -11.108  15.570  0.00  0.00    -0.296 N 
ATOM     18  C   UNL     1      -3.076 -11.570  14.272  0.00  0.00    +0.102 C 
ATOM     20  C   UNL     1      -1.588 -11.833  14.523  0.00  0.00    +0.026 C 
ATOM     21  C   UNL     1      -2.470 -10.783  16.473  0.00  0.00    +0.108 C 
ATOM     22  C   UNL     1      -1.226 -10.814  15.597  0.00  0.00    +0.021 C 
ATOM     23  C   UNL     1      -4.919 -11.088  15.890  0.00  0.00    +0.216 C 
BRANCH  18  24
ATOM     24  C   UNL     1      -3.299 -10.521  13.184  0.00  0.00    +0.181 C 
BRANCH  24   3
ATOM      3  O   UNL     1      -2.344 -10.727  12.160  0.00  0.00    -0.381 OA
ATOM     25  C   UNL     1      -2.702 -10.049  10.960  0.00  0.00    +0.194 C 
ENDBRANCH  24   3
ENDBRANCH  18  24
ENDBRANCH  17  23
ENDBRANCH  14  17
ENDBRANCH  11  14
TORSDOF 5
ENDMDL
MODEL 9
REMARK VINA RESULT:      -5.1      3.499      7.829
REMARK  Name = 45361190
REMARK  8 active torsions:
REMARK  status: ('A' for Active; 'I' for Inactive)
REMARK    1  A    between atoms: O_3  and  C_24
REMARK    2  A    between atoms: O_3  and  C_25
REMARK    3  A    between atoms: N_4  and  C_16
REMARK    4  A    between atoms: N_5  and  C_19
REMARK    5  A    between atoms: C_11  and  C_14
REMARK    6  A    between atoms: C_14  and  C_17
REMARK    7  A    between atoms: C_17  and  C_23
REMARK    8  A    between atoms: C_18  and  C_24
REMARK                            x       y       z     vdW  Elec       q    Type
REMARK                         _______ _______ _______ _____ _____    ______ ____
ROOT
ATOM      1  O   UNL     1      -5.797 -13.920  15.854  0.00  0.00    -0.274 OA
ATOM      4  N   UNL     1      -3.021 -11.221  15.810  0.00  0.00    -0.296 NA
ATOM      5  N   UNL     1      -5.820 -12.215  17.948  0.00  0.00    -0.293 NA
ATOM      6  N   UNL     1      -5.221 -12.334  14.309  0.00  0.00    -0.312 N 
ATOM      8  C   UNL     1      -4.069 -10.966  16.824  0.00  0.00    +0.084 C 
ATOM      9  C   UNL     1      -5.460 -11.641  16.638  0.00  0.00    +0.160 C 
ATOM     10  C   UNL     1      -3.683 -11.411  18.246  0.00  0.00    +0.036 C 
ATOM     11  C   UNL     1      -3.348 -10.717  14.446  0.00  0.00    +0.074 C 
ATOM     12  C   UNL     1      -5.017 -11.527  18.953  0.00  0.00    +0.086 C 
ATOM     13  C   UNL     1      -4.794 -10.988  13.984  0.00  0.00    +0.123 C 
ATOM     15  C   UNL     1      -5.504 -12.754  15.595  0.00  0.00    +0.232 C 
ATOM     16  C   UNL     1      -1.722 -10.687  16.253  0.00  0.00    +0.105 C 
ATOM     19  C   UNL     1      -7.245 -12.141  18.240  0.00  0.00    +0.105 C 
ATOM     26  H   UNL     1      -5.309 -13.010  13.557  0.00  0.00    +0.149 HD
ENDROOT
BRANCH  11  14
ATOM     14  C   UNL     1      -2.402 -11.343  13.400  0.00  0.00    +0.029 C 
BRANCH  14  17
ATOM     17  C   UNL     1      -2.361 -10.537  12.117  0.00  0.00    +0.097 C 
BRANCH  17  23
ATOM      2  O   UNL     1      -3.040 -12.447  10.869  0.00  0.00    -0.276 OA
ATOM      7  N   UNL     1      -3.899 -10.400  10.217  0.00  0.00    -0.296 N 
ATOM     18  C   UNL     1      -4.627 -10.891   9.044  0.00  0.00    +0.102 C 
ATOM     20  C   UNL     1      -4.948  -9.617   8.257  0.00  0.00    +0.026 C 
ATOM     21  C   UNL     1      -4.028  -8.951  10.352  0.00  0.00    +0.108 C 
ATOM     22  C   UNL     1      -5.098  -8.559   9.344  0.00  0.00    +0.021 C 
ATOM     23  C   UNL     1      -3.124 -11.226  11.014  0.00  0.00    +0.216 C 
BRANCH  18  24
ATOM     24  C   UNL     1      -5.887 -11.653   9.448  0.00  0.00    +0.181 C 
BRANCH  24   3
ATOM      3  O   UNL     1      -6.234 -12.534   8.397  0.00  0.00    -0.381 OA
ATOM     25  C   UNL     1      -5.141 -13.369   8.026  0.00  0.00    +0.194 C 
ENDBRANCH  24   3
ENDBRANCH  18  24
ENDBRANCH  17  23
ENDBRANCH  14  17
ENDBRANCH  11  14
TORSDOF 5
ENDMDL
MODEL 10
REMARK VINA RESULT:      -5.1      4.691      8.238
REMARK  Name = 45361190
REMARK  8 active torsions:
REMARK  status: ('A' for Active; 'I' for Inactive)
REMARK    1  A    between atoms: O_3  and  C_24
REMARK    2  A    between atoms: O_3  and  C_25
REMARK    3  A    between atoms: N_4  and  C_16
REMARK    4  A    between atoms: N_5  and  C_19
REMARK    5  A    between atoms: C_11  and  C_14
REMARK    6  A    between atoms: C_14  and  C_17
REMARK    7  A    between atoms: C_17  and  C_23
REMARK    8  A    between atoms: C_18  and  C_24
REMARK                            x       y       z     vdW  Elec       q    Type
REMARK                         _______ _______ _______ _____ _____    ______ ____
ROOT
ATOM      1  O   UNL     1      -1.836 -10.433  16.343  0.00  0.00    -0.274 OA
ATOM      4  N   UNL     1      -4.618 -10.395  13.650  0.00  0.00    -0.296 NA
ATOM      5  N   UNL     1      -4.345 -10.787  17.278  0.00  0.00    -0.293 NA
ATOM      6  N   UNL     1      -2.152 -11.668  14.444  0.00  0.00    -0.312 N 
ATOM      8  C   UNL     1      -5.087 -10.874  14.968  0.00  0.00    +0.084 C 
ATOM      9  C   UNL     1      -4.033 -11.414  15.980  0.00  0.00    +0.160 C 
ATOM     10  C   UNL     1      -5.810  -9.800  15.802  0.00  0.00    +0.036 C 
ATOM     11  C   UNL     1      -3.992 -11.447  12.799  0.00  0.00    +0.074 C 
ATOM     12  C   UNL     1      -5.731 -10.337  17.215  0.00  0.00    +0.086 C 
ATOM     13  C   UNL     1      -3.026 -12.392  13.542  0.00  0.00    +0.123 C 
ATOM     15  C   UNL     1      -2.582 -11.101  15.629  0.00  0.00    +0.232 C 
ATOM     16  C   UNL     1      -5.705  -9.727  12.916  0.00  0.00    +0.105 C 
ATOM     19  C   UNL     1      -4.105 -11.664  18.416  0.00  0.00    +0.105 C 
ATOM     26  H   UNL     1      -1.175 -11.563  14.192  0.00  0.00    +0.149 HD
ENDROOT
BRANCH  11  14
ATOM     14  C   UNL     1      -3.209 -10.804  11.635  0.00  0.00    +0.029 C 
BRANCH  14  17
ATOM     17  C   UNL     1      -3.687 -11.302  10.286  0.00  0.00    +0.097 C 
BRANCH  17  23
ATOM      2  O   UNL     1      -3.780  -9.203   9.165  0.00  0.00    -0.276 OA
ATOM      7  N   UNL     1      -5.735 -10.437   9.258  0.00  0.00    -0.296 N 
ATOM     18  C   UNL     1      -6.591  -9.441   8.610  0.00  0.00    +0.102 C 
ATOM     20  C   UNL     1      -8.011  -9.921   8.926  0.00  0.00    +0.026 C 
ATOM     21  C   UNL     1      -6.501 -11.615   9.658  0.00  0.00    +0.108 C 
ATOM     22  C   UNL     1      -7.862 -11.437   9.000  0.00  0.00    +0.021 C 
ATOM     23  C   UNL     1      -4.394 -10.211   9.520  0.00  0.00    +0.216 C 
BRANCH  18  24
ATOM     24  C   UNL     1      -6.328  -9.371   7.107  0.00  0.00    +0.181 C 
BRANCH  24   3
ATOM      3  O   UNL     1      -7.458  -8.792   6.481  0.00  0.00    -0.381 OA
ATOM     25  C   UNL     1      -7.216  -8.518   5.105  0.00  0.00    +0.194 C 
ENDBRANCH  24   3
ENDBRANCH  18  24
ENDBRANCH  17  23
ENDBRANCH  14  17
ENDBRANCH  11  14
TORSDOF 5
ENDMDL
