MODEL 1
REMARK VINA RESULT:      -6.9      0.000      0.000
REMARK  Name = 71693987
REMARK  8 active torsions:
REMARK  status: ('A' for Active; 'I' for Inactive)
REMARK    1  A    between atoms: O_4  and  C_12
REMARK    2  A    between atoms: O_5  and  C_14
REMARK    3  A    between atoms: O_7  and  C_20
REMARK    4  A    between atoms: O_7  and  C_23
REMARK    5  A    between atoms: N_8  and  C_11
REMARK    6  A    between atoms: C_10  and  C_15
REMARK    7  A    between atoms: C_18  and  C_20
REMARK    8  A    between atoms: C_21  and  C_22
REMARK                            x       y       z     vdW  Elec       q    Type
REMARK                         _______ _______ _______ _____ _____    ______ ____
ROOT
ATOM     10  C   UNL     1      13.681   8.942  18.803  0.00  0.00    +0.046 C 
ATOM     11  C   UNL     1      12.541   7.933  18.534  0.00  0.00    +0.111 C 
ATOM     12  C   UNL     1      11.750   8.583  17.400  0.00  0.00    +0.164 C 
ATOM     13  C   UNL     1      13.838   9.759  17.494  0.00  0.00    +0.044 C 
ATOM     14  C   UNL     1      12.839   9.162  16.505  0.00  0.00    +0.145 C 
ENDROOT
BRANCH  10  15
ATOM      9  N   UNL     1      16.428   6.366  19.250  0.00  0.00    -0.251 NA
ATOM     15  C   UNL     1      14.956   8.282  19.284  0.00  0.00    -0.024 A 
ATOM     16  C   UNL     1      15.810   8.934  20.166  0.00  0.00    +0.007 A 
ATOM     17  C   UNL     1      15.307   7.011  18.859  0.00  0.00    +0.115 A 
ATOM     19  C   UNL     1      16.975   8.302  20.591  0.00  0.00    +0.032 A 
ATOM     21  C   UNL     1      17.235   7.030  20.108  0.00  0.00    +0.144 A 
BRANCH  21  22
ATOM      1  F   UNL     1      18.650   5.108  19.942  0.00  0.00    -0.164 F 
ATOM      2  F   UNL     1      19.621   7.018  20.281  0.00  0.00    -0.164 F 
ATOM      3  F   UNL     1      18.494   6.074  21.884  0.00  0.00    -0.164 F 
ATOM     22  C   UNL     1      18.476   6.322  20.542  0.00  0.00    +0.434 C 
ENDBRANCH  21  22
ENDBRANCH  10  15
BRANCH  11   8
ATOM      6  O   UNL     1      11.615   9.925  20.415  0.00  0.00    -0.273 OA
ATOM      8  N   UNL     1      11.726   7.714  19.702  0.00  0.00    -0.307 N 
ATOM     18  C   UNL     1      11.329   8.740  20.551  0.00  0.00    +0.239 C 
ATOM     24  H   UNL     1      11.386   6.773  19.880  0.00  0.00    +0.149 HD
BRANCH  18  20
ATOM     20  C   UNL     1      10.481   8.227  21.695  0.00  0.00    +0.255 C 
BRANCH  20   7
ATOM      7  O   UNL     1      11.050   8.584  22.936  0.00  0.00    -0.374 OA
ATOM     23  C   UNL     1      10.730   9.923  23.301  0.00  0.00    +0.194 C 
ENDBRANCH  20   7
ENDBRANCH  18  20
ENDBRANCH  11   8
BRANCH  12   4
ATOM      4  O   UNL     1      10.953   7.649  16.697  0.00  0.00    -0.387 OA
ATOM     25  H   UNL     1      10.213   8.137  16.298  0.00  0.00    +0.210 HD
ENDBRANCH  12   4
BRANCH  14   5
ATOM      5  O   UNL     1      13.489   8.134  15.763  0.00  0.00    -0.389 OA
ATOM     26  H   UNL     1      12.806   7.660  15.260  0.00  0.00    +0.210 HD
ENDBRANCH  14   5
TORSDOF 7
ENDMDL
MODEL 2
REMARK VINA RESULT:      -6.9      4.993      7.089
REMARK  Name = 71693987
REMARK  8 active torsions:
REMARK  status: ('A' for Active; 'I' for Inactive)
REMARK    1  A    between atoms: O_4  and  C_12
REMARK    2  A    between atoms: O_5  and  C_14
REMARK    3  A    between atoms: O_7  and  C_20
REMARK    4  A    between atoms: O_7  and  C_23
REMARK    5  A    between atoms: N_8  and  C_11
REMARK    6  A    between atoms: C_10  and  C_15
REMARK    7  A    between atoms: C_18  and  C_20
REMARK    8  A    between atoms: C_21  and  C_22
REMARK                            x       y       z     vdW  Elec       q    Type
REMARK                         _______ _______ _______ _____ _____    ______ ____
ROOT
ATOM     10  C   UNL     1      13.302   9.337  20.474  0.00  0.00    +0.046 C 
ATOM     11  C   UNL     1      12.489   8.536  19.431  0.00  0.00    +0.111 C 
ATOM     12  C   UNL     1      12.989   7.103  19.615  0.00  0.00    +0.164 C 
ATOM     13  C   UNL     1      13.741   8.308  21.548  0.00  0.00    +0.044 C 
ATOM     14  C   UNL     1      13.124   6.975  21.128  0.00  0.00    +0.145 C 
ENDROOT
BRANCH  10  15
ATOM      9  N   UNL     1      10.892  11.399  22.554  0.00  0.00    -0.251 NA
ATOM     15  C   UNL     1      12.549  10.530  21.023  0.00  0.00    -0.024 A 
ATOM     16  C   UNL     1      12.788  11.811  20.541  0.00  0.00    +0.007 A 
ATOM     17  C   UNL     1      11.599  10.378  22.021  0.00  0.00    +0.115 A 
ATOM     19  C   UNL     1      12.081  12.889  21.066  0.00  0.00    +0.032 A 
ATOM     21  C   UNL     1      11.152  12.631  22.061  0.00  0.00    +0.144 A 
BRANCH  21  22
ATOM      1  F   UNL     1       9.866  13.493  23.885  0.00  0.00    -0.164 F 
ATOM      2  F   UNL     1      11.105  14.905  22.802  0.00  0.00    -0.164 F 
ATOM      3  F   UNL     1       9.302  14.114  21.879  0.00  0.00    -0.164 F 
ATOM     22  C   UNL     1      10.374  13.762  22.647  0.00  0.00    +0.434 C 
ENDBRANCH  21  22
ENDBRANCH  10  15
BRANCH  11   8
ATOM      6  O   UNL     1      10.885   7.977  17.090  0.00  0.00    -0.273 OA
ATOM      8  N   UNL     1      12.710   9.014  18.090  0.00  0.00    -0.307 N 
ATOM     18  C   UNL     1      11.881   8.691  17.024  0.00  0.00    +0.239 C 
ATOM     24  H   UNL     1      13.479   9.660  17.933  0.00  0.00    +0.149 HD
BRANCH  18  20
ATOM     20  C   UNL     1      12.347   9.331  15.734  0.00  0.00    +0.255 C 
BRANCH  20   7
ATOM      7  O   UNL     1      13.518   8.701  15.261  0.00  0.00    -0.374 OA
ATOM     23  C   UNL     1      14.624   9.598  15.221  0.00  0.00    +0.194 C 
ENDBRANCH  20   7
ENDBRANCH  18  20
ENDBRANCH  11   8
BRANCH  12   4
ATOM      4  O   UNL     1      12.080   6.148  19.101  0.00  0.00    -0.387 OA
ATOM     25  H   UNL     1      12.489   5.272  19.202  0.00  0.00    +0.210 HD
ENDBRANCH  12   4
BRANCH  14   5
ATOM      5  O   UNL     1      11.847   6.849  21.746  0.00  0.00    -0.389 OA
ATOM     26  H   UNL     1      11.178   6.880  21.041  0.00  0.00    +0.210 HD
ENDBRANCH  14   5
TORSDOF 7
ENDMDL
MODEL 3
REMARK VINA RESULT:      -6.8      1.637      2.105
REMARK  Name = 71693987
REMARK  8 active torsions:
REMARK  status: ('A' for Active; 'I' for Inactive)
REMARK    1  A    between atoms: O_4  and  C_12
REMARK    2  A    between atoms: O_5  and  C_14
REMARK    3  A    between atoms: O_7  and  C_20
REMARK    4  A    between atoms: O_7  and  C_23
REMARK    5  A    between atoms: N_8  and  C_11
REMARK    6  A    between atoms: C_10  and  C_15
REMARK    7  A    between atoms: C_18  and  C_20
REMARK    8  A    between atoms: C_21  and  C_22
REMARK                            x       y       z     vdW  Elec       q    Type
REMARK                         _______ _______ _______ _____ _____    ______ ____
ROOT
ATOM     10  C   UNL     1      14.060   8.758  19.213  0.00  0.00    +0.046 C 
ATOM     11  C   UNL     1      12.960   8.699  20.298  0.00  0.00    +0.111 C 
ATOM     12  C   UNL     1      11.673   8.537  19.490  0.00  0.00    +0.164 C 
ATOM     13  C   UNL     1      13.462   8.056  17.966  0.00  0.00    +0.044 C 
ATOM     14  C   UNL     1      12.077   7.567  18.386  0.00  0.00    +0.145 C 
ENDROOT
BRANCH  10  15
ATOM      9  N   UNL     1      16.957   6.350  19.662  0.00  0.00    -0.251 NA
ATOM     15  C   UNL     1      15.382   8.184  19.679  0.00  0.00    -0.024 A 
ATOM     16  C   UNL     1      16.222   8.909  20.517  0.00  0.00    +0.007 A 
ATOM     17  C   UNL     1      15.792   6.921  19.284  0.00  0.00    +0.115 A 
ATOM     19  C   UNL     1      17.431   8.355  20.928  0.00  0.00    +0.032 A 
ATOM     21  C   UNL     1      17.748   7.084  20.477  0.00  0.00    +0.144 A 
BRANCH  21  22
ATOM      1  F   UNL     1      19.247   5.224  20.356  0.00  0.00    -0.164 F 
ATOM      2  F   UNL     1      20.137   7.192  20.555  0.00  0.00    -0.164 F 
ATOM      3  F   UNL     1      19.118   6.286  22.249  0.00  0.00    -0.164 F 
ATOM     22  C   UNL     1      19.036   6.459  20.898  0.00  0.00    +0.434 C 
ENDBRANCH  21  22
ENDBRANCH  10  15
BRANCH  11   8
ATOM      6  O   UNL     1      11.527   9.094  22.779  0.00  0.00    -0.273 OA
ATOM      8  N   UNL     1      12.939   9.889  21.111  0.00  0.00    -0.307 N 
ATOM     18  C   UNL     1      12.217   9.985  22.293  0.00  0.00    +0.239 C 
ATOM     24  H   UNL     1      13.522  10.672  20.829  0.00  0.00    +0.149 HD
BRANCH  18  20
ATOM     20  C   UNL     1      12.376  11.344  22.941  0.00  0.00    +0.255 C 
BRANCH  20   7
ATOM      7  O   UNL     1      11.885  11.325  24.264  0.00  0.00    -0.374 OA
ATOM     23  C   UNL     1      10.781  12.208  24.434  0.00  0.00    +0.194 C 
ENDBRANCH  20   7
ENDBRANCH  18  20
ENDBRANCH  11   8
BRANCH  12   4
ATOM      4  O   UNL     1      10.614   8.013  20.268  0.00  0.00    -0.387 OA
ATOM     25  H   UNL     1       9.897   7.767  19.658  0.00  0.00    +0.210 HD
ENDBRANCH  12   4
BRANCH  14   5
ATOM      5  O   UNL     1      12.194   6.240  18.890  0.00  0.00    -0.389 OA
ATOM     26  H   UNL     1      11.698   5.656  18.292  0.00  0.00    +0.210 HD
ENDBRANCH  14   5
TORSDOF 7
ENDMDL
MODEL 4
REMARK VINA RESULT:      -6.6      3.961      6.015
REMARK  Name = 71693987
REMARK  8 active torsions:
REMARK  status: ('A' for Active; 'I' for Inactive)
REMARK    1  A    between atoms: O_4  and  C_12
REMARK    2  A    between atoms: O_5  and  C_14
REMARK    3  A    between atoms: O_7  and  C_20
REMARK    4  A    between atoms: O_7  and  C_23
REMARK    5  A    between atoms: N_8  and  C_11
REMARK    6  A    between atoms: C_10  and  C_15
REMARK    7  A    between atoms: C_18  and  C_20
REMARK    8  A    between atoms: C_21  and  C_22
REMARK                            x       y       z     vdW  Elec       q    Type
REMARK                         _______ _______ _______ _____ _____    ______ ____
ROOT
ATOM     10  C   UNL     1      13.169   9.122  20.545  0.00  0.00    +0.046 C 
ATOM     11  C   UNL     1      13.292   7.586  20.677  0.00  0.00    +0.111 C 
ATOM     12  C   UNL     1      12.256   7.237  21.744  0.00  0.00    +0.164 C 
ATOM     13  C   UNL     1      11.747   9.476  21.052  0.00  0.00    +0.044 C 
ATOM     14  C   UNL     1      11.082   8.145  21.398  0.00  0.00    +0.145 C 
ENDROOT
BRANCH  10  15
ATOM      9  N   UNL     1      14.913  10.903  17.686  0.00  0.00    -0.251 NA
ATOM     15  C   UNL     1      13.477   9.623  19.150  0.00  0.00    -0.024 A 
ATOM     16  C   UNL     1      12.659   9.295  18.075  0.00  0.00    +0.007 A 
ATOM     17  C   UNL     1      14.582  10.422  18.905  0.00  0.00    +0.115 A 
ATOM     19  C   UNL     1      12.968   9.771  16.803  0.00  0.00    +0.032 A 
ATOM     21  C   UNL     1      14.095  10.564  16.664  0.00  0.00    +0.144 A 
BRANCH  21  22
ATOM      1  F   UNL     1      15.266  10.256  14.601  0.00  0.00    -0.164 F 
ATOM      2  F   UNL     1      13.378  11.319  14.511  0.00  0.00    -0.164 F 
ATOM      3  F   UNL     1      15.123  12.281  15.381  0.00  0.00    -0.164 F 
ATOM     22  C   UNL     1      14.457  11.092  15.316  0.00  0.00    +0.434 C 
ENDBRANCH  21  22
ENDBRANCH  10  15
BRANCH  11   8
ATOM      6  O   UNL     1      15.326   6.422  18.982  0.00  0.00    -0.273 OA
ATOM      8  N   UNL     1      14.620   7.182  21.064  0.00  0.00    -0.307 N 
ATOM     18  C   UNL     1      15.533   6.630  20.174  0.00  0.00    +0.239 C 
ATOM     24  H   UNL     1      14.916   7.360  22.020  0.00  0.00    +0.149 HD
BRANCH  18  20
ATOM     20  C   UNL     1      16.847   6.301  20.849  0.00  0.00    +0.255 C 
BRANCH  20   7
ATOM      7  O   UNL     1      17.881   6.188  19.895  0.00  0.00    -0.374 OA
ATOM     23  C   UNL     1      19.170   6.267  20.496  0.00  0.00    +0.194 C 
ENDBRANCH  20   7
ENDBRANCH  18  20
ENDBRANCH  11   8
BRANCH  12   4
ATOM      4  O   UNL     1      11.878   5.874  21.699  0.00  0.00    -0.387 OA
ATOM     25  H   UNL     1      12.047   5.554  20.797  0.00  0.00    +0.210 HD
ENDBRANCH  12   4
BRANCH  14   5
ATOM      5  O   UNL     1      10.390   7.668  20.248  0.00  0.00    -0.389 OA
ATOM     26  H   UNL     1      10.004   8.439  19.799  0.00  0.00    +0.210 HD
ENDBRANCH  14   5
TORSDOF 7
ENDMDL
MODEL 5
REMARK VINA RESULT:      -6.5     13.257     16.111
REMARK  Name = 71693987
REMARK  8 active torsions:
REMARK  status: ('A' for Active; 'I' for Inactive)
REMARK    1  A    between atoms: O_4  and  C_12
REMARK    2  A    between atoms: O_5  and  C_14
REMARK    3  A    between atoms: O_7  and  C_20
REMARK    4  A    between atoms: O_7  and  C_23
REMARK    5  A    between atoms: N_8  and  C_11
REMARK    6  A    between atoms: C_10  and  C_15
REMARK    7  A    between atoms: C_18  and  C_20
REMARK    8  A    between atoms: C_21  and  C_22
REMARK                            x       y       z     vdW  Elec       q    Type
REMARK                         _______ _______ _______ _____ _____    ______ ____
ROOT
ATOM     10  C   UNL     1      11.839   7.213   4.700  0.00  0.00    +0.046 C 
ATOM     11  C   UNL     1      12.353   6.152   3.700  0.00  0.00    +0.111 C 
ATOM     12  C   UNL     1      13.567   6.824   3.061  0.00  0.00    +0.164 C 
ATOM     13  C   UNL     1      13.055   8.124   5.011  0.00  0.00    +0.044 C 
ATOM     14  C   UNL     1      14.231   7.530   4.238  0.00  0.00    +0.145 C 
ENDROOT
BRANCH  10  15
ATOM      9  N   UNL     1      11.372   5.890   8.224  0.00  0.00    -0.251 NA
ATOM     15  C   UNL     1      11.184   6.606   5.923  0.00  0.00    -0.024 A 
ATOM     16  C   UNL     1       9.851   6.213   5.901  0.00  0.00    +0.007 A 
ATOM     17  C   UNL     1      11.895   6.425   7.098  0.00  0.00    +0.115 A 
ATOM     19  C   UNL     1       9.276   5.658   7.041  0.00  0.00    +0.032 A 
ATOM     21  C   UNL     1      10.073   5.519   8.166  0.00  0.00    +0.144 A 
BRANCH  21  22
ATOM      1  F   UNL     1       8.394   5.598   9.868  0.00  0.00    -0.164 F 
ATOM      2  F   UNL     1       9.082   3.634   9.255  0.00  0.00    -0.164 F 
ATOM      3  F   UNL     1      10.376   4.915  10.445  0.00  0.00    -0.164 F 
ATOM     22  C   UNL     1       9.491   4.928   9.406  0.00  0.00    +0.434 C 
ENDBRANCH  21  22
ENDBRANCH  10  15
BRANCH  11   8
ATOM      6  O   UNL     1      12.181   3.699   2.176  0.00  0.00    -0.273 OA
ATOM      8  N   UNL     1      11.354   5.803   2.721  0.00  0.00    -0.307 N 
ATOM     18  C   UNL     1      11.354   4.595   2.037  0.00  0.00    +0.239 C 
ATOM     24  H   UNL     1      10.588   6.453   2.566  0.00  0.00    +0.149 HD
BRANCH  18  20
ATOM     20  C   UNL     1      10.192   4.494   1.072  0.00  0.00    +0.255 C 
BRANCH  20   7
ATOM      7  O   UNL     1      10.614   3.955  -0.162  0.00  0.00    -0.374 OA
ATOM     23  C   UNL     1      10.988   4.972  -1.086  0.00  0.00    +0.194 C 
ENDBRANCH  20   7
ENDBRANCH  18  20
ENDBRANCH  11   8
BRANCH  12   4
ATOM      4  O   UNL     1      14.446   5.889   2.465  0.00  0.00    -0.387 OA
ATOM     25  H   UNL     1      14.563   5.155   3.093  0.00  0.00    +0.210 HD
ENDBRANCH  12   4
BRANCH  14   5
ATOM      5  O   UNL     1      14.906   6.598   5.078  0.00  0.00    -0.389 OA
ATOM     26  H   UNL     1      14.437   5.750   5.008  0.00  0.00    +0.210 HD
ENDBRANCH  14   5
TORSDOF 7
ENDMDL
MODEL 6
REMARK VINA RESULT:      -6.5     14.209     16.581
REMARK  Name = 71693987
REMARK  8 active torsions:
REMARK  status: ('A' for Active; 'I' for Inactive)
REMARK    1  A    between atoms: O_4  and  C_12
REMARK    2  A    between atoms: O_5  and  C_14
REMARK    3  A    between atoms: O_7  and  C_20
REMARK    4  A    between atoms: O_7  and  C_23
REMARK    5  A    between atoms: N_8  and  C_11
REMARK    6  A    between atoms: C_10  and  C_15
REMARK    7  A    between atoms: C_18  and  C_20
REMARK    8  A    between atoms: C_21  and  C_22
REMARK                            x       y       z     vdW  Elec       q    Type
REMARK                         _______ _______ _______ _____ _____    ______ ____
ROOT
ATOM     10  C   UNL     1      10.635   6.028   4.693  0.00  0.00    +0.046 C 
ATOM     11  C   UNL     1      11.528   6.094   5.954  0.00  0.00    +0.111 C 
ATOM     12  C   UNL     1      10.531   5.946   7.103  0.00  0.00    +0.164 C 
ATOM     13  C   UNL     1       9.348   5.279   5.126  0.00  0.00    +0.044 C 
ATOM     14  C   UNL     1       9.562   4.888   6.587  0.00  0.00    +0.145 C 
ENDROOT
BRANCH  10  15
ATOM      9  N   UNL     1      12.939   5.660   1.702  0.00  0.00    -0.251 NA
ATOM     15  C   UNL     1      11.340   5.420   3.499  0.00  0.00    -0.024 A 
ATOM     16  C   UNL     1      11.068   4.118   3.095  0.00  0.00    +0.007 A 
ATOM     17  C   UNL     1      12.275   6.142   2.776  0.00  0.00    +0.115 A 
ATOM     19  C   UNL     1      11.732   3.585   1.994  0.00  0.00    +0.032 A 
ATOM     21  C   UNL     1      12.649   4.390   1.338  0.00  0.00    +0.144 A 
BRANCH  21  22
ATOM      1  F   UNL     1      12.792   2.750  -0.398  0.00  0.00    -0.164 F 
ATOM      2  F   UNL     1      13.492   4.747  -0.873  0.00  0.00    -0.164 F 
ATOM      3  F   UNL     1      14.657   3.476   0.452  0.00  0.00    -0.164 F 
ATOM     22  C   UNL     1      13.380   3.852   0.153  0.00  0.00    +0.434 C 
ENDBRANCH  21  22
ENDBRANCH  10  15
BRANCH  11   8
ATOM      6  O   UNL     1      14.053   6.548   7.289  0.00  0.00    -0.273 OA
ATOM      8  N   UNL     1      12.259   7.333   6.033  0.00  0.00    -0.307 N 
ATOM     18  C   UNL     1      13.471   7.455   6.700  0.00  0.00    +0.239 C 
ATOM     24  H   UNL     1      11.894   8.138   5.532  0.00  0.00    +0.149 HD
BRANCH  18  20
ATOM     20  C   UNL     1      14.017   8.865   6.623  0.00  0.00    +0.255 C 
BRANCH  20   7
ATOM      7  O   UNL     1      15.394   8.849   6.315  0.00  0.00    -0.374 OA
ATOM     23  C   UNL     1      15.625   8.743   4.913  0.00  0.00    +0.194 C 
ENDBRANCH  20   7
ENDBRANCH  18  20
ENDBRANCH  11   8
BRANCH  12   4
ATOM      4  O   UNL     1      11.154   5.526   8.302  0.00  0.00    -0.387 OA
ATOM     25  H   UNL     1      10.628   5.875   9.042  0.00  0.00    +0.210 HD
ENDBRANCH  12   4
BRANCH  14   5
ATOM      5  O   UNL     1      10.151   3.592   6.631  0.00  0.00    -0.389 OA
ATOM     26  H   UNL     1       9.780   3.077   5.894  0.00  0.00    +0.210 HD
ENDBRANCH  14   5
TORSDOF 7
ENDMDL
MODEL 7
REMARK VINA RESULT:      -6.4     26.256     27.563
REMARK  Name = 71693987
REMARK  8 active torsions:
REMARK  status: ('A' for Active; 'I' for Inactive)
REMARK    1  A    between atoms: O_4  and  C_12
REMARK    2  A    between atoms: O_5  and  C_14
REMARK    3  A    between atoms: O_7  and  C_20
REMARK    4  A    between atoms: O_7  and  C_23
REMARK    5  A    between atoms: N_8  and  C_11
REMARK    6  A    between atoms: C_10  and  C_15
REMARK    7  A    between atoms: C_18  and  C_20
REMARK    8  A    between atoms: C_21  and  C_22
REMARK                            x       y       z     vdW  Elec       q    Type
REMARK                         _______ _______ _______ _____ _____    ______ ____
ROOT
ATOM     10  C   UNL     1      -2.858 -10.635  14.853  0.00  0.00    +0.046 C 
ATOM     11  C   UNL     1      -3.440 -11.232  13.550  0.00  0.00    +0.111 C 
ATOM     12  C   UNL     1      -2.216 -11.821  12.851  0.00  0.00    +0.164 C 
ATOM     13  C   UNL     1      -1.533 -11.399  15.111  0.00  0.00    +0.044 C 
ATOM     14  C   UNL     1      -1.425 -12.440  13.998  0.00  0.00    +0.145 C 
ENDROOT
BRANCH  10  15
ATOM      9  N   UNL     1      -5.982 -10.036  16.918  0.00  0.00    -0.251 NA
ATOM     15  C   UNL     1      -3.835 -10.671  16.009  0.00  0.00    -0.024 A 
ATOM     16  C   UNL     1      -3.522 -11.335  17.190  0.00  0.00    +0.007 A 
ATOM     17  C   UNL     1      -5.066 -10.043  15.924  0.00  0.00    +0.115 A 
ATOM     19  C   UNL     1      -4.440 -11.351  18.236  0.00  0.00    +0.032 A 
ATOM     21  C   UNL     1      -5.644 -10.692  18.051  0.00  0.00    +0.144 A 
BRANCH  21  22
ATOM      1  F   UNL     1      -7.897 -10.291  18.751  0.00  0.00    -0.164 F 
ATOM      2  F   UNL     1      -6.836 -11.912  19.729  0.00  0.00    -0.164 F 
ATOM      3  F   UNL     1      -6.311  -9.849  20.172  0.00  0.00    -0.164 F 
ATOM     22  C   UNL     1      -6.653 -10.688  19.151  0.00  0.00    +0.434 C 
ENDBRANCH  21  22
ENDBRANCH  10  15
BRANCH  11   8
ATOM      6  O   UNL     1      -5.432 -11.670  11.500  0.00  0.00    -0.273 OA
ATOM      8  N   UNL     1      -4.092 -10.232  12.743  0.00  0.00    -0.307 N 
ATOM     18  C   UNL     1      -5.042 -10.540  11.778  0.00  0.00    +0.239 C 
ATOM     24  H   UNL     1      -3.882  -9.255  12.928  0.00  0.00    +0.149 HD
BRANCH  18  20
ATOM     20  C   UNL     1      -5.561  -9.300  11.083  0.00  0.00    +0.255 C 
BRANCH  20   7
ATOM      7  O   UNL     1      -4.497  -8.556  10.530  0.00  0.00    -0.374 OA
ATOM     23  C   UNL     1      -4.094  -9.066   9.262  0.00  0.00    +0.194 C 
ENDBRANCH  20   7
ENDBRANCH  18  20
ENDBRANCH  11   8
BRANCH  12   4
ATOM      4  O   UNL     1      -2.566 -12.796  11.888  0.00  0.00    -0.387 OA
ATOM     25  H   UNL     1      -2.016 -12.641  11.101  0.00  0.00    +0.210 HD
ENDBRANCH  12   4
BRANCH  14   5
ATOM      5  O   UNL     1      -2.033 -13.648  14.443  0.00  0.00    -0.389 OA
ATOM     26  H   UNL     1      -1.687 -13.840  15.331  0.00  0.00    +0.210 HD
ENDBRANCH  14   5
TORSDOF 7
ENDMDL
MODEL 8
REMARK VINA RESULT:      -6.3     26.145     27.999
REMARK  Name = 71693987
REMARK  8 active torsions:
REMARK  status: ('A' for Active; 'I' for Inactive)
REMARK    1  A    between atoms: O_4  and  C_12
REMARK    2  A    between atoms: O_5  and  C_14
REMARK    3  A    between atoms: O_7  and  C_20
REMARK    4  A    between atoms: O_7  and  C_23
REMARK    5  A    between atoms: N_8  and  C_11
REMARK    6  A    between atoms: C_10  and  C_15
REMARK    7  A    between atoms: C_18  and  C_20
REMARK    8  A    between atoms: C_21  and  C_22
REMARK                            x       y       z     vdW  Elec       q    Type
REMARK                         _______ _______ _______ _____ _____    ______ ____
ROOT
ATOM     10  C   UNL     1      -7.282 -11.223  17.029  0.00  0.00    +0.046 C 
ATOM     11  C   UNL     1      -7.715 -10.196  18.100  0.00  0.00    +0.111 C 
ATOM     12  C   UNL     1      -8.777 -10.946  18.903  0.00  0.00    +0.164 C 
ATOM     13  C   UNL     1      -7.639 -12.615  17.610  0.00  0.00    +0.044 C 
ATOM     14  C   UNL     1      -8.203 -12.354  19.005  0.00  0.00    +0.145 C 
ENDROOT
BRANCH  10  15
ATOM      9  N   UNL     1      -4.220 -10.604  14.876  0.00  0.00    -0.251 NA
ATOM     15  C   UNL     1      -5.833 -11.072  16.615  0.00  0.00    -0.024 A 
ATOM     16  C   UNL     1      -4.804 -11.250  17.533  0.00  0.00    +0.007 A 
ATOM     17  C   UNL     1      -5.492 -10.753  15.311  0.00  0.00    +0.115 A 
ATOM     19  C   UNL     1      -3.482 -11.104  17.123  0.00  0.00    +0.032 A 
ATOM     21  C   UNL     1      -3.246 -10.785  15.796  0.00  0.00    +0.144 A 
BRANCH  21  22
ATOM      1  F   UNL     1      -1.239 -11.798  14.979  0.00  0.00    -0.164 F 
ATOM      2  F   UNL     1      -1.726  -9.827  14.216  0.00  0.00    -0.164 F 
ATOM      3  F   UNL     1      -1.032 -10.056  16.264  0.00  0.00    -0.164 F 
ATOM     22  C   UNL     1      -1.840 -10.621  15.321  0.00  0.00    +0.434 C 
ENDBRANCH  21  22
ENDBRANCH  10  15
BRANCH  11   8
ATOM      6  O   UNL     1     -10.136  -9.921  16.542  0.00  0.00    -0.273 OA
ATOM      8  N   UNL     1      -8.238  -8.989  17.511  0.00  0.00    -0.307 N 
ATOM     18  C   UNL     1      -9.416  -8.955  16.775  0.00  0.00    +0.239 C 
ATOM     24  H   UNL     1      -7.747  -8.117  17.689  0.00  0.00    +0.149 HD
BRANCH  18  20
ATOM     20  C   UNL     1      -9.728  -7.560  16.277  0.00  0.00    +0.255 C 
BRANCH  20   7
ATOM      7  O   UNL     1     -10.845  -7.027  16.956  0.00  0.00    -0.374 OA
ATOM     23  C   UNL     1     -11.555  -6.088  16.155  0.00  0.00    +0.194 C 
ENDBRANCH  20   7
ENDBRANCH  18  20
ENDBRANCH  11   8
BRANCH  12   4
ATOM      4  O   UNL     1      -8.978 -10.381  20.184  0.00  0.00    -0.387 OA
ATOM     25  H   UNL     1      -9.582  -9.626  20.080  0.00  0.00    +0.210 HD
ENDBRANCH  12   4
BRANCH  14   5
ATOM      5  O   UNL     1      -7.134 -12.402  19.946  0.00  0.00    -0.389 OA
ATOM     26  H   UNL     1      -6.830 -11.490  20.089  0.00  0.00    +0.210 HD
ENDBRANCH  14   5
TORSDOF 7
ENDMDL
MODEL 9
REMARK VINA RESULT:      -6.2      4.106      5.903
REMARK  Name = 71693987
REMARK  8 active torsions:
REMARK  status: ('A' for Active; 'I' for Inactive)
REMARK    1  A    between atoms: O_4  and  C_12
REMARK    2  A    between atoms: O_5  and  C_14
REMARK    3  A    between atoms: O_7  and  C_20
REMARK    4  A    between atoms: O_7  and  C_23
REMARK    5  A    between atoms: N_8  and  C_11
REMARK    6  A    between atoms: C_10  and  C_15
REMARK    7  A    between atoms: C_18  and  C_20
REMARK    8  A    between atoms: C_21  and  C_22
REMARK                            x       y       z     vdW  Elec       q    Type
REMARK                         _______ _______ _______ _____ _____    ______ ____
ROOT
ATOM     10  C   UNL     1      13.188   9.037  20.061  0.00  0.00    +0.046 C 
ATOM     11  C   UNL     1      13.082   7.499  19.952  0.00  0.00    +0.111 C 
ATOM     12  C   UNL     1      12.068   7.134  21.035  0.00  0.00    +0.164 C 
ATOM     13  C   UNL     1      11.868   9.504  20.728  0.00  0.00    +0.044 C 
ATOM     14  C   UNL     1      11.028   8.244  20.924  0.00  0.00    +0.145 C 
ENDROOT
BRANCH  10  15
ATOM      9  N   UNL     1      13.129   9.812  16.348  0.00  0.00    -0.251 NA
ATOM     15  C   UNL     1      13.488   9.706  18.736  0.00  0.00    -0.024 A 
ATOM     16  C   UNL     1      14.361  10.786  18.662  0.00  0.00    +0.007 A 
ATOM     17  C   UNL     1      12.904   9.261  17.562  0.00  0.00    +0.115 A 
ATOM     19  C   UNL     1      14.618  11.381  17.430  0.00  0.00    +0.032 A 
ATOM     21  C   UNL     1      13.983  10.860  16.314  0.00  0.00    +0.144 A 
BRANCH  21  22
ATOM      1  F   UNL     1      14.690  12.758  15.040  0.00  0.00    -0.164 F 
ATOM      2  F   UNL     1      15.165  10.801  14.235  0.00  0.00    -0.164 F 
ATOM      3  F   UNL     1      13.113  11.518  14.202  0.00  0.00    -0.164 F 
ATOM     22  C   UNL     1      14.235  11.472  14.976  0.00  0.00    +0.434 C 
ENDBRANCH  21  22
ENDBRANCH  10  15
BRANCH  11   8
ATOM      6  O   UNL     1      14.895   7.903  22.169  0.00  0.00    -0.273 OA
ATOM      8  N   UNL     1      14.353   6.853  20.166  0.00  0.00    -0.307 N 
ATOM     18  C   UNL     1      15.158   7.113  21.267  0.00  0.00    +0.239 C 
ATOM     24  H   UNL     1      14.644   6.139  19.505  0.00  0.00    +0.149 HD
BRANCH  18  20
ATOM     20  C   UNL     1      16.432   6.296  21.238  0.00  0.00    +0.255 C 
BRANCH  20   7
ATOM      7  O   UNL     1      17.364   6.859  20.340  0.00  0.00    -0.374 OA
ATOM     23  C   UNL     1      17.756   5.933  19.332  0.00  0.00    +0.194 C 
ENDBRANCH  20   7
ENDBRANCH  18  20
ENDBRANCH  11   8
BRANCH  12   4
ATOM      4  O   UNL     1      11.484   5.864  20.818  0.00  0.00    -0.387 OA
ATOM     25  H   UNL     1      11.067   5.587  21.652  0.00  0.00    +0.210 HD
ENDBRANCH  12   4
BRANCH  14   5
ATOM      5  O   UNL     1      10.206   8.060  19.776  0.00  0.00    -0.389 OA
ATOM     26  H   UNL     1       9.391   8.570  19.915  0.00  0.00    +0.210 HD
ENDBRANCH  14   5
TORSDOF 7
ENDMDL
MODEL 10
REMARK VINA RESULT:      -6.1     26.289     28.158
REMARK  Name = 71693987
REMARK  8 active torsions:
REMARK  status: ('A' for Active; 'I' for Inactive)
REMARK    1  A    between atoms: O_4  and  C_12
REMARK    2  A    between atoms: O_5  and  C_14
REMARK    3  A    between atoms: O_7  and  C_20
REMARK    4  A    between atoms: O_7  and  C_23
REMARK    5  A    between atoms: N_8  and  C_11
REMARK    6  A    between atoms: C_10  and  C_15
REMARK    7  A    between atoms: C_18  and  C_20
REMARK    8  A    between atoms: C_21  and  C_22
REMARK                            x       y       z     vdW  Elec       q    Type
REMARK                         _______ _______ _______ _____ _____    ______ ____
ROOT
ATOM     10  C   UNL     1      -7.073 -11.691  17.185  0.00  0.00    +0.046 C 
ATOM     11  C   UNL     1      -7.994 -10.449  17.220  0.00  0.00    +0.111 C 
ATOM     12  C   UNL     1      -8.921 -10.728  18.402  0.00  0.00    +0.164 C 
ATOM     13  C   UNL     1      -7.108 -12.282  18.618  0.00  0.00    +0.044 C 
ATOM     14  C   UNL     1      -7.987 -11.341  19.439  0.00  0.00    +0.145 C 
ENDROOT
BRANCH  10  15
ATOM      9  N   UNL     1      -4.230 -10.936  14.791  0.00  0.00    -0.251 NA
ATOM     15  C   UNL     1      -5.683 -11.383  16.669  0.00  0.00    -0.024 A 
ATOM     16  C   UNL     1      -4.607 -11.264  17.542  0.00  0.00    +0.007 A 
ATOM     17  C   UNL     1      -5.444 -11.211  15.316  0.00  0.00    +0.115 A 
ATOM     19  C   UNL     1      -3.340 -10.980  17.039  0.00  0.00    +0.032 A 
ATOM     21  C   UNL     1      -3.206 -10.828  15.669  0.00  0.00    +0.144 A 
BRANCH  21  22
ATOM      1  F   UNL     1      -1.049 -11.615  14.998  0.00  0.00    -0.164 F 
ATOM      2  F   UNL     1      -1.914 -10.003  13.832  0.00  0.00    -0.164 F 
ATOM      3  F   UNL     1      -1.170  -9.612  15.837  0.00  0.00    -0.164 F 
ATOM     22  C   UNL     1      -1.863 -10.523  15.094  0.00  0.00    +0.434 C 
ENDBRANCH  21  22
ENDBRANCH  10  15
BRANCH  11   8
ATOM      6  O   UNL     1      -9.291  -8.046  16.268  0.00  0.00    -0.273 OA
ATOM      8  N   UNL     1      -8.726 -10.284  15.989  0.00  0.00    -0.307 N 
ATOM     18  C   UNL     1      -9.317  -9.085  15.615  0.00  0.00    +0.239 C 
ATOM     24  H   UNL     1      -8.764 -11.070  15.346  0.00  0.00    +0.149 HD
BRANCH  18  20
ATOM     20  C   UNL     1     -10.017  -9.196  14.278  0.00  0.00    +0.255 C 
BRANCH  20   7
ATOM      7  O   UNL     1     -11.369  -8.806  14.390  0.00  0.00    -0.374 OA
ATOM     23  C   UNL     1     -11.911  -8.400  13.137  0.00  0.00    +0.194 C 
ENDBRANCH  20   7
ENDBRANCH  18  20
ENDBRANCH  11   8
BRANCH  12   4
ATOM      4  O   UNL     1      -9.529  -9.550  18.896  0.00  0.00    -0.387 OA
ATOM     25  H   UNL     1      -9.926  -9.764  19.758  0.00  0.00    +0.210 HD
ENDBRANCH  12   4
BRANCH  14   5
ATOM      5  O   UNL     1      -7.160 -10.345  20.032  0.00  0.00    -0.389 OA
ATOM     26  H   UNL     1      -6.235 -10.607  19.883  0.00  0.00    +0.210 HD
ENDBRANCH  14   5
TORSDOF 7
ENDMDL
