MODEL 1
REMARK VINA RESULT:      -7.3      0.000      0.000
REMARK  Name = 40780380
REMARK  10 active torsions:
REMARK  status: ('A' for Active; 'I' for Inactive)
REMARK    1  A    between atoms: N_1  and  C_7
REMARK    2  A    between atoms: N_1  and  C_13
REMARK    3  A    between atoms: N_2  and  C_16
REMARK    4  A    between atoms: C_5  and  C_8
REMARK    5  A    between atoms: C_11  and  C_14
REMARK    6  A    between atoms: C_12  and  C_15
REMARK    7  A    between atoms: C_13  and  C_17
REMARK    8  A    between atoms: C_20  and  C_21
REMARK    9  A    between atoms: C_21  and  C_25
REMARK   10  A    between atoms: C_21  and  C_26
REMARK                            x       y       z     vdW  Elec       q    Type
REMARK                         _______ _______ _______ _____ _____    ______ ____
ROOT
ATOM      2  N   UNL     1     -14.551   6.635  22.340  0.00  0.00    -0.236 N 
ATOM      3  N   UNL     1     -15.825   7.029  22.509  0.00  0.00    -0.171 NA
ATOM      8  C   UNL     1     -15.477   4.934  23.351  0.00  0.00    +0.003 A 
ATOM     11  C   UNL     1     -14.290   5.388  22.827  0.00  0.00    +0.046 A 
ATOM     12  C   UNL     1     -16.385   5.986  23.127  0.00  0.00    +0.064 A 
ATOM     14  C   UNL     1     -12.961   4.749  22.752  0.00  0.00    +0.066 C 
ATOM     15  C   UNL     1     -17.813   6.039  23.487  0.00  0.00    +0.068 C 
ENDROOT
BRANCH   2  16
ATOM     16  C   UNL     1     -13.641   7.488  21.714  0.00  0.00    +0.066 A 
ATOM     18  C   UNL     1     -12.734   6.978  20.784  0.00  0.00    +0.028 A 
ATOM     19  C   UNL     1     -13.635   8.848  22.023  0.00  0.00    +0.028 A 
ATOM     20  C   UNL     1     -11.816   9.191  20.469  0.00  0.00    -0.045 A 
ATOM     22  C   UNL     1     -11.822   7.830  20.161  0.00  0.00    +0.006 A 
ATOM     23  C   UNL     1     -12.722   9.700  21.400  0.00  0.00    +0.006 A 
BRANCH  20  21
ATOM     21  C   UNL     1     -10.840  10.100  19.804  0.00  0.00    +0.013 C 
ATOM     25  C   UNL     1     -10.093   9.414  18.643  0.00  0.00    +0.012 C 
ATOM     26  C   UNL     1     -11.491  11.404  19.307  0.00  0.00    +0.012 C 
ENDBRANCH  20  21
ENDBRANCH   2  16
BRANCH   8   5
ATOM      5  C   UNL     1     -15.742   3.604  24.017  0.00  0.00    +0.047 C 
ATOM      6  C   UNL     1     -16.145   3.734  25.498  0.00  0.00    +0.035 C 
ATOM      7  C   UNL     1     -17.147   2.600  25.771  0.00  0.00    +0.078 C 
ATOM      9  C   UNL     1     -16.895   2.834  23.441  0.00  0.00    -0.021 C 
ATOM     10  C   UNL     1     -17.651   2.284  24.397  0.00  0.00    -0.012 C 
BRANCH   7   1
ATOM      1  N   UNL     1     -16.510   1.441  26.385  0.00  0.00    -0.304 NA
ATOM     30  H   UNL     1     -15.498   1.575  26.389  0.00  0.00    +0.123 HD
BRANCH   1  13
ATOM     13  C   UNL     1     -16.967   1.257  27.756  0.00  0.00    +0.137 C 
BRANCH  13  17
ATOM      4  N   UNL     1     -15.321   0.224  29.220  0.00  0.00    -0.259 NA
ATOM     17  C   UNL     1     -15.838   1.379  28.746  0.00  0.00    +0.055 A 
ATOM     24  C   UNL     1     -15.392   2.637  29.114  0.00  0.00    +0.024 A 
ATOM     27  C   UNL     1     -14.348   2.715  30.029  0.00  0.00    +0.003 A 
ATOM     28  C   UNL     1     -14.307   0.339  30.106  0.00  0.00    +0.111 A 
ATOM     29  C   UNL     1     -13.790   1.549  30.539  0.00  0.00    +0.020 A 
ENDBRANCH  13  17
ENDBRANCH   1  13
ENDBRANCH   7   1
ENDBRANCH   8   5
TORSDOF 6
ENDMDL
MODEL 2
REMARK VINA RESULT:      -7.2     29.456     33.851
REMARK  Name = 40780380
REMARK  10 active torsions:
REMARK  status: ('A' for Active; 'I' for Inactive)
REMARK    1  A    between atoms: N_1  and  C_7
REMARK    2  A    between atoms: N_1  and  C_13
REMARK    3  A    between atoms: N_2  and  C_16
REMARK    4  A    between atoms: C_5  and  C_8
REMARK    5  A    between atoms: C_11  and  C_14
REMARK    6  A    between atoms: C_12  and  C_15
REMARK    7  A    between atoms: C_13  and  C_17
REMARK    8  A    between atoms: C_20  and  C_21
REMARK    9  A    between atoms: C_21  and  C_25
REMARK   10  A    between atoms: C_21  and  C_26
REMARK                            x       y       z     vdW  Elec       q    Type
REMARK                         _______ _______ _______ _____ _____    ______ ____
ROOT
ATOM      2  N   UNL     1      20.367   6.171  21.163  0.00  0.00    -0.236 N 
ATOM      3  N   UNL     1      20.342   7.329  21.845  0.00  0.00    -0.171 NA
ATOM      8  C   UNL     1      18.396   6.991  20.697  0.00  0.00    +0.003 A 
ATOM     11  C   UNL     1      19.225   5.922  20.459  0.00  0.00    +0.046 A 
ATOM     12  C   UNL     1      19.136   7.825  21.556  0.00  0.00    +0.064 A 
ATOM     14  C   UNL     1      19.028   4.711  19.637  0.00  0.00    +0.066 C 
ATOM     15  C   UNL     1      18.729   9.120  22.131  0.00  0.00    +0.068 C 
ENDROOT
BRANCH   2  16
ATOM     16  C   UNL     1      21.497   5.356  21.226  0.00  0.00    +0.066 A 
ATOM     18  C   UNL     1      21.597   4.376  22.214  0.00  0.00    +0.028 A 
ATOM     19  C   UNL     1      22.529   5.525  20.303  0.00  0.00    +0.028 A 
ATOM     20  C   UNL     1      23.761   3.732  21.354  0.00  0.00    -0.045 A 
ATOM     22  C   UNL     1      22.729   3.563  22.278  0.00  0.00    +0.006 A 
ATOM     23  C   UNL     1      23.662   4.712  20.367  0.00  0.00    +0.006 A 
BRANCH  20  21
ATOM     21  C   UNL     1      24.972   2.864  21.424  0.00  0.00    +0.013 C 
ATOM     25  C   UNL     1      24.622   1.363  21.393  0.00  0.00    +0.012 C 
ATOM     26  C   UNL     1      25.994   3.185  20.318  0.00  0.00    +0.012 C 
ENDBRANCH  20  21
ENDBRANCH   2  16
BRANCH   8   5
ATOM      5  C   UNL     1      17.004   7.217  20.155  0.00  0.00    +0.047 C 
ATOM      6  C   UNL     1      15.955   6.262  20.755  0.00  0.00    +0.035 C 
ATOM      7  C   UNL     1      14.645   7.063  20.844  0.00  0.00    +0.078 C 
ATOM      9  C   UNL     1      16.421   8.565  20.468  0.00  0.00    -0.021 C 
ATOM     10  C   UNL     1      15.137   8.476  20.834  0.00  0.00    -0.012 C 
BRANCH   7   1
ATOM      1  N   UNL     1      13.763   6.797  19.714  0.00  0.00    -0.304 NA
ATOM     30  H   UNL     1      13.439   5.831  19.757  0.00  0.00    +0.123 HD
BRANCH   1  13
ATOM     13  C   UNL     1      12.607   7.684  19.732  0.00  0.00    +0.137 C 
BRANCH  13  17
ATOM      4  N   UNL     1      11.018   8.177  17.957  0.00  0.00    -0.259 NA
ATOM     17  C   UNL     1      12.305   8.242  18.367  0.00  0.00    +0.055 A 
ATOM     24  C   UNL     1      13.332   8.783  17.613  0.00  0.00    +0.024 A 
ATOM     27  C   UNL     1      13.020   9.292  16.356  0.00  0.00    +0.003 A 
ATOM     28  C   UNL     1      10.752   8.681  16.731  0.00  0.00    +0.111 A 
ATOM     29  C   UNL     1      11.708   9.243  15.901  0.00  0.00    +0.020 A 
ENDBRANCH  13  17
ENDBRANCH   1  13
ENDBRANCH   7   1
ENDBRANCH   8   5
TORSDOF 6
ENDMDL
MODEL 3
REMARK VINA RESULT:      -7.2     20.841     22.234
REMARK  Name = 40780380
REMARK  10 active torsions:
REMARK  status: ('A' for Active; 'I' for Inactive)
REMARK    1  A    between atoms: N_1  and  C_7
REMARK    2  A    between atoms: N_1  and  C_13
REMARK    3  A    between atoms: N_2  and  C_16
REMARK    4  A    between atoms: C_5  and  C_8
REMARK    5  A    between atoms: C_11  and  C_14
REMARK    6  A    between atoms: C_12  and  C_15
REMARK    7  A    between atoms: C_13  and  C_17
REMARK    8  A    between atoms: C_20  and  C_21
REMARK    9  A    between atoms: C_21  and  C_25
REMARK   10  A    between atoms: C_21  and  C_26
REMARK                            x       y       z     vdW  Elec       q    Type
REMARK                         _______ _______ _______ _____ _____    ______ ____
ROOT
ATOM      2  N   UNL     1      -4.450  -9.652   9.775  0.00  0.00    -0.236 N 
ATOM      3  N   UNL     1      -3.237  -9.077   9.708  0.00  0.00    -0.171 NA
ATOM      8  C   UNL     1      -3.426 -10.421  11.545  0.00  0.00    +0.003 A 
ATOM     11  C   UNL     1      -4.614 -10.466  10.857  0.00  0.00    +0.046 A 
ATOM     12  C   UNL     1      -2.616  -9.551  10.792  0.00  0.00    +0.064 A 
ATOM     14  C   UNL     1      -5.865 -11.201  11.137  0.00  0.00    +0.066 C 
ATOM     15  C   UNL     1      -1.230  -9.136  11.072  0.00  0.00    +0.068 C 
ENDROOT
BRANCH   2  16
ATOM     16  C   UNL     1      -5.397  -9.387   8.786  0.00  0.00    +0.066 A 
ATOM     18  C   UNL     1      -6.465  -8.530   9.055  0.00  0.00    +0.028 A 
ATOM     19  C   UNL     1      -5.278  -9.982   7.530  0.00  0.00    +0.028 A 
ATOM     20  C   UNL     1      -7.294  -8.863   6.809  0.00  0.00    -0.045 A 
ATOM     22  C   UNL     1      -7.414  -8.267   8.066  0.00  0.00    +0.006 A 
ATOM     23  C   UNL     1      -6.227  -9.720   6.542  0.00  0.00    +0.006 A 
BRANCH  20  21
ATOM     21  C   UNL     1      -8.310  -8.583   5.754  0.00  0.00    +0.013 C 
ATOM     25  C   UNL     1      -9.102  -7.290   6.028  0.00  0.00    +0.012 C 
ATOM     26  C   UNL     1      -7.696  -8.530   4.343  0.00  0.00    +0.012 C 
ENDBRANCH  20  21
ENDBRANCH   2  16
BRANCH   8   5
ATOM      5  C   UNL     1      -3.072 -11.144  12.824  0.00  0.00    +0.047 C 
ATOM      6  C   UNL     1      -4.118 -10.955  13.939  0.00  0.00    +0.035 C 
ATOM      7  C   UNL     1      -4.145 -12.273  14.731  0.00  0.00    +0.078 C 
ATOM      9  C   UNL     1      -3.007 -12.639  12.701  0.00  0.00    -0.021 C 
ATOM     10  C   UNL     1      -3.583 -13.248  13.743  0.00  0.00    -0.012 C 
BRANCH   7   1
ATOM      1  N   UNL     1      -3.327 -12.204  15.936  0.00  0.00    -0.304 NA
ATOM     30  H   UNL     1      -2.347 -12.341  15.688  0.00  0.00    +0.123 HD
BRANCH   1  13
ATOM     13  C   UNL     1      -3.471 -10.912  16.594  0.00  0.00    +0.137 C 
BRANCH  13  17
ATOM      4  N   UNL     1      -5.715 -10.227  17.235  0.00  0.00    -0.259 NA
ATOM     17  C   UNL     1      -4.603 -10.910  17.587  0.00  0.00    +0.055 A 
ATOM     24  C   UNL     1      -4.457 -11.592  18.783  0.00  0.00    +0.024 A 
ATOM     27  C   UNL     1      -5.522 -11.572  19.678  0.00  0.00    +0.003 A 
ATOM     28  C   UNL     1      -6.730 -10.230  18.129  0.00  0.00    +0.111 A 
ATOM     29  C   UNL     1      -6.683 -10.880  19.352  0.00  0.00    +0.020 A 
ENDBRANCH  13  17
ENDBRANCH   1  13
ENDBRANCH   7   1
ENDBRANCH   8   5
TORSDOF 6
ENDMDL
MODEL 4
REMARK VINA RESULT:      -7.1     19.848     21.252
REMARK  Name = 40780380
REMARK  10 active torsions:
REMARK  status: ('A' for Active; 'I' for Inactive)
REMARK    1  A    between atoms: N_1  and  C_7
REMARK    2  A    between atoms: N_1  and  C_13
REMARK    3  A    between atoms: N_2  and  C_16
REMARK    4  A    between atoms: C_5  and  C_8
REMARK    5  A    between atoms: C_11  and  C_14
REMARK    6  A    between atoms: C_12  and  C_15
REMARK    7  A    between atoms: C_13  and  C_17
REMARK    8  A    between atoms: C_20  and  C_21
REMARK    9  A    between atoms: C_21  and  C_25
REMARK   10  A    between atoms: C_21  and  C_26
REMARK                            x       y       z     vdW  Elec       q    Type
REMARK                         _______ _______ _______ _____ _____    ______ ____
ROOT
ATOM      2  N   UNL     1      -4.341 -10.612  12.491  0.00  0.00    -0.236 N 
ATOM      3  N   UNL     1      -3.094 -10.542  12.986  0.00  0.00    -0.171 NA
ATOM      8  C   UNL     1      -4.631 -10.903  14.637  0.00  0.00    +0.003 A 
ATOM     11  C   UNL     1      -5.299 -10.827  13.439  0.00  0.00    +0.046 A 
ATOM     12  C   UNL     1      -3.278 -10.720  14.297  0.00  0.00    +0.064 A 
ATOM     14  C   UNL     1      -6.738 -10.938  13.126  0.00  0.00    +0.066 C 
ATOM     15  C   UNL     1      -2.113 -10.707  15.200  0.00  0.00    +0.068 C 
ENDROOT
BRANCH   2  16
ATOM     16  C   UNL     1      -4.550 -10.468  11.119  0.00  0.00    +0.066 A 
ATOM     18  C   UNL     1      -4.822  -9.209  10.583  0.00  0.00    +0.028 A 
ATOM     19  C   UNL     1      -4.491 -11.584  10.285  0.00  0.00    +0.028 A 
ATOM     20  C   UNL     1      -4.974 -10.183   8.377  0.00  0.00    -0.045 A 
ATOM     22  C   UNL     1      -5.034  -9.066   9.212  0.00  0.00    +0.006 A 
ATOM     23  C   UNL     1      -4.703 -11.441   8.913  0.00  0.00    +0.006 A 
BRANCH  20  21
ATOM     21  C   UNL     1      -5.203 -10.029   6.911  0.00  0.00    +0.013 C 
ATOM     25  C   UNL     1      -4.927 -11.331   6.133  0.00  0.00    +0.012 C 
ATOM     26  C   UNL     1      -6.618  -9.516   6.586  0.00  0.00    +0.012 C 
ENDBRANCH  20  21
ENDBRANCH   2  16
BRANCH   8   5
ATOM      5  C   UNL     1      -5.222 -11.130  16.009  0.00  0.00    +0.047 C 
ATOM      6  C   UNL     1      -5.151 -12.600  16.466  0.00  0.00    +0.035 C 
ATOM      7  C   UNL     1      -4.939 -12.566  17.989  0.00  0.00    +0.078 C 
ATOM      9  C   UNL     1      -4.511 -10.418  17.123  0.00  0.00    -0.021 C 
ATOM     10  C   UNL     1      -4.367 -11.199  18.199  0.00  0.00    -0.012 C 
BRANCH   7   1
ATOM      1  N   UNL     1      -6.188 -12.740  18.720  0.00  0.00    -0.304 NA
ATOM     30  H   UNL     1      -6.109 -13.547  19.339  0.00  0.00    +0.123 HD
BRANCH   1  13
ATOM     13  C   UNL     1      -6.496 -11.561  19.519  0.00  0.00    +0.137 C 
BRANCH  13  17
ATOM      4  N   UNL     1      -8.852 -11.317  20.072  0.00  0.00    -0.259 NA
ATOM     17  C   UNL     1      -7.862 -11.010  19.205  0.00  0.00    +0.055 A 
ATOM     24  C   UNL     1      -8.036 -10.232  18.073  0.00  0.00    +0.024 A 
ATOM     27  C   UNL     1      -9.310  -9.737  17.813  0.00  0.00    +0.003 A 
ATOM     28  C   UNL     1     -10.076 -10.819  19.787  0.00  0.00    +0.111 A 
ATOM     29  C   UNL     1     -10.354 -10.032  18.681  0.00  0.00    +0.020 A 
ENDBRANCH  13  17
ENDBRANCH   1  13
ENDBRANCH   7   1
ENDBRANCH   8   5
TORSDOF 6
ENDMDL
MODEL 5
REMARK VINA RESULT:      -6.9     18.012     21.118
REMARK  Name = 40780380
REMARK  10 active torsions:
REMARK  status: ('A' for Active; 'I' for Inactive)
REMARK    1  A    between atoms: N_1  and  C_7
REMARK    2  A    between atoms: N_1  and  C_13
REMARK    3  A    between atoms: N_2  and  C_16
REMARK    4  A    between atoms: C_5  and  C_8
REMARK    5  A    between atoms: C_11  and  C_14
REMARK    6  A    between atoms: C_12  and  C_15
REMARK    7  A    between atoms: C_13  and  C_17
REMARK    8  A    between atoms: C_20  and  C_21
REMARK    9  A    between atoms: C_21  and  C_25
REMARK   10  A    between atoms: C_21  and  C_26
REMARK                            x       y       z     vdW  Elec       q    Type
REMARK                         _______ _______ _______ _____ _____    ______ ____
ROOT
ATOM      2  N   UNL     1      -8.931 -11.165  19.146  0.00  0.00    -0.236 N 
ATOM      3  N   UNL     1      -7.940 -11.316  20.041  0.00  0.00    -0.171 NA
ATOM      8  C   UNL     1      -7.126 -11.103  17.917  0.00  0.00    +0.003 A 
ATOM     11  C   UNL     1      -8.497 -11.033  17.859  0.00  0.00    +0.046 A 
ATOM     12  C   UNL     1      -6.840 -11.277  19.284  0.00  0.00    +0.064 A 
ATOM     14  C   UNL     1      -9.407 -10.858  16.710  0.00  0.00    +0.066 C 
ATOM     15  C   UNL     1      -5.517 -11.415  19.920  0.00  0.00    +0.068 C 
ENDROOT
BRANCH   2  16
ATOM     16  C   UNL     1     -10.257 -11.153  19.579  0.00  0.00    +0.066 A 
ATOM     18  C   UNL     1     -10.908 -12.354  19.864  0.00  0.00    +0.028 A 
ATOM     19  C   UNL     1     -10.933  -9.942  19.721  0.00  0.00    +0.028 A 
ATOM     20  C   UNL     1     -12.912 -11.130  20.436  0.00  0.00    -0.045 A 
ATOM     22  C   UNL     1     -12.236 -12.343  20.293  0.00  0.00    +0.006 A 
ATOM     23  C   UNL     1     -12.261  -9.930  20.150  0.00  0.00    +0.006 A 
BRANCH  20  21
ATOM     21  C   UNL     1     -14.331 -11.119  20.893  0.00  0.00    +0.013 C 
ATOM     25  C   UNL     1     -14.511 -11.790  22.269  0.00  0.00    +0.012 C 
ATOM     26  C   UNL     1     -14.931  -9.701  20.921  0.00  0.00    +0.012 C 
ENDBRANCH  20  21
ENDBRANCH   2  16
BRANCH   8   5
ATOM      5  C   UNL     1      -6.149 -11.014  16.768  0.00  0.00    +0.047 C 
ATOM      6  C   UNL     1      -4.819 -10.338  17.151  0.00  0.00    +0.035 C 
ATOM      7  C   UNL     1      -3.728 -11.036  16.321  0.00  0.00    +0.078 C 
ATOM      9  C   UNL     1      -5.688 -12.339  16.232  0.00  0.00    -0.021 C 
ATOM     10  C   UNL     1      -4.374 -12.343  15.984  0.00  0.00    -0.012 C 
BRANCH   7   1
ATOM      1  N   UNL     1      -3.388 -10.284  15.120  0.00  0.00    -0.304 NA
ATOM     30  H   UNL     1      -2.555  -9.721  15.297  0.00  0.00    +0.123 HD
BRANCH   1  13
ATOM     13  C   UNL     1      -3.123 -11.177  14.000  0.00  0.00    +0.137 C 
BRANCH  13  17
ATOM      4  N   UNL     1      -4.565 -10.186  12.309  0.00  0.00    -0.259 NA
ATOM     17  C   UNL     1      -3.298 -10.483  12.675  0.00  0.00    +0.055 A 
ATOM     24  C   UNL     1      -2.181 -10.188  11.911  0.00  0.00    +0.024 A 
ATOM     27  C   UNL     1      -2.376  -9.545  10.693  0.00  0.00    +0.003 A 
ATOM     28  C   UNL     1      -4.716  -9.562  11.120  0.00  0.00    +0.111 A 
ATOM     29  C   UNL     1      -3.664  -9.223  10.283  0.00  0.00    +0.020 A 
ENDBRANCH  13  17
ENDBRANCH   1  13
ENDBRANCH   7   1
ENDBRANCH   8   5
TORSDOF 6
ENDMDL
MODEL 6
REMARK VINA RESULT:      -6.9     22.048     24.233
REMARK  Name = 40780380
REMARK  10 active torsions:
REMARK  status: ('A' for Active; 'I' for Inactive)
REMARK    1  A    between atoms: N_1  and  C_7
REMARK    2  A    between atoms: N_1  and  C_13
REMARK    3  A    between atoms: N_2  and  C_16
REMARK    4  A    between atoms: C_5  and  C_8
REMARK    5  A    between atoms: C_11  and  C_14
REMARK    6  A    between atoms: C_12  and  C_15
REMARK    7  A    between atoms: C_13  and  C_17
REMARK    8  A    between atoms: C_20  and  C_21
REMARK    9  A    between atoms: C_21  and  C_25
REMARK   10  A    between atoms: C_21  and  C_26
REMARK                            x       y       z     vdW  Elec       q    Type
REMARK                         _______ _______ _______ _____ _____    ______ ____
ROOT
ATOM      2  N   UNL     1      -8.952  -7.113   7.996  0.00  0.00    -0.236 N 
ATOM      3  N   UNL     1      -7.976  -7.722   8.690  0.00  0.00    -0.171 NA
ATOM      8  C   UNL     1      -7.910  -8.289   6.478  0.00  0.00    +0.003 A 
ATOM     11  C   UNL     1      -8.957  -7.419   6.667  0.00  0.00    +0.046 A 
ATOM     12  C   UNL     1      -7.343  -8.439   7.757  0.00  0.00    +0.064 A 
ATOM     14  C   UNL     1      -9.938  -6.867   5.711  0.00  0.00    +0.066 C 
ATOM     15  C   UNL     1      -6.186  -9.267   8.141  0.00  0.00    +0.068 C 
ENDROOT
BRANCH   2  16
ATOM     16  C   UNL     1      -9.838  -6.258   8.653  0.00  0.00    +0.066 A 
ATOM     18  C   UNL     1      -9.652  -4.877   8.588  0.00  0.00    +0.028 A 
ATOM     19  C   UNL     1     -10.905  -6.786   9.379  0.00  0.00    +0.028 A 
ATOM     20  C   UNL     1     -11.605  -4.551   9.974  0.00  0.00    -0.045 A 
ATOM     22  C   UNL     1     -10.536  -4.023   9.249  0.00  0.00    +0.006 A 
ATOM     23  C   UNL     1     -11.789  -5.933  10.039  0.00  0.00    +0.006 A 
BRANCH  20  21
ATOM     21  C   UNL     1     -12.548  -3.638  10.681  0.00  0.00    +0.013 C 
ATOM     25  C   UNL     1     -14.023  -4.020  10.447  0.00  0.00    +0.012 C 
ATOM     26  C   UNL     1     -12.265  -3.552  12.192  0.00  0.00    +0.012 C 
ENDBRANCH  20  21
ENDBRANCH   2  16
BRANCH   8   5
ATOM      5  C   UNL     1      -7.472  -8.938   5.186  0.00  0.00    +0.047 C 
ATOM      6  C   UNL     1      -8.424 -10.050   4.709  0.00  0.00    +0.035 C 
ATOM      7  C   UNL     1      -8.413  -9.997   3.172  0.00  0.00    +0.078 C 
ATOM      9  C   UNL     1      -7.442  -8.017   4.001  0.00  0.00    -0.021 C 
ATOM     10  C   UNL     1      -7.947  -8.599   2.908  0.00  0.00    -0.012 C 
BRANCH   7   1
ATOM      1  N   UNL     1      -7.503 -10.980   2.597  0.00  0.00    -0.304 NA
ATOM     30  H   UNL     1      -6.652 -10.511   2.285  0.00  0.00    +0.123 HD
BRANCH   1  13
ATOM     13  C   UNL     1      -7.148 -12.000   3.575  0.00  0.00    +0.137 C 
BRANCH  13  17
ATOM      4  N   UNL     1      -5.025 -12.601   2.551  0.00  0.00    -0.259 NA
ATOM     17  C   UNL     1      -5.657 -12.191   3.672  0.00  0.00    +0.055 A 
ATOM     24  C   UNL     1      -5.019 -11.942   4.876  0.00  0.00    +0.024 A 
ATOM     27  C   UNL     1      -3.642 -12.126   4.932  0.00  0.00    +0.003 A 
ATOM     28  C   UNL     1      -3.687 -12.769   2.643  0.00  0.00    +0.111 A 
ATOM     29  C   UNL     1      -2.956 -12.547   3.800  0.00  0.00    +0.020 A 
ENDBRANCH  13  17
ENDBRANCH   1  13
ENDBRANCH   7   1
ENDBRANCH   8   5
TORSDOF 6
ENDMDL
MODEL 7
REMARK VINA RESULT:      -6.8     28.925     33.372
REMARK  Name = 40780380
REMARK  10 active torsions:
REMARK  status: ('A' for Active; 'I' for Inactive)
REMARK    1  A    between atoms: N_1  and  C_7
REMARK    2  A    between atoms: N_1  and  C_13
REMARK    3  A    between atoms: N_2  and  C_16
REMARK    4  A    between atoms: C_5  and  C_8
REMARK    5  A    between atoms: C_11  and  C_14
REMARK    6  A    between atoms: C_12  and  C_15
REMARK    7  A    between atoms: C_13  and  C_17
REMARK    8  A    between atoms: C_20  and  C_21
REMARK    9  A    between atoms: C_21  and  C_25
REMARK   10  A    between atoms: C_21  and  C_26
REMARK                            x       y       z     vdW  Elec       q    Type
REMARK                         _______ _______ _______ _____ _____    ______ ____
ROOT
ATOM      2  N   UNL     1      11.343   5.067   3.162  0.00  0.00    -0.236 N 
ATOM      3  N   UNL     1      10.575   4.378   4.023  0.00  0.00    -0.171 NA
ATOM      8  C   UNL     1      11.208   6.394   4.892  0.00  0.00    +0.003 A 
ATOM     11  C   UNL     1      11.748   6.281   3.634  0.00  0.00    +0.046 A 
ATOM     12  C   UNL     1      10.497   5.194   5.078  0.00  0.00    +0.064 A 
ATOM     14  C   UNL     1      12.599   7.209   2.861  0.00  0.00    +0.066 C 
ATOM     15  C   UNL     1       9.721   4.777   6.260  0.00  0.00    +0.068 C 
ENDROOT
BRANCH   2  16
ATOM     16  C   UNL     1      11.649   4.517   1.916  0.00  0.00    +0.066 A 
ATOM     18  C   UNL     1      10.777   4.697   0.841  0.00  0.00    +0.028 A 
ATOM     19  C   UNL     1      12.823   3.784   1.748  0.00  0.00    +0.028 A 
ATOM     20  C   UNL     1      12.258   3.412  -0.571  0.00  0.00    -0.045 A 
ATOM     22  C   UNL     1      11.082   4.144  -0.403  0.00  0.00    +0.006 A 
ATOM     23  C   UNL     1      13.128   3.231   0.504  0.00  0.00    +0.006 A 
BRANCH  20  21
ATOM     21  C   UNL     1      12.581   2.819  -1.901  0.00  0.00    +0.013 C 
ATOM     25  C   UNL     1      11.342   2.223  -2.597  0.00  0.00    +0.012 C 
ATOM     26  C   UNL     1      13.275   3.823  -2.840  0.00  0.00    +0.012 C 
ENDBRANCH  20  21
ENDBRANCH   2  16
BRANCH   8   5
ATOM      5  C   UNL     1      11.349   7.549   5.856  0.00  0.00    +0.047 C 
ATOM      6  C   UNL     1      12.813   7.958   6.106  0.00  0.00    +0.035 C 
ATOM      7  C   UNL     1      12.805   9.482   6.311  0.00  0.00    +0.078 C 
ATOM      9  C   UNL     1      10.737   8.836   5.386  0.00  0.00    -0.021 C 
ATOM     10  C   UNL     1      11.528   9.884   5.642  0.00  0.00    -0.012 C 
BRANCH   7   1
ATOM      1  N   UNL     1      12.805   9.844   7.722  0.00  0.00    -0.304 NA
ATOM     30  H   UNL     1      13.740   9.704   8.108  0.00  0.00    +0.123 HD
BRANCH   1  13
ATOM     13  C   UNL     1      12.424  11.239   7.905  0.00  0.00    +0.137 C 
BRANCH  13  17
ATOM      4  N   UNL     1      10.155  11.030   8.756  0.00  0.00    -0.259 NA
ATOM     17  C   UNL     1      11.426  11.407   9.020  0.00  0.00    +0.055 A 
ATOM     24  C   UNL     1      11.845  11.927  10.233  0.00  0.00    +0.024 A 
ATOM     27  C   UNL     1      10.898  12.068  11.242  0.00  0.00    +0.003 A 
ATOM     28  C   UNL     1       9.263  11.181   9.761  0.00  0.00    +0.111 A 
ATOM     29  C   UNL     1       9.581  11.691  11.009  0.00  0.00    +0.020 A 
ENDBRANCH  13  17
ENDBRANCH   1  13
ENDBRANCH   7   1
ENDBRANCH   8   5
TORSDOF 6
ENDMDL
MODEL 8
REMARK VINA RESULT:      -6.7     16.729     18.337
REMARK  Name = 40780380
REMARK  10 active torsions:
REMARK  status: ('A' for Active; 'I' for Inactive)
REMARK    1  A    between atoms: N_1  and  C_7
REMARK    2  A    between atoms: N_1  and  C_13
REMARK    3  A    between atoms: N_2  and  C_16
REMARK    4  A    between atoms: C_5  and  C_8
REMARK    5  A    between atoms: C_11  and  C_14
REMARK    6  A    between atoms: C_12  and  C_15
REMARK    7  A    between atoms: C_13  and  C_17
REMARK    8  A    between atoms: C_20  and  C_21
REMARK    9  A    between atoms: C_21  and  C_25
REMARK   10  A    between atoms: C_21  and  C_26
REMARK                            x       y       z     vdW  Elec       q    Type
REMARK                         _______ _______ _______ _____ _____    ______ ____
ROOT
ATOM      2  N   UNL     1      -7.419  -9.999  16.840  0.00  0.00    -0.236 N 
ATOM      3  N   UNL     1      -7.991  -8.803  16.621  0.00  0.00    -0.171 NA
ATOM      8  C   UNL     1      -9.342 -10.161  17.865  0.00  0.00    +0.003 A 
ATOM     11  C   UNL     1      -8.187 -10.850  17.580  0.00  0.00    +0.046 A 
ATOM     12  C   UNL     1      -9.165  -8.908  17.249  0.00  0.00    +0.064 A 
ATOM     14  C   UNL     1      -7.763 -12.217  17.944  0.00  0.00    +0.066 C 
ATOM     15  C   UNL     1     -10.100  -7.769  17.232  0.00  0.00    +0.068 C 
ENDROOT
BRANCH   2  16
ATOM     16  C   UNL     1      -6.151 -10.265  16.322  0.00  0.00    +0.066 A 
ATOM     18  C   UNL     1      -5.040 -10.273  17.168  0.00  0.00    +0.028 A 
ATOM     19  C   UNL     1      -5.994 -10.517  14.960  0.00  0.00    +0.028 A 
ATOM     20  C   UNL     1      -3.615 -10.789  15.285  0.00  0.00    -0.045 A 
ATOM     22  C   UNL     1      -3.772 -10.535  16.649  0.00  0.00    +0.006 A 
ATOM     23  C   UNL     1      -4.726 -10.779  14.441  0.00  0.00    +0.006 A 
BRANCH  20  21
ATOM     21  C   UNL     1      -2.259 -11.067  14.732  0.00  0.00    +0.013 C 
ATOM     25  C   UNL     1      -2.047 -10.429  13.345  0.00  0.00    +0.012 C 
ATOM     26  C   UNL     1      -1.131 -10.629  15.685  0.00  0.00    +0.012 C 
ENDBRANCH  20  21
ENDBRANCH   2  16
BRANCH   8   5
ATOM      5  C   UNL     1     -10.532 -10.646  18.660  0.00  0.00    +0.047 C 
ATOM      6  C   UNL     1     -11.153 -11.939  18.099  0.00  0.00    +0.035 C 
ATOM      7  C   UNL     1     -11.663 -12.733  19.314  0.00  0.00    +0.078 C 
ATOM      9  C   UNL     1     -10.223 -11.031  20.078  0.00  0.00    -0.021 C 
ATOM     10  C   UNL     1     -10.846 -12.161  20.431  0.00  0.00    -0.012 C 
BRANCH   7   1
ATOM      1  N   UNL     1     -13.089 -12.533  19.540  0.00  0.00    -0.304 NA
ATOM     30  H   UNL     1     -13.598 -13.366  19.245  0.00  0.00    +0.123 HD
BRANCH   1  13
ATOM     13  C   UNL     1     -13.366 -12.284  20.948  0.00  0.00    +0.137 C 
BRANCH  13  17
ATOM      4  N   UNL     1     -15.443 -11.429  21.884  0.00  0.00    -0.259 NA
ATOM     17  C   UNL     1     -14.349 -11.159  21.137  0.00  0.00    +0.055 A 
ATOM     24  C   UNL     1     -14.094  -9.930  20.552  0.00  0.00    +0.024 A 
ATOM     27  C   UNL     1     -15.022  -8.911  20.747  0.00  0.00    +0.003 A 
ATOM     28  C   UNL     1     -16.322 -10.416  22.051  0.00  0.00    +0.111 A 
ATOM     29  C   UNL     1     -16.158  -9.151  21.509  0.00  0.00    +0.020 A 
ENDBRANCH  13  17
ENDBRANCH   1  13
ENDBRANCH   7   1
ENDBRANCH   8   5
TORSDOF 6
ENDMDL
MODEL 9
REMARK VINA RESULT:      -6.7     27.921     32.590
REMARK  Name = 40780380
REMARK  10 active torsions:
REMARK  status: ('A' for Active; 'I' for Inactive)
REMARK    1  A    between atoms: N_1  and  C_7
REMARK    2  A    between atoms: N_1  and  C_13
REMARK    3  A    between atoms: N_2  and  C_16
REMARK    4  A    between atoms: C_5  and  C_8
REMARK    5  A    between atoms: C_11  and  C_14
REMARK    6  A    between atoms: C_12  and  C_15
REMARK    7  A    between atoms: C_13  and  C_17
REMARK    8  A    between atoms: C_20  and  C_21
REMARK    9  A    between atoms: C_21  and  C_25
REMARK   10  A    between atoms: C_21  and  C_26
REMARK                            x       y       z     vdW  Elec       q    Type
REMARK                         _______ _______ _______ _____ _____    ______ ____
ROOT
ATOM      2  N   UNL     1      11.197   5.061   3.055  0.00  0.00    -0.236 N 
ATOM      3  N   UNL     1      10.589   4.261   3.946  0.00  0.00    -0.171 NA
ATOM      8  C   UNL     1      10.825   6.386   4.751  0.00  0.00    +0.003 A 
ATOM     11  C   UNL     1      11.363   6.344   3.488  0.00  0.00    +0.046 A 
ATOM     12  C   UNL     1      10.364   5.076   4.981  0.00  0.00    +0.064 A 
ATOM     14  C   UNL     1      12.007   7.397   2.677  0.00  0.00    +0.066 C 
ATOM     15  C   UNL     1       9.698   4.550   6.186  0.00  0.00    +0.068 C 
ENDROOT
BRANCH   2  16
ATOM     16  C   UNL     1      11.590   4.546   1.819  0.00  0.00    +0.066 A 
ATOM     18  C   UNL     1      12.831   3.920   1.688  0.00  0.00    +0.028 A 
ATOM     19  C   UNL     1      10.746   4.662   0.715  0.00  0.00    +0.028 A 
ATOM     20  C   UNL     1      12.380   3.523  -0.653  0.00  0.00    -0.045 A 
ATOM     22  C   UNL     1      13.225   3.408   0.451  0.00  0.00    +0.006 A 
ATOM     23  C   UNL     1      11.141   4.150  -0.521  0.00  0.00    +0.006 A 
BRANCH  20  21
ATOM     21  C   UNL     1      12.803   2.977  -1.975  0.00  0.00    +0.013 C 
ATOM     25  C   UNL     1      11.726   2.078  -2.612  0.00  0.00    +0.012 C 
ATOM     26  C   UNL     1      13.214   4.082  -2.965  0.00  0.00    +0.012 C 
ENDBRANCH  20  21
ENDBRANCH   2  16
BRANCH   8   5
ATOM      5  C   UNL     1      10.749   7.574   5.682  0.00  0.00    +0.047 C 
ATOM      6  C   UNL     1       9.342   8.195   5.762  0.00  0.00    +0.035 C 
ATOM      7  C   UNL     1       9.177   8.701   7.205  0.00  0.00    +0.078 C 
ATOM      9  C   UNL     1      11.039   7.261   7.122  0.00  0.00    -0.021 C 
ATOM     10  C   UNL     1      10.187   7.882   7.945  0.00  0.00    -0.012 C 
BRANCH   7   1
ATOM      1  N   UNL     1       9.457  10.127   7.321  0.00  0.00    -0.304 NA
ATOM     30  H   UNL     1       8.608  10.656   7.122  0.00  0.00    +0.123 HD
BRANCH   1  13
ATOM     13  C   UNL     1       9.919  10.462   8.661  0.00  0.00    +0.137 C 
BRANCH  13  17
ATOM      4  N   UNL     1       8.581  12.481   8.434  0.00  0.00    -0.259 NA
ATOM     17  C   UNL     1       9.097  11.562   9.280  0.00  0.00    +0.055 A 
ATOM     24  C   UNL     1       8.912  11.581  10.652  0.00  0.00    +0.024 A 
ATOM     27  C   UNL     1       8.147  12.610  11.192  0.00  0.00    +0.003 A 
ATOM     28  C   UNL     1       7.843  13.466   8.994  0.00  0.00    +0.111 A 
ATOM     29  C   UNL     1       7.599  13.573  10.353  0.00  0.00    +0.020 A 
ENDBRANCH  13  17
ENDBRANCH   1  13
ENDBRANCH   7   1
ENDBRANCH   8   5
TORSDOF 6
ENDMDL
MODEL 10
REMARK VINA RESULT:      -6.5     16.800     18.332
REMARK  Name = 40780380
REMARK  10 active torsions:
REMARK  status: ('A' for Active; 'I' for Inactive)
REMARK    1  A    between atoms: N_1  and  C_7
REMARK    2  A    between atoms: N_1  and  C_13
REMARK    3  A    between atoms: N_2  and  C_16
REMARK    4  A    between atoms: C_5  and  C_8
REMARK    5  A    between atoms: C_11  and  C_14
REMARK    6  A    between atoms: C_12  and  C_15
REMARK    7  A    between atoms: C_13  and  C_17
REMARK    8  A    between atoms: C_20  and  C_21
REMARK    9  A    between atoms: C_21  and  C_25
REMARK   10  A    between atoms: C_21  and  C_26
REMARK                            x       y       z     vdW  Elec       q    Type
REMARK                         _______ _______ _______ _____ _____    ______ ____
ROOT
ATOM      2  N   UNL     1      -7.399 -10.092  16.962  0.00  0.00    -0.236 N 
ATOM      3  N   UNL     1      -8.035  -8.929  16.744  0.00  0.00    -0.171 NA
ATOM      8  C   UNL     1      -9.293 -10.344  18.021  0.00  0.00    +0.003 A 
ATOM     11  C   UNL     1      -8.110 -10.974  17.722  0.00  0.00    +0.046 A 
ATOM     12  C   UNL     1      -9.191  -9.088  17.393  0.00  0.00    +0.064 A 
ATOM     14  C   UNL     1      -7.611 -12.315  18.088  0.00  0.00    +0.066 C 
ATOM     15  C   UNL     1     -10.184  -7.999  17.384  0.00  0.00    +0.068 C 
ENDROOT
BRANCH   2  16
ATOM     16  C   UNL     1      -6.128 -10.297  16.425  0.00  0.00    +0.066 A 
ATOM     18  C   UNL     1      -5.012 -10.323  17.263  0.00  0.00    +0.028 A 
ATOM     19  C   UNL     1      -5.973 -10.471  15.050  0.00  0.00    +0.028 A 
ATOM     20  C   UNL     1      -3.586 -10.700  15.349  0.00  0.00    -0.045 A 
ATOM     22  C   UNL     1      -3.741 -10.524  16.725  0.00  0.00    +0.006 A 
ATOM     23  C   UNL     1      -4.702 -10.673  14.512  0.00  0.00    +0.006 A 
BRANCH  20  21
ATOM     21  C   UNL     1      -2.227 -10.913  14.774  0.00  0.00    +0.013 C 
ATOM     25  C   UNL     1      -2.142 -10.498  13.292  0.00  0.00    +0.012 C 
ATOM     26  C   UNL     1      -1.127 -10.198  15.580  0.00  0.00    +0.012 C 
ENDBRANCH  20  21
ENDBRANCH   2  16
BRANCH   8   5
ATOM      5  C   UNL     1     -10.444 -10.881  18.840  0.00  0.00    +0.047 C 
ATOM      6  C   UNL     1     -10.652 -10.126  20.166  0.00  0.00    +0.035 C 
ATOM      7  C   UNL     1     -12.168 -10.126  20.427  0.00  0.00    +0.078 C 
ATOM      9  C   UNL     1     -11.790 -10.756  18.188  0.00  0.00    -0.021 C 
ATOM     10  C   UNL     1     -12.725 -10.352  19.055  0.00  0.00    -0.012 C 
BRANCH   7   1
ATOM      1  N   UNL     1     -12.566 -11.185  21.345  0.00  0.00    -0.304 NA
ATOM     30  H   UNL     1     -12.362 -10.897  22.303  0.00  0.00    +0.123 HD
BRANCH   1  13
ATOM     13  C   UNL     1     -13.991 -11.468  21.232  0.00  0.00    +0.137 C 
BRANCH  13  17
ATOM      4  N   UNL     1     -15.377 -13.339  21.937  0.00  0.00    -0.259 NA
ATOM     17  C   UNL     1     -14.462 -12.415  22.305  0.00  0.00    +0.055 A 
ATOM     24  C   UNL     1     -13.948 -12.299  23.585  0.00  0.00    +0.024 A 
ATOM     27  C   UNL     1     -14.403 -13.190  24.552  0.00  0.00    +0.003 A 
ATOM     28  C   UNL     1     -15.796 -14.187  22.902  0.00  0.00    +0.111 A 
ATOM     29  C   UNL     1     -15.344 -14.154  24.212  0.00  0.00    +0.020 A 
ENDBRANCH  13  17
ENDBRANCH   1  13
ENDBRANCH   7   1
ENDBRANCH   8   5
TORSDOF 6
ENDMDL
