MODEL 1
REMARK VINA RESULT:      -8.2      0.000      0.000
REMARK  Name = 28960541
REMARK  6 active torsions:
REMARK  status: ('A' for Active; 'I' for Inactive)
REMARK    1  A    between atoms: O_6  and  C_14
REMARK    2  A    between atoms: N_9  and  C_13
REMARK    3  A    between atoms: N_10  and  C_15
REMARK    4  A    between atoms: N_12  and  C_26
REMARK    5  A    between atoms: C_23  and  C_24
REMARK    6  A    between atoms: C_29  and  C_32
REMARK                            x       y       z     vdW  Elec       q    Type
REMARK                         _______ _______ _______ _____ _____    ______ ____
ROOT
ATOM      4  O   UNL     1      12.976   9.088  19.121  0.00  0.00    -0.342 OA
ATOM      5  O   UNL     1      11.104   7.926  18.395  0.00  0.00    -0.347 OA
ATOM     13  C   UNL     1      11.389   8.317  20.765  0.00  0.00    +0.143 C 
ATOM     14  C   UNL     1      12.160   6.985  20.914  0.00  0.00    +0.159 C 
ATOM     15  C   UNL     1      13.471   6.939  20.098  0.00  0.00    +0.136 C 
ATOM     16  C   UNL     1      11.574   8.894  19.349  0.00  0.00    +0.270 C 
ATOM     17  C   UNL     1      13.405   7.762  18.794  0.00  0.00    +0.170 C 
ATOM     18  C   UNL     1      12.295   7.338  17.850  0.00  0.00    +0.196 C 
ENDROOT
BRANCH  15  10
ATOM      8  O   UNL     1      16.257   6.533  19.574  0.00  0.00    -0.252 OA
ATOM     10  N   UNL     1      14.579   7.397  20.909  0.00  0.00    -0.291 N 
ATOM     12  N   UNL     1      16.759   7.712  21.541  0.00  0.00    -0.269 N 
ATOM     25  C   UNL     1      15.915   7.153  20.578  0.00  0.00    +0.304 C 
ATOM     33  H   UNL     1      14.373   7.847  21.796  0.00  0.00    +0.151 HD
ATOM     37  H   UNL     1      16.311   8.196  22.315  0.00  0.00    +0.156 HD
BRANCH  12  26
ATOM     26  C   UNL     1      18.173   7.687  21.574  0.00  0.00    +0.035 A 
ATOM     27  C   UNL     1      18.859   6.526  21.216  0.00  0.00    +0.035 A 
ATOM     28  C   UNL     1      18.881   8.822  21.965  0.00  0.00    +0.023 A 
ATOM     29  C   UNL     1      20.253   6.501  21.248  0.00  0.00    +0.057 A 
ATOM     30  C   UNL     1      20.276   8.798  21.999  0.00  0.00    +0.002 A 
ATOM     31  C   UNL     1      20.962   7.638  21.640  0.00  0.00    +0.012 A 
BRANCH  29  32
ATOM      1  F   UNL     1      20.235   4.425  20.090  0.00  0.00    -0.166 F 
ATOM      2  F   UNL     1      22.127   5.496  20.152  0.00  0.00    -0.166 F 
ATOM      3  F   UNL     1      21.384   4.508  21.934  0.00  0.00    -0.166 F 
ATOM     32  C   UNL     1      20.986   5.260  20.865  0.00  0.00    +0.417 C 
ENDBRANCH  29  32
ENDBRANCH  12  26
ENDBRANCH  15  10
BRANCH  13   9
ATOM      9  N   UNL     1      11.859   9.285  21.759  0.00  0.00    -0.293 NA
ATOM     19  C   UNL     1      12.041  10.606  21.143  0.00  0.00    +0.085 C 
ATOM     20  C   UNL     1      10.925   9.352  22.891  0.00  0.00    +0.085 C 
ATOM     21  C   UNL     1      12.584  11.616  22.155  0.00  0.00    +0.028 C 
ATOM     22  C   UNL     1      11.428  10.319  23.964  0.00  0.00    +0.028 C 
ATOM     23  C   UNL     1      11.680  11.709  23.383  0.00  0.00    +0.077 C 
BRANCH  23  24
ATOM      7  O   UNL     1      13.036  13.529  24.131  0.00  0.00    -0.276 OA
ATOM     11  N   UNL     1      12.012  12.210  25.714  0.00  0.00    -0.329 N 
ATOM     24  C   UNL     1      12.310  12.582  24.424  0.00  0.00    +0.214 C 
ATOM     35  H   UNL     1      11.419  11.415  25.929  0.00  0.00    +0.145 HD
ATOM     36  H   UNL     1      12.386  12.724  26.504  0.00  0.00    +0.145 HD
ENDBRANCH  23  24
ENDBRANCH  13   9
BRANCH  14   6
ATOM      6  O   UNL     1      11.300   5.930  20.464  0.00  0.00    -0.388 OA
ATOM     34  H   UNL     1      11.084   6.105  19.533  0.00  0.00    +0.210 HD
ENDBRANCH  14   6
TORSDOF 6
ENDMDL
MODEL 2
REMARK VINA RESULT:      -8.1      2.540      4.522
REMARK  Name = 28960541
REMARK  6 active torsions:
REMARK  status: ('A' for Active; 'I' for Inactive)
REMARK    1  A    between atoms: O_6  and  C_14
REMARK    2  A    between atoms: N_9  and  C_13
REMARK    3  A    between atoms: N_10  and  C_15
REMARK    4  A    between atoms: N_12  and  C_26
REMARK    5  A    between atoms: C_23  and  C_24
REMARK    6  A    between atoms: C_29  and  C_32
REMARK                            x       y       z     vdW  Elec       q    Type
REMARK                         _______ _______ _______ _____ _____    ______ ____
ROOT
ATOM      4  O   UNL     1      11.692   7.073  19.863  0.00  0.00    -0.342 OA
ATOM      5  O   UNL     1      10.153   8.394  20.987  0.00  0.00    -0.347 OA
ATOM     13  C   UNL     1      12.012   9.463  19.869  0.00  0.00    +0.143 C 
ATOM     14  C   UNL     1      12.869   9.365  21.153  0.00  0.00    +0.159 C 
ATOM     15  C   UNL     1      13.130   7.912  21.608  0.00  0.00    +0.136 C 
ATOM     16  C   UNL     1      10.984   8.318  19.816  0.00  0.00    +0.270 C 
ATOM     17  C   UNL     1      11.975   6.950  21.260  0.00  0.00    +0.170 C 
ATOM     18  C   UNL     1      10.635   7.352  21.849  0.00  0.00    +0.196 C 
ENDROOT
BRANCH  15  10
ATOM      8  O   UNL     1      15.787   8.627  22.399  0.00  0.00    -0.252 OA
ATOM     10  N   UNL     1      14.364   7.423  21.031  0.00  0.00    -0.291 N 
ATOM     12  N   UNL     1      16.625   7.192  20.740  0.00  0.00    -0.269 N 
ATOM     25  C   UNL     1      15.625   7.827  21.481  0.00  0.00    +0.304 C 
ATOM     33  H   UNL     1      14.310   6.821  20.216  0.00  0.00    +0.151 HD
ATOM     37  H   UNL     1      16.318   6.554  20.010  0.00  0.00    +0.156 HD
BRANCH  12  26
ATOM     26  C   UNL     1      18.027   7.328  20.880  0.00  0.00    +0.035 A 
ATOM     27  C   UNL     1      18.853   6.213  20.739  0.00  0.00    +0.035 A 
ATOM     28  C   UNL     1      18.581   8.577  21.160  0.00  0.00    +0.023 A 
ATOM     29  C   UNL     1      20.235   6.348  20.877  0.00  0.00    +0.057 A 
ATOM     30  C   UNL     1      19.962   8.711  21.299  0.00  0.00    +0.002 A 
ATOM     31  C   UNL     1      20.789   7.597  21.157  0.00  0.00    +0.012 A 
BRANCH  29  32
ATOM      1  F   UNL     1      20.432   4.037  20.356  0.00  0.00    -0.166 F 
ATOM      2  F   UNL     1      22.096   5.315  19.786  0.00  0.00    -0.166 F 
ATOM      3  F   UNL     1      21.780   4.817  21.873  0.00  0.00    -0.166 F 
ATOM     32  C   UNL     1      21.119   5.156  20.726  0.00  0.00    +0.417 C 
ENDBRANCH  29  32
ENDBRANCH  12  26
ENDBRANCH  15  10
BRANCH  13   9
ATOM      9  N   UNL     1      12.872   9.412  18.684  0.00  0.00    -0.293 NA
ATOM     19  C   UNL     1      12.058   9.363  17.461  0.00  0.00    +0.085 C 
ATOM     20  C   UNL     1      13.789  10.558  18.665  0.00  0.00    +0.085 C 
ATOM     21  C   UNL     1      12.941   9.252  16.217  0.00  0.00    +0.028 C 
ATOM     22  C   UNL     1      14.731  10.491  17.462  0.00  0.00    +0.028 C 
ATOM     23  C   UNL     1      13.951  10.396  16.152  0.00  0.00    +0.077 C 
BRANCH  23  24
ATOM      7  O   UNL     1      15.077   9.076  14.508  0.00  0.00    -0.276 OA
ATOM     11  N   UNL     1      15.560  11.323  14.621  0.00  0.00    -0.329 N 
ATOM     24  C   UNL     1      14.903  10.182  15.015  0.00  0.00    +0.214 C 
ATOM     35  H   UNL     1      15.407  12.222  15.066  0.00  0.00    +0.145 HD
ATOM     36  H   UNL     1      16.233  11.301  13.862  0.00  0.00    +0.145 HD
ENDBRANCH  23  24
ENDBRANCH  13   9
BRANCH  14   6
ATOM      6  O   UNL     1      12.172  10.057  22.196  0.00  0.00    -0.388 OA
ATOM     34  H   UNL     1      12.710   9.990  23.003  0.00  0.00    +0.210 HD
ENDBRANCH  14   6
TORSDOF 6
ENDMDL
MODEL 3
REMARK VINA RESULT:      -8.1     28.259     29.971
REMARK  Name = 28960541
REMARK  6 active torsions:
REMARK  status: ('A' for Active; 'I' for Inactive)
REMARK    1  A    between atoms: O_6  and  C_14
REMARK    2  A    between atoms: N_9  and  C_13
REMARK    3  A    between atoms: N_10  and  C_15
REMARK    4  A    between atoms: N_12  and  C_26
REMARK    5  A    between atoms: C_23  and  C_24
REMARK    6  A    between atoms: C_29  and  C_32
REMARK                            x       y       z     vdW  Elec       q    Type
REMARK                         _______ _______ _______ _____ _____    ______ ____
ROOT
ATOM      4  O   UNL     1      -9.314  -8.378  17.487  0.00  0.00    -0.342 OA
ATOM      5  O   UNL     1     -11.331  -9.449  17.889  0.00  0.00    -0.347 OA
ATOM     13  C   UNL     1      -9.341 -10.787  17.572  0.00  0.00    +0.143 C 
ATOM     14  C   UNL     1      -9.604 -10.858  16.050  0.00  0.00    +0.159 C 
ATOM     15  C   UNL     1      -9.579  -9.477  15.358  0.00  0.00    +0.136 C 
ATOM     16  C   UNL     1      -9.920  -9.488  18.162  0.00  0.00    +0.270 C 
ATOM     17  C   UNL     1     -10.064  -8.331  16.270  0.00  0.00    +0.170 C 
ATOM     18  C   UNL     1     -11.471  -8.518  16.805  0.00  0.00    +0.196 C 
ENDROOT
BRANCH  15  10
ATOM      8  O   UNL     1      -8.145 -10.908  13.334  0.00  0.00    -0.252 OA
ATOM     10  N   UNL     1      -8.246  -9.187  14.873  0.00  0.00    -0.291 N 
ATOM     12  N   UNL     1      -6.345  -9.428  13.617  0.00  0.00    -0.269 N 
ATOM     25  C   UNL     1      -7.619  -9.941  13.877  0.00  0.00    +0.304 C 
ATOM     33  H   UNL     1      -7.717  -8.452  15.331  0.00  0.00    +0.151 HD
ATOM     37  H   UNL     1      -6.060  -8.617  14.159  0.00  0.00    +0.156 HD
BRANCH  12  26
ATOM     26  C   UNL     1      -5.393  -9.903  12.684  0.00  0.00    +0.035 A 
ATOM     27  C   UNL     1      -5.453  -9.487  11.354  0.00  0.00    +0.035 A 
ATOM     28  C   UNL     1      -4.397 -10.787  13.094  0.00  0.00    +0.023 A 
ATOM     29  C   UNL     1      -4.515  -9.955  10.433  0.00  0.00    +0.057 A 
ATOM     30  C   UNL     1      -3.459 -11.256  12.174  0.00  0.00    +0.002 A 
ATOM     31  C   UNL     1      -3.518 -10.840  10.844  0.00  0.00    +0.012 A 
BRANCH  29  32
ATOM      1  F   UNL     1      -3.688  -8.515   8.732  0.00  0.00    -0.166 F 
ATOM      2  F   UNL     1      -4.311 -10.504   8.114  0.00  0.00    -0.166 F 
ATOM      3  F   UNL     1      -5.801  -9.020   8.646  0.00  0.00    -0.166 F 
ATOM     32  C   UNL     1      -4.579  -9.510   9.011  0.00  0.00    +0.417 C 
ENDBRANCH  29  32
ENDBRANCH  12  26
ENDBRANCH  15  10
BRANCH  13   9
ATOM      9  N   UNL     1      -7.902 -10.854  17.838  0.00  0.00    -0.293 NA
ATOM     19  C   UNL     1      -7.653 -10.997  19.279  0.00  0.00    +0.085 C 
ATOM     20  C   UNL     1      -7.291 -11.955  17.082  0.00  0.00    +0.085 C 
ATOM     21  C   UNL     1      -6.153 -11.013  19.579  0.00  0.00    +0.028 C 
ATOM     22  C   UNL     1      -5.779 -12.005  17.307  0.00  0.00    +0.028 C 
ATOM     23  C   UNL     1      -5.443 -12.112  18.793  0.00  0.00    +0.077 C 
BRANCH  23  24
ATOM      7  O   UNL     1      -3.421 -12.246  20.060  0.00  0.00    -0.276 OA
ATOM     11  N   UNL     1      -3.285 -11.612  17.853  0.00  0.00    -0.329 N 
ATOM     24  C   UNL     1      -3.960 -12.009  18.982  0.00  0.00    +0.214 C 
ATOM     35  H   UNL     1      -3.756 -11.410  16.977  0.00  0.00    +0.145 HD
ATOM     36  H   UNL     1      -2.276 -11.502  17.861  0.00  0.00    +0.145 HD
ENDBRANCH  23  24
ENDBRANCH  13   9
BRANCH  14   6
ATOM      6  O   UNL     1     -10.897 -11.447  15.858  0.00  0.00    -0.388 OA
ATOM     34  H   UNL     1     -11.533 -10.723  15.730  0.00  0.00    +0.210 HD
ENDBRANCH  14   6
TORSDOF 6
ENDMDL
MODEL 4
REMARK VINA RESULT:      -8.0     28.069     29.815
REMARK  Name = 28960541
REMARK  6 active torsions:
REMARK  status: ('A' for Active; 'I' for Inactive)
REMARK    1  A    between atoms: O_6  and  C_14
REMARK    2  A    between atoms: N_9  and  C_13
REMARK    3  A    between atoms: N_10  and  C_15
REMARK    4  A    between atoms: N_12  and  C_26
REMARK    5  A    between atoms: C_23  and  C_24
REMARK    6  A    between atoms: C_29  and  C_32
REMARK                            x       y       z     vdW  Elec       q    Type
REMARK                         _______ _______ _______ _____ _____    ______ ____
ROOT
ATOM      4  O   UNL     1      -9.495  -8.450  17.664  0.00  0.00    -0.342 OA
ATOM      5  O   UNL     1     -11.470  -9.594  18.077  0.00  0.00    -0.347 OA
ATOM     13  C   UNL     1      -9.449 -10.861  17.669  0.00  0.00    +0.143 C 
ATOM     14  C   UNL     1      -9.748 -10.889  16.152  0.00  0.00    +0.159 C 
ATOM     15  C   UNL     1      -9.780  -9.486  15.505  0.00  0.00    +0.136 C 
ATOM     16  C   UNL     1     -10.052  -9.599  18.315  0.00  0.00    +0.270 C 
ATOM     17  C   UNL     1     -10.275  -8.385  16.467  0.00  0.00    +0.170 C 
ATOM     18  C   UNL     1     -11.663  -8.632  17.028  0.00  0.00    +0.196 C 
ENDROOT
BRANCH  15  10
ATOM      8  O   UNL     1      -8.471 -10.622  13.226  0.00  0.00    -0.252 OA
ATOM     10  N   UNL     1      -8.468  -9.140  15.000  0.00  0.00    -0.291 N 
ATOM     12  N   UNL     1      -6.636  -9.214  13.627  0.00  0.00    -0.269 N 
ATOM     25  C   UNL     1      -7.903  -9.748  13.875  0.00  0.00    +0.304 C 
ATOM     33  H   UNL     1      -7.905  -8.483  15.531  0.00  0.00    +0.151 HD
ATOM     37  H   UNL     1      -6.311  -8.491  14.264  0.00  0.00    +0.156 HD
BRANCH  12  26
ATOM     26  C   UNL     1      -5.739  -9.557  12.587  0.00  0.00    +0.035 A 
ATOM     27  C   UNL     1      -4.644 -10.378  12.853  0.00  0.00    +0.035 A 
ATOM     28  C   UNL     1      -5.951  -9.073  11.296  0.00  0.00    +0.023 A 
ATOM     29  C   UNL     1      -3.760 -10.717  11.829  0.00  0.00    +0.057 A 
ATOM     30  C   UNL     1      -5.067  -9.411  10.271  0.00  0.00    +0.002 A 
ATOM     31  C   UNL     1      -3.972 -10.232  10.537  0.00  0.00    +0.012 A 
BRANCH  29  32
ATOM      1  F   UNL     1      -2.633 -12.770  11.420  0.00  0.00    -0.166 F 
ATOM      2  F   UNL     1      -1.388 -11.027  11.795  0.00  0.00    -0.166 F 
ATOM      3  F   UNL     1      -2.478 -11.950  13.428  0.00  0.00    -0.166 F 
ATOM     32  C   UNL     1      -2.588 -11.595  12.113  0.00  0.00    +0.417 C 
ENDBRANCH  29  32
ENDBRANCH  12  26
ENDBRANCH  15  10
BRANCH  13   9
ATOM      9  N   UNL     1      -8.003 -10.893  17.899  0.00  0.00    -0.293 NA
ATOM     19  C   UNL     1      -7.715 -11.085  19.327  0.00  0.00    +0.085 C 
ATOM     20  C   UNL     1      -7.378 -11.943  17.085  0.00  0.00    +0.085 C 
ATOM     21  C   UNL     1      -6.209 -11.066  19.591  0.00  0.00    +0.028 C 
ATOM     22  C   UNL     1      -5.860 -11.955  17.273  0.00  0.00    +0.028 C 
ATOM     23  C   UNL     1      -5.484 -12.110  18.745  0.00  0.00    +0.077 C 
BRANCH  23  24
ATOM      7  O   UNL     1      -3.440 -12.152  19.981  0.00  0.00    -0.276 OA
ATOM     11  N   UNL     1      -3.354 -11.600  17.749  0.00  0.00    -0.329 N 
ATOM     24  C   UNL     1      -4.002 -11.968  18.904  0.00  0.00    +0.214 C 
ATOM     35  H   UNL     1      -3.844 -11.442  16.874  0.00  0.00    +0.145 HD
ATOM     36  H   UNL     1      -2.348 -11.469  17.735  0.00  0.00    +0.145 HD
ENDBRANCH  23  24
ENDBRANCH  13   9
BRANCH  14   6
ATOM      6  O   UNL     1     -11.027 -11.510  15.970  0.00  0.00    -0.388 OA
ATOM     34  H   UNL     1     -11.422 -11.631  16.850  0.00  0.00    +0.210 HD
ENDBRANCH  14   6
TORSDOF 6
ENDMDL
MODEL 5
REMARK VINA RESULT:      -7.9     15.459     18.826
REMARK  Name = 28960541
REMARK  6 active torsions:
REMARK  status: ('A' for Active; 'I' for Inactive)
REMARK    1  A    between atoms: O_6  and  C_14
REMARK    2  A    between atoms: N_9  and  C_13
REMARK    3  A    between atoms: N_10  and  C_15
REMARK    4  A    between atoms: N_12  and  C_26
REMARK    5  A    between atoms: C_23  and  C_24
REMARK    6  A    between atoms: C_29  and  C_32
REMARK                            x       y       z     vdW  Elec       q    Type
REMARK                         _______ _______ _______ _____ _____    ______ ____
ROOT
ATOM      4  O   UNL     1      14.255   3.996   1.515  0.00  0.00    -0.342 OA
ATOM      5  O   UNL     1      13.731   4.180  -0.737  0.00  0.00    -0.347 OA
ATOM     13  C   UNL     1      13.825   6.188   0.608  0.00  0.00    +0.143 C 
ATOM     14  C   UNL     1      12.323   6.056   0.949  0.00  0.00    +0.159 C 
ATOM     15  C   UNL     1      11.980   4.767   1.726  0.00  0.00    +0.136 C 
ATOM     16  C   UNL     1      14.444   4.803   0.345  0.00  0.00    +0.270 C 
ATOM     17  C   UNL     1      12.895   3.578   1.365  0.00  0.00    +0.170 C 
ATOM     18  C   UNL     1      12.880   3.209  -0.107  0.00  0.00    +0.196 C 
ENDROOT
BRANCH  15  10
ATOM      8  O   UNL     1       9.858   5.745   3.381  0.00  0.00    -0.252 OA
ATOM     10  N   UNL     1      12.039   5.014   3.152  0.00  0.00    -0.291 N 
ATOM     12  N   UNL     1      11.300   5.634   5.230  0.00  0.00    -0.269 N 
ATOM     25  C   UNL     1      10.950   5.494   3.884  0.00  0.00    +0.304 C 
ATOM     33  H   UNL     1      12.931   4.906   3.623  0.00  0.00    +0.151 HD
ATOM     37  H   UNL     1      12.252   5.380   5.483  0.00  0.00    +0.156 HD
BRANCH  12  26
ATOM     26  C   UNL     1      10.487   6.089   6.295  0.00  0.00    +0.035 A 
ATOM     27  C   UNL     1      10.289   5.281   7.415  0.00  0.00    +0.035 A 
ATOM     28  C   UNL     1       9.885   7.344   6.224  0.00  0.00    +0.023 A 
ATOM     29  C   UNL     1       9.487   5.730   8.466  0.00  0.00    +0.057 A 
ATOM     30  C   UNL     1       9.082   7.793   7.274  0.00  0.00    +0.002 A 
ATOM     31  C   UNL     1       8.884   6.986   8.394  0.00  0.00    +0.012 A 
BRANCH  29  32
ATOM      1  F   UNL     1       9.153   3.546   9.343  0.00  0.00    -0.166 F 
ATOM      2  F   UNL     1      10.292   4.932  10.572  0.00  0.00    -0.166 F 
ATOM      3  F   UNL     1       8.147   5.178  10.368  0.00  0.00    -0.166 F 
ATOM     32  C   UNL     1       9.275   4.867   9.663  0.00  0.00    +0.417 C 
ENDBRANCH  29  32
ENDBRANCH  12  26
ENDBRANCH  15  10
BRANCH  13   9
ATOM      9  N   UNL     1      14.536   6.848   1.706  0.00  0.00    -0.293 NA
ATOM     19  C   UNL     1      15.853   7.319   1.256  0.00  0.00    +0.085 C 
ATOM     20  C   UNL     1      13.733   7.953   2.246  0.00  0.00    +0.085 C 
ATOM     21  C   UNL     1      16.630   7.961   2.406  0.00  0.00    +0.028 C 
ATOM     22  C   UNL     1      14.437   8.619   3.429  0.00  0.00    +0.028 C 
ATOM     23  C   UNL     1      15.835   9.098   3.044  0.00  0.00    +0.077 C 
BRANCH  23  24
ATOM      7  O   UNL     1      17.659  10.120   4.200  0.00  0.00    -0.276 OA
ATOM     11  N   UNL     1      15.842   9.426   5.428  0.00  0.00    -0.329 N 
ATOM     24  C   UNL     1      16.545   9.607   4.261  0.00  0.00    +0.214 C 
ATOM     35  H   UNL     1      14.927   8.988   5.452  0.00  0.00    +0.145 HD
ATOM     36  H   UNL     1      16.224   9.727   6.319  0.00  0.00    +0.145 HD
ENDBRANCH  23  24
ENDBRANCH  13   9
BRANCH  14   6
ATOM      6  O   UNL     1      11.594   6.059  -0.285  0.00  0.00    -0.388 OA
ATOM     34  H   UNL     1      11.946   5.340  -0.836  0.00  0.00    +0.210 HD
ENDBRANCH  14   6
TORSDOF 6
ENDMDL
MODEL 6
REMARK VINA RESULT:      -7.7      3.412      5.006
REMARK  Name = 28960541
REMARK  6 active torsions:
REMARK  status: ('A' for Active; 'I' for Inactive)
REMARK    1  A    between atoms: O_6  and  C_14
REMARK    2  A    between atoms: N_9  and  C_13
REMARK    3  A    between atoms: N_10  and  C_15
REMARK    4  A    between atoms: N_12  and  C_26
REMARK    5  A    between atoms: C_23  and  C_24
REMARK    6  A    between atoms: C_29  and  C_32
REMARK                            x       y       z     vdW  Elec       q    Type
REMARK                         _______ _______ _______ _____ _____    ______ ____
ROOT
ATOM      4  O   UNL     1      13.890   7.516  17.701  0.00  0.00    -0.342 OA
ATOM      5  O   UNL     1      11.654   7.991  18.091  0.00  0.00    -0.347 OA
ATOM     13  C   UNL     1      13.222   9.823  17.910  0.00  0.00    +0.143 C 
ATOM     14  C   UNL     1      13.481   9.780  19.434  0.00  0.00    +0.159 C 
ATOM     15  C   UNL     1      14.090   8.446  19.917  0.00  0.00    +0.136 C 
ATOM     16  C   UNL     1      12.830   8.428  17.389  0.00  0.00    +0.270 C 
ATOM     17  C   UNL     1      13.635   7.232  19.080  0.00  0.00    +0.170 C 
ATOM     18  C   UNL     1      12.131   7.031  19.047  0.00  0.00    +0.196 C 
ENDROOT
BRANCH  15  10
ATOM      8  O   UNL     1      15.885   7.069  21.673  0.00  0.00    -0.252 OA
ATOM     10  N   UNL     1      15.535   8.528  19.914  0.00  0.00    -0.291 N 
ATOM     12  N   UNL     1      17.687   8.093  20.571  0.00  0.00    -0.269 N 
ATOM     25  C   UNL     1      16.338   7.817  20.811  0.00  0.00    +0.304 C 
ATOM     33  H   UNL     1      15.979   9.188  19.283  0.00  0.00    +0.151 HD
ATOM     37  H   UNL     1      17.893   8.740  19.814  0.00  0.00    +0.156 HD
BRANCH  12  26
ATOM     26  C   UNL     1      18.813   7.579  21.257  0.00  0.00    +0.035 A 
ATOM     27  C   UNL     1      19.472   6.451  20.768  0.00  0.00    +0.035 A 
ATOM     28  C   UNL     1      19.262   8.199  22.421  0.00  0.00    +0.023 A 
ATOM     29  C   UNL     1      20.582   5.943  21.444  0.00  0.00    +0.057 A 
ATOM     30  C   UNL     1      20.372   7.692  23.098  0.00  0.00    +0.002 A 
ATOM     31  C   UNL     1      21.031   6.564  22.609  0.00  0.00    +0.012 A 
BRANCH  29  32
ATOM      1  F   UNL     1      22.142   5.031  19.900  0.00  0.00    -0.166 F 
ATOM      2  F   UNL     1      22.043   4.095  21.860  0.00  0.00    -0.166 F 
ATOM      3  F   UNL     1      20.444   3.782  20.429  0.00  0.00    -0.166 F 
ATOM     32  C   UNL     1      21.287   4.737  20.921  0.00  0.00    +0.417 C 
ENDBRANCH  29  32
ENDBRANCH  12  26
ENDBRANCH  15  10
BRANCH  13   9
ATOM      9  N   UNL     1      14.419  10.295  17.209  0.00  0.00    -0.293 NA
ATOM     19  C   UNL     1      14.191  10.309  15.758  0.00  0.00    +0.085 C 
ATOM     20  C   UNL     1      14.808  11.625  17.697  0.00  0.00    +0.085 C 
ATOM     21  C   UNL     1      15.449  10.747  15.007  0.00  0.00    +0.028 C 
ATOM     22  C   UNL     1      16.087  12.110  17.013  0.00  0.00    +0.028 C 
ATOM     23  C   UNL     1      15.937  12.110  15.493  0.00  0.00    +0.077 C 
BRANCH  23  24
ATOM      7  O   UNL     1      17.701  13.590  14.855  0.00  0.00    -0.276 OA
ATOM     11  N   UNL     1      17.878  11.370  14.277  0.00  0.00    -0.329 N 
ATOM     24  C   UNL     1      17.252  12.446  14.859  0.00  0.00    +0.214 C 
ATOM     35  H   UNL     1      17.478  10.437  14.284  0.00  0.00    +0.145 HD
ATOM     36  H   UNL     1      18.774  11.477  13.812  0.00  0.00    +0.145 HD
ENDBRANCH  23  24
ENDBRANCH  13   9
BRANCH  14   6
ATOM      6  O   UNL     1      12.225   9.980  20.096  0.00  0.00    -0.388 OA
ATOM     34  H   UNL     1      11.919   9.114  20.412  0.00  0.00    +0.210 HD
ENDBRANCH  14   6
TORSDOF 6
ENDMDL
MODEL 7
REMARK VINA RESULT:      -7.7     26.945     30.093
REMARK  Name = 28960541
REMARK  6 active torsions:
REMARK  status: ('A' for Active; 'I' for Inactive)
REMARK    1  A    between atoms: O_6  and  C_14
REMARK    2  A    between atoms: N_9  and  C_13
REMARK    3  A    between atoms: N_10  and  C_15
REMARK    4  A    between atoms: N_12  and  C_26
REMARK    5  A    between atoms: C_23  and  C_24
REMARK    6  A    between atoms: C_29  and  C_32
REMARK                            x       y       z     vdW  Elec       q    Type
REMARK                         _______ _______ _______ _____ _____    ______ ____
ROOT
ATOM      4  O   UNL     1     -15.624   3.912  22.366  0.00  0.00    -0.342 OA
ATOM      5  O   UNL     1     -17.154   4.622  23.958  0.00  0.00    -0.347 OA
ATOM     13  C   UNL     1     -17.009   5.820  21.861  0.00  0.00    +0.143 C 
ATOM     14  C   UNL     1     -15.946   6.773  22.455  0.00  0.00    +0.159 C 
ATOM     15  C   UNL     1     -14.648   6.055  22.887  0.00  0.00    +0.136 C 
ATOM     16  C   UNL     1     -16.943   4.443  22.547  0.00  0.00    +0.270 C 
ATOM     17  C   UNL     1     -14.887   4.610  23.374  0.00  0.00    +0.170 C 
ATOM     18  C   UNL     1     -15.848   4.502  24.543  0.00  0.00    +0.196 C 
ENDROOT
BRANCH  15  10
ATOM      8  O   UNL     1     -13.470   8.348  21.640  0.00  0.00    -0.252 OA
ATOM     10  N   UNL     1     -13.694   6.053  21.798  0.00  0.00    -0.291 N 
ATOM     12  N   UNL     1     -12.276   6.912  20.218  0.00  0.00    -0.269 N 
ATOM     25  C   UNL     1     -13.167   7.224  21.248  0.00  0.00    +0.304 C 
ATOM     33  H   UNL     1     -13.457   5.164  21.368  0.00  0.00    +0.151 HD
ATOM     37  H   UNL     1     -12.136   5.926  20.017  0.00  0.00    +0.156 HD
BRANCH  12  26
ATOM     26  C   UNL     1     -11.535   7.809  19.411  0.00  0.00    +0.035 A 
ATOM     27  C   UNL     1     -11.576   7.693  18.021  0.00  0.00    +0.035 A 
ATOM     28  C   UNL     1     -10.765   8.807  20.005  0.00  0.00    +0.023 A 
ATOM     29  C   UNL     1     -10.847   8.576  17.225  0.00  0.00    +0.057 A 
ATOM     30  C   UNL     1     -10.035   9.691  19.210  0.00  0.00    +0.002 A 
ATOM     31  C   UNL     1     -10.076   9.575  17.821  0.00  0.00    +0.012 A 
BRANCH  29  32
ATOM      1  F   UNL     1     -10.456   9.580  15.107  0.00  0.00    -0.166 F 
ATOM      2  F   UNL     1     -10.118   7.437  15.252  0.00  0.00    -0.166 F 
ATOM      3  F   UNL     1     -12.142   8.215  15.247  0.00  0.00    -0.166 F 
ATOM     32  C   UNL     1     -10.890   8.452  15.740  0.00  0.00    +0.417 C 
ENDBRANCH  29  32
ENDBRANCH  12  26
ENDBRANCH  15  10
BRANCH  13   9
ATOM      9  N   UNL     1     -16.799   5.667  20.420  0.00  0.00    -0.293 NA
ATOM     19  C   UNL     1     -17.801   4.756  19.850  0.00  0.00    +0.085 C 
ATOM     20  C   UNL     1     -16.832   6.976  19.755  0.00  0.00    +0.085 C 
ATOM     21  C   UNL     1     -17.562   4.542  18.354  0.00  0.00    +0.028 C 
ATOM     22  C   UNL     1     -16.561   6.839  18.256  0.00  0.00    +0.028 C 
ATOM     23  C   UNL     1     -17.544   5.870  17.601  0.00  0.00    +0.077 C 
BRANCH  23  24
ATOM      7  O   UNL     1     -16.883   6.581  15.417  0.00  0.00    -0.276 OA
ATOM     11  N   UNL     1     -17.152   4.327  15.795  0.00  0.00    -0.329 N 
ATOM     24  C   UNL     1     -17.154   5.649  16.171  0.00  0.00    +0.214 C 
ATOM     35  H   UNL     1     -17.393   3.577  16.435  0.00  0.00    +0.145 HD
ATOM     36  H   UNL     1     -16.909   4.055  14.848  0.00  0.00    +0.145 HD
ENDBRANCH  23  24
ENDBRANCH  13   9
BRANCH  14   6
ATOM      6  O   UNL     1     -16.523   7.411  23.602  0.00  0.00    -0.388 OA
ATOM     34  H   UNL     1     -15.794   7.754  24.145  0.00  0.00    +0.210 HD
ENDBRANCH  14   6
TORSDOF 6
ENDMDL
MODEL 8
REMARK VINA RESULT:      -7.6     15.511     18.527
REMARK  Name = 28960541
REMARK  6 active torsions:
REMARK  status: ('A' for Active; 'I' for Inactive)
REMARK    1  A    between atoms: O_6  and  C_14
REMARK    2  A    between atoms: N_9  and  C_13
REMARK    3  A    between atoms: N_10  and  C_15
REMARK    4  A    between atoms: N_12  and  C_26
REMARK    5  A    between atoms: C_23  and  C_24
REMARK    6  A    between atoms: C_29  and  C_32
REMARK                            x       y       z     vdW  Elec       q    Type
REMARK                         _______ _______ _______ _____ _____    ______ ____
ROOT
ATOM      4  O   UNL     1      10.024  10.537   5.130  0.00  0.00    -0.342 OA
ATOM      5  O   UNL     1       7.909  11.350   4.636  0.00  0.00    -0.347 OA
ATOM     13  C   UNL     1       8.176   8.988   5.085  0.00  0.00    +0.143 C 
ATOM     14  C   UNL     1       8.421   8.709   3.584  0.00  0.00    +0.159 C 
ATOM     15  C   UNL     1       9.677   9.412   3.025  0.00  0.00    +0.136 C 
ATOM     16  C   UNL     1       8.633  10.413   5.451  0.00  0.00    +0.270 C 
ATOM     17  C   UNL     1       9.979  10.758   3.717  0.00  0.00    +0.170 C 
ATOM     18  C   UNL     1       8.847  11.766   3.631  0.00  0.00    +0.196 C 
ENDROOT
BRANCH  15  10
ATOM      8  O   UNL     1      10.178   7.048   1.488  0.00  0.00    -0.252 OA
ATOM     10  N   UNL     1      10.827   8.538   3.132  0.00  0.00    -0.291 N 
ATOM     12  N   UNL     1      12.190   6.757   2.663  0.00  0.00    -0.269 N 
ATOM     25  C   UNL     1      10.992   7.400   2.338  0.00  0.00    +0.304 C 
ATOM     33  H   UNL     1      11.502   8.720   3.868  0.00  0.00    +0.151 HD
ATOM     37  H   UNL     1      12.752   7.182   3.396  0.00  0.00    +0.156 HD
BRANCH  12  26
ATOM     26  C   UNL     1      12.722   5.577   2.094  0.00  0.00    +0.035 A 
ATOM     27  C   UNL     1      13.910   5.629   1.363  0.00  0.00    +0.035 A 
ATOM     28  C   UNL     1      12.060   4.361   2.262  0.00  0.00    +0.023 A 
ATOM     29  C   UNL     1      14.435   4.465   0.801  0.00  0.00    +0.057 A 
ATOM     30  C   UNL     1      12.585   3.197   1.700  0.00  0.00    +0.002 A 
ATOM     31  C   UNL     1      13.772   3.249   0.970  0.00  0.00    +0.012 A 
BRANCH  29  32
ATOM      1  F   UNL     1      16.541   3.480   0.304  0.00  0.00    -0.166 F 
ATOM      2  F   UNL     1      15.517   4.483  -1.332  0.00  0.00    -0.166 F 
ATOM      3  F   UNL     1      16.437   5.651   0.248  0.00  0.00    -0.166 F 
ATOM     32  C   UNL     1      15.705   4.521   0.021  0.00  0.00    +0.417 C 
ENDBRANCH  29  32
ENDBRANCH  12  26
ENDBRANCH  15  10
BRANCH  13   9
ATOM      9  N   UNL     1       8.896   8.011   5.904  0.00  0.00    -0.293 NA
ATOM     19  C   UNL     1       8.688   8.286   7.333  0.00  0.00    +0.085 C 
ATOM     20  C   UNL     1       8.479   6.646   5.560  0.00  0.00    +0.085 C 
ATOM     21  C   UNL     1       9.479   7.307   8.202  0.00  0.00    +0.028 C 
ATOM     22  C   UNL     1       9.261   5.610   6.369  0.00  0.00    +0.028 C 
ATOM     23  C   UNL     1       9.124   5.860   7.870  0.00  0.00    +0.077 C 
BRANCH  23  24
ATOM      7  O   UNL     1      10.492   5.207   9.717  0.00  0.00    -0.276 OA
ATOM     11  N   UNL     1      10.265   3.743   7.957  0.00  0.00    -0.329 N 
ATOM     24  C   UNL     1      10.019   4.922   8.619  0.00  0.00    +0.214 C 
ATOM     35  H   UNL     1       9.872   3.537   7.045  0.00  0.00    +0.145 HD
ATOM     36  H   UNL     1      10.862   3.031   8.365  0.00  0.00    +0.145 HD
ENDBRANCH  23  24
ENDBRANCH  13   9
BRANCH  14   6
ATOM      6  O   UNL     1       7.273   9.171   2.861  0.00  0.00    -0.388 OA
ATOM     34  H   UNL     1       6.578   9.370   3.510  0.00  0.00    +0.210 HD
ENDBRANCH  14   6
TORSDOF 6
ENDMDL
MODEL 9
REMARK VINA RESULT:      -7.6     17.959     21.642
REMARK  Name = 28960541
REMARK  6 active torsions:
REMARK  status: ('A' for Active; 'I' for Inactive)
REMARK    1  A    between atoms: O_6  and  C_14
REMARK    2  A    between atoms: N_9  and  C_13
REMARK    3  A    between atoms: N_10  and  C_15
REMARK    4  A    between atoms: N_12  and  C_26
REMARK    5  A    between atoms: C_23  and  C_24
REMARK    6  A    between atoms: C_29  and  C_32
REMARK                            x       y       z     vdW  Elec       q    Type
REMARK                         _______ _______ _______ _____ _____    ______ ____
ROOT
ATOM      4  O   UNL     1      13.768   7.399  -0.525  0.00  0.00    -0.342 OA
ATOM      5  O   UNL     1      16.039   7.260  -0.976  0.00  0.00    -0.347 OA
ATOM     13  C   UNL     1      14.701   5.248  -1.086  0.00  0.00    +0.143 C 
ATOM     14  C   UNL     1      14.979   4.956   0.407  0.00  0.00    +0.159 C 
ATOM     15  C   UNL     1      14.438   6.047   1.357  0.00  0.00    +0.136 C 
ATOM     16  C   UNL     1      14.745   6.763  -1.359  0.00  0.00    +0.270 C 
ATOM     17  C   UNL     1      14.451   7.458   0.732  0.00  0.00    +0.170 C 
ATOM     18  C   UNL     1      15.822   7.923   0.279  0.00  0.00    +0.196 C 
ENDROOT
BRANCH  15  10
ATOM      8  O   UNL     1      13.115   6.984   3.717  0.00  0.00    -0.252 OA
ATOM     10  N   UNL     1      13.096   5.714   1.786  0.00  0.00    -0.291 N 
ATOM     12  N   UNL     1      11.227   5.727   3.111  0.00  0.00    -0.269 N 
ATOM     25  C   UNL     1      12.526   6.220   2.958  0.00  0.00    +0.304 C 
ATOM     33  H   UNL     1      12.577   5.025   1.251  0.00  0.00    +0.151 HD
ATOM     37  H   UNL     1      10.888   5.099   2.387  0.00  0.00    +0.156 HD
BRANCH  12  26
ATOM     26  C   UNL     1      10.317   5.995   4.161  0.00  0.00    +0.035 A 
ATOM     27  C   UNL     1      10.534   5.456   5.428  0.00  0.00    +0.035 A 
ATOM     28  C   UNL     1       9.202   6.799   3.927  0.00  0.00    +0.023 A 
ATOM     29  C   UNL     1       9.636   5.720   6.463  0.00  0.00    +0.057 A 
ATOM     30  C   UNL     1       8.303   7.064   4.961  0.00  0.00    +0.002 A 
ATOM     31  C   UNL     1       8.521   6.525   6.228  0.00  0.00    +0.012 A 
BRANCH  29  32
ATOM      1  F   UNL     1      11.101   5.453   8.316  0.00  0.00    -0.166 F 
ATOM      2  F   UNL     1       8.975   5.574   8.757  0.00  0.00    -0.166 F 
ATOM      3  F   UNL     1       9.792   3.780   7.853  0.00  0.00    -0.166 F 
ATOM     32  C   UNL     1       9.869   5.143   7.818  0.00  0.00    +0.417 C 
ENDBRANCH  29  32
ENDBRANCH  12  26
ENDBRANCH  15  10
BRANCH  13   9
ATOM      9  N   UNL     1      13.393   4.713  -1.470  0.00  0.00    -0.293 NA
ATOM     19  C   UNL     1      13.245   4.716  -2.932  0.00  0.00    +0.085 C 
ATOM     20  C   UNL     1      13.209   3.363  -0.921  0.00  0.00    +0.085 C 
ATOM     21  C   UNL     1      11.862   4.212  -3.347  0.00  0.00    +0.028 C 
ATOM     22  C   UNL     1      11.825   2.811  -1.267  0.00  0.00    +0.028 C 
ATOM     23  C   UNL     1      11.585   2.824  -2.775  0.00  0.00    +0.077 C 
BRANCH  23  24
ATOM      7  O   UNL     1       9.745   1.299  -2.786  0.00  0.00    -0.276 OA
ATOM     11  N   UNL     1       9.426   3.400  -3.671  0.00  0.00    -0.329 N 
ATOM     24  C   UNL     1      10.172   2.418  -3.062  0.00  0.00    +0.214 C 
ATOM     35  H   UNL     1       9.808   4.312  -3.900  0.00  0.00    +0.145 HD
ATOM     36  H   UNL     1       8.455   3.239  -3.918  0.00  0.00    +0.145 HD
ENDBRANCH  23  24
ENDBRANCH  13   9
BRANCH  14   6
ATOM      6  O   UNL     1      16.399   4.859   0.576  0.00  0.00    -0.388 OA
ATOM     34  H   UNL     1      16.787   5.700   0.282  0.00  0.00    +0.210 HD
ENDBRANCH  14   6
TORSDOF 6
ENDMDL
MODEL 10
REMARK VINA RESULT:      -7.6     26.587     29.671
REMARK  Name = 28960541
REMARK  6 active torsions:
REMARK  status: ('A' for Active; 'I' for Inactive)
REMARK    1  A    between atoms: O_6  and  C_14
REMARK    2  A    between atoms: N_9  and  C_13
REMARK    3  A    between atoms: N_10  and  C_15
REMARK    4  A    between atoms: N_12  and  C_26
REMARK    5  A    between atoms: C_23  and  C_24
REMARK    6  A    between atoms: C_29  and  C_32
REMARK                            x       y       z     vdW  Elec       q    Type
REMARK                         _______ _______ _______ _____ _____    ______ ____
ROOT
ATOM      4  O   UNL     1      -7.621  -9.414  18.032  0.00  0.00    -0.342 OA
ATOM      5  O   UNL     1      -8.534 -11.220  19.165  0.00  0.00    -0.347 OA
ATOM     13  C   UNL     1      -6.889 -11.634  17.440  0.00  0.00    +0.143 C 
ATOM     14  C   UNL     1      -8.003 -11.738  16.373  0.00  0.00    +0.159 C 
ATOM     15  C   UNL     1      -8.814 -10.434  16.202  0.00  0.00    +0.136 C 
ATOM     16  C   UNL     1      -7.324 -10.702  18.586  0.00  0.00    +0.270 C 
ATOM     17  C   UNL     1      -8.935  -9.619  17.506  0.00  0.00    +0.170 C 
ATOM     18  C   UNL     1      -9.577 -10.377  18.653  0.00  0.00    +0.196 C 
ENDROOT
BRANCH  15  10
ATOM      8  O   UNL     1      -8.317 -11.203  13.488  0.00  0.00    -0.252 OA
ATOM     10  N   UNL     1      -8.225  -9.614  15.165  0.00  0.00    -0.291 N 
ATOM     12  N   UNL     1      -7.437  -9.064  13.085  0.00  0.00    -0.269 N 
ATOM     25  C   UNL     1      -8.018 -10.071  13.860  0.00  0.00    +0.304 C 
ATOM     33  H   UNL     1      -7.878  -8.694  15.417  0.00  0.00    +0.151 HD
ATOM     37  H   UNL     1      -7.252  -8.179  13.549  0.00  0.00    +0.156 HD
BRANCH  12  26
ATOM     26  C   UNL     1      -7.070  -9.124  11.719  0.00  0.00    +0.035 A 
ATOM     27  C   UNL     1      -5.725  -9.230  11.363  0.00  0.00    +0.035 A 
ATOM     28  C   UNL     1      -8.052  -9.078  10.731  0.00  0.00    +0.023 A 
ATOM     29  C   UNL     1      -5.363  -9.289  10.016  0.00  0.00    +0.057 A 
ATOM     30  C   UNL     1      -7.690  -9.136   9.385  0.00  0.00    +0.002 A 
ATOM     31  C   UNL     1      -6.347  -9.242   9.028  0.00  0.00    +0.012 A 
BRANCH  29  32
ATOM      1  F   UNL     1      -3.568  -8.508   8.668  0.00  0.00    -0.166 F 
ATOM      2  F   UNL     1      -3.065  -9.183  10.672  0.00  0.00    -0.166 F 
ATOM      3  F   UNL     1      -3.586 -10.630   9.142  0.00  0.00    -0.166 F 
ATOM     32  C   UNL     1      -3.926  -9.402   9.635  0.00  0.00    +0.417 C 
ENDBRANCH  29  32
ENDBRANCH  12  26
ENDBRANCH  15  10
BRANCH  13   9
ATOM      9  N   UNL     1      -5.655 -11.130  16.833  0.00  0.00    -0.293 NA
ATOM     19  C   UNL     1      -4.508 -11.385  17.715  0.00  0.00    +0.085 C 
ATOM     20  C   UNL     1      -5.450 -11.734  15.510  0.00  0.00    +0.085 C 
ATOM     21  C   UNL     1      -3.219 -10.816  17.121  0.00  0.00    +0.028 C 
ATOM     22  C   UNL     1      -4.193 -11.178  14.839  0.00  0.00    +0.028 C 
ATOM     23  C   UNL     1      -2.962 -11.371  15.722  0.00  0.00    +0.077 C 
BRANCH  23  24
ATOM      7  O   UNL     1      -1.811 -10.260  13.947  0.00  0.00    -0.276 OA
ATOM     11  N   UNL     1      -0.691 -10.601  15.928  0.00  0.00    -0.329 N 
ATOM     24  C   UNL     1      -1.785 -10.685  15.100  0.00  0.00    +0.214 C 
ATOM     35  H   UNL     1      -0.692 -10.972  16.872  0.00  0.00    +0.145 HD
ATOM     36  H   UNL     1       0.167 -10.160  15.614  0.00  0.00    +0.145 HD
ENDBRANCH  23  24
ENDBRANCH  13   9
BRANCH  14   6
ATOM      6  O   UNL     1      -8.895 -12.786  16.773  0.00  0.00    -0.388 OA
ATOM     34  H   UNL     1      -9.197 -13.238  15.968  0.00  0.00    +0.210 HD
ENDBRANCH  14   6
TORSDOF 6
ENDMDL
