MODEL 1
REMARK VINA RESULT:      -6.9      0.000      0.000
REMARK  Name = 56775328
REMARK  7 active torsions:
REMARK  status: ('A' for Active; 'I' for Inactive)
REMARK    1  A    between atoms: S_1  and  N_10
REMARK    2  A    between atoms: S_1  and  C_19
REMARK    3  A    between atoms: O_9  and  C_29
REMARK    4  A    between atoms: O_9  and  C_32
REMARK    5  A    between atoms: N_11  and  C_18
REMARK    6  A    between atoms: C_18  and  C_20
REMARK    7  A    between atoms: C_25  and  C_31
REMARK                            x       y       z     vdW  Elec       q    Type
REMARK                         _______ _______ _______ _____ _____    ______ ____
ROOT
ATOM      5  O   UNL     1      -5.479 -14.621  16.351  0.00  0.00    -0.364 OA
ATOM      8  O   UNL     1      -2.779 -13.565  14.277  0.00  0.00    -0.273 OA
ATOM     10  N   UNL     1      -6.315 -12.656  18.404  0.00  0.00    -0.172 NA
ATOM     11  N   UNL     1      -4.439 -12.276  15.273  0.00  0.00    -0.288 N 
ATOM     12  C   UNL     1      -5.602 -12.229  16.152  0.00  0.00    +0.122 C 
ATOM     13  C   UNL     1      -6.384 -13.532  16.193  0.00  0.00    +0.156 C 
ATOM     14  C   UNL     1      -5.227 -12.003  17.621  0.00  0.00    +0.134 C 
ATOM     15  C   UNL     1      -7.213 -13.388  17.463  0.00  0.00    +0.143 C 
ATOM     16  C   UNL     1      -3.839 -13.475  14.898  0.00  0.00    +0.242 C 
ATOM     17  C   UNL     1      -4.630 -14.729  15.231  0.00  0.00    +0.256 C 
ENDROOT
BRANCH  10   1
ATOM      1  S   UNL     1      -7.038 -11.774  19.662  0.00  0.00    +0.061 S 
ATOM      6  O   UNL     1      -6.045 -10.925  20.294  0.00  0.00    -0.153 OA
ATOM      7  O   UNL     1      -7.862 -12.662  20.463  0.00  0.00    -0.153 OA
BRANCH   1  19
ATOM     19  C   UNL     1      -8.124 -10.726  18.741  0.00  0.00    +0.106 A 
ATOM     21  C   UNL     1      -7.600  -9.795  17.845  0.00  0.00    +0.032 A 
ATOM     22  C   UNL     1      -9.504 -10.832  18.911  0.00  0.00    +0.032 A 
ATOM     26  C   UNL     1      -8.457  -8.968  17.118  0.00  0.00    +0.047 A 
ATOM     27  C   UNL     1     -10.361 -10.004  18.185  0.00  0.00    +0.047 A 
ATOM     29  C   UNL     1      -9.837  -9.072  17.289  0.00  0.00    +0.120 A 
BRANCH  29   9
ATOM      9  O   UNL     1     -10.672  -8.265  16.579  0.00  0.00    -0.495 OA
ATOM     32  C   UNL     1     -10.084  -7.157  15.899  0.00  0.00    +0.277 C 
ENDBRANCH  29   9
ENDBRANCH   1  19
ENDBRANCH  10   1
BRANCH  11  18
ATOM     18  C   UNL     1      -3.818 -11.003  14.933  0.00  0.00    +0.143 C 
BRANCH  18  20
ATOM     20  C   UNL     1      -4.427 -10.390  13.705  0.00  0.00    -0.030 A 
ATOM     23  C   UNL     1      -3.679 -10.288  12.532  0.00  0.00    +0.017 A 
ATOM     24  C   UNL     1      -5.741  -9.923  13.738  0.00  0.00    +0.005 A 
ATOM     25  C   UNL     1      -4.245  -9.718  11.391  0.00  0.00    +0.055 A 
ATOM     28  C   UNL     1      -6.307  -9.353  12.597  0.00  0.00    +0.001 A 
ATOM     30  C   UNL     1      -5.560  -9.252  11.424  0.00  0.00    +0.012 A 
BRANCH  25  31
ATOM      2  F   UNL     1      -3.333 -10.800   9.481  0.00  0.00    -0.166 F 
ATOM      3  F   UNL     1      -3.972  -8.738   9.227  0.00  0.00    -0.166 F 
ATOM      4  F   UNL     1      -2.165  -9.180  10.341  0.00  0.00    -0.166 F 
ATOM     31  C   UNL     1      -3.446  -9.609  10.138  0.00  0.00    +0.417 C 
ENDBRANCH  25  31
ENDBRANCH  18  20
ENDBRANCH  11  18
TORSDOF 6
ENDMDL
MODEL 2
REMARK VINA RESULT:      -6.5      2.068      5.250
REMARK  Name = 56775328
REMARK  7 active torsions:
REMARK  status: ('A' for Active; 'I' for Inactive)
REMARK    1  A    between atoms: S_1  and  N_10
REMARK    2  A    between atoms: S_1  and  C_19
REMARK    3  A    between atoms: O_9  and  C_29
REMARK    4  A    between atoms: O_9  and  C_32
REMARK    5  A    between atoms: N_11  and  C_18
REMARK    6  A    between atoms: C_18  and  C_20
REMARK    7  A    between atoms: C_25  and  C_31
REMARK                            x       y       z     vdW  Elec       q    Type
REMARK                         _______ _______ _______ _____ _____    ______ ____
ROOT
ATOM      5  O   UNL     1      -9.415  -9.236  15.870  0.00  0.00    -0.364 OA
ATOM      8  O   UNL     1     -10.335 -10.128  12.544  0.00  0.00    -0.273 OA
ATOM     10  N   UNL     1      -7.285 -10.913  17.066  0.00  0.00    -0.172 NA
ATOM     11  N   UNL     1      -8.260 -10.314  13.579  0.00  0.00    -0.288 N 
ATOM     12  C   UNL     1      -7.472 -10.156  14.796  0.00  0.00    +0.122 C 
ATOM     13  C   UNL     1      -8.006  -9.082  15.729  0.00  0.00    +0.156 C 
ATOM     14  C   UNL     1      -7.476 -11.412  15.674  0.00  0.00    +0.134 C 
ATOM     15  C   UNL     1      -7.335  -9.422  17.054  0.00  0.00    +0.143 C 
ATOM     16  C   UNL     1      -9.585  -9.895  13.493  0.00  0.00    +0.242 C 
ATOM     17  C   UNL     1     -10.065  -9.019  14.638  0.00  0.00    +0.256 C 
ENDROOT
BRANCH  10   1
ATOM      1  S   UNL     1      -6.103 -11.658  18.030  0.00  0.00    +0.061 S 
ATOM      6  O   UNL     1      -6.542 -12.992  18.395  0.00  0.00    -0.153 OA
ATOM      7  O   UNL     1      -5.655 -10.728  19.051  0.00  0.00    -0.153 OA
BRANCH   1  19
ATOM     19  C   UNL     1      -4.792 -11.833  16.856  0.00  0.00    +0.106 A 
ATOM     21  C   UNL     1      -4.680 -13.004  16.106  0.00  0.00    +0.032 A 
ATOM     22  C   UNL     1      -3.871 -10.801  16.682  0.00  0.00    +0.032 A 
ATOM     26  C   UNL     1      -3.646 -13.142  15.180  0.00  0.00    +0.047 A 
ATOM     27  C   UNL     1      -2.836 -10.940  15.756  0.00  0.00    +0.047 A 
ATOM     29  C   UNL     1      -2.723 -12.110  15.006  0.00  0.00    +0.120 A 
BRANCH  29   9
ATOM      9  O   UNL     1      -1.714 -12.246  14.102  0.00  0.00    -0.495 OA
ATOM     32  C   UNL     1      -1.517 -13.541  13.538  0.00  0.00    +0.277 C 
ENDBRANCH  29   9
ENDBRANCH   1  19
ENDBRANCH  10   1
BRANCH  11  18
ATOM     18  C   UNL     1      -7.660 -11.087  12.501  0.00  0.00    +0.143 C 
BRANCH  18  20
ATOM     20  C   UNL     1      -6.642 -10.290  11.737  0.00  0.00    -0.030 A 
ATOM     23  C   UNL     1      -5.283 -10.556  11.901  0.00  0.00    +0.017 A 
ATOM     24  C   UNL     1      -7.057  -9.285  10.863  0.00  0.00    +0.005 A 
ATOM     25  C   UNL     1      -4.337  -9.815  11.192  0.00  0.00    +0.055 A 
ATOM     28  C   UNL     1      -6.111  -8.544  10.154  0.00  0.00    +0.001 A 
ATOM     30  C   UNL     1      -4.752  -8.810  10.317  0.00  0.00    +0.012 A 
BRANCH  25  31
ATOM      2  F   UNL     1      -2.101  -9.380  10.509  0.00  0.00    -0.166 F 
ATOM      3  F   UNL     1      -2.416  -9.808  12.617  0.00  0.00    -0.166 F 
ATOM      4  F   UNL     1      -2.551 -11.406  11.157  0.00  0.00    -0.166 F 
ATOM     31  C   UNL     1      -2.884 -10.098  11.367  0.00  0.00    +0.417 C 
ENDBRANCH  25  31
ENDBRANCH  18  20
ENDBRANCH  11  18
TORSDOF 6
ENDMDL
MODEL 3
REMARK VINA RESULT:      -6.5     26.110     27.726
REMARK  Name = 56775328
REMARK  7 active torsions:
REMARK  status: ('A' for Active; 'I' for Inactive)
REMARK    1  A    between atoms: S_1  and  N_10
REMARK    2  A    between atoms: S_1  and  C_19
REMARK    3  A    between atoms: O_9  and  C_29
REMARK    4  A    between atoms: O_9  and  C_32
REMARK    5  A    between atoms: N_11  and  C_18
REMARK    6  A    between atoms: C_18  and  C_20
REMARK    7  A    between atoms: C_25  and  C_31
REMARK                            x       y       z     vdW  Elec       q    Type
REMARK                         _______ _______ _______ _____ _____    ______ ____
ROOT
ATOM      5  O   UNL     1      13.649   7.367   7.071  0.00  0.00    -0.364 OA
ATOM      8  O   UNL     1      15.397   8.135   4.061  0.00  0.00    -0.273 OA
ATOM     10  N   UNL     1      10.845   8.318   7.160  0.00  0.00    -0.172 NA
ATOM     11  N   UNL     1      13.131   7.701   4.357  0.00  0.00    -0.288 N 
ATOM     12  C   UNL     1      12.042   7.418   5.285  0.00  0.00    +0.122 C 
ATOM     13  C   UNL     1      12.493   6.714   6.553  0.00  0.00    +0.156 C 
ATOM     14  C   UNL     1      11.368   8.688   5.813  0.00  0.00    +0.134 C 
ATOM     15  C   UNL     1      11.325   6.947   7.503  0.00  0.00    +0.143 C 
ATOM     16  C   UNL     1      14.460   7.765   4.769  0.00  0.00    +0.242 C 
ATOM     17  C   UNL     1      14.730   7.251   6.173  0.00  0.00    +0.256 C 
ENDROOT
BRANCH  10   1
ATOM      1  S   UNL     1       9.234   8.708   7.530  0.00  0.00    +0.061 S 
ATOM      6  O   UNL     1       9.188   9.984   8.219  0.00  0.00    -0.153 OA
ATOM      7  O   UNL     1       8.572   7.545   8.092  0.00  0.00    -0.153 OA
BRANCH   1  19
ATOM     19  C   UNL     1       8.581   8.959   5.906  0.00  0.00    +0.106 A 
ATOM     21  C   UNL     1       8.300   7.863   5.090  0.00  0.00    +0.032 A 
ATOM     22  C   UNL     1       8.349  10.253   5.441  0.00  0.00    +0.032 A 
ATOM     26  C   UNL     1       7.786   8.062   3.808  0.00  0.00    +0.047 A 
ATOM     27  C   UNL     1       7.835  10.452   4.158  0.00  0.00    +0.047 A 
ATOM     29  C   UNL     1       7.554   9.356   3.343  0.00  0.00    +0.120 A 
BRANCH  29   9
ATOM      9  O   UNL     1       7.052   9.549   2.092  0.00  0.00    -0.495 OA
ATOM     32  C   UNL     1       5.688   9.955   1.994  0.00  0.00    +0.277 C 
ENDBRANCH  29   9
ENDBRANCH   1  19
ENDBRANCH  10   1
BRANCH  11  18
ATOM     18  C   UNL     1      12.761   8.086   3.002  0.00  0.00    +0.143 C 
BRANCH  18  20
ATOM     20  C   UNL     1      12.175   6.938   2.232  0.00  0.00    -0.030 A 
ATOM     23  C   UNL     1      12.976   5.852   1.880  0.00  0.00    +0.017 A 
ATOM     24  C   UNL     1      10.828   6.957   1.869  0.00  0.00    +0.005 A 
ATOM     25  C   UNL     1      12.432   4.785   1.164  0.00  0.00    +0.055 A 
ATOM     28  C   UNL     1      10.283   5.890   1.154  0.00  0.00    +0.001 A 
ATOM     30  C   UNL     1      11.084   4.805   0.802  0.00  0.00    +0.012 A 
BRANCH  25  31
ATOM      2  F   UNL     1      14.472   4.007   0.224  0.00  0.00    -0.166 F 
ATOM      3  F   UNL     1      13.628   2.828   1.844  0.00  0.00    -0.166 F 
ATOM      4  F   UNL     1      12.706   2.786  -0.119  0.00  0.00    -0.166 F 
ATOM     31  C   UNL     1      13.289   3.625   0.787  0.00  0.00    +0.417 C 
ENDBRANCH  25  31
ENDBRANCH  18  20
ENDBRANCH  11  18
TORSDOF 6
ENDMDL
MODEL 4
REMARK VINA RESULT:      -6.4     20.677     23.168
REMARK  Name = 56775328
REMARK  7 active torsions:
REMARK  status: ('A' for Active; 'I' for Inactive)
REMARK    1  A    between atoms: S_1  and  N_10
REMARK    2  A    between atoms: S_1  and  C_19
REMARK    3  A    between atoms: O_9  and  C_29
REMARK    4  A    between atoms: O_9  and  C_32
REMARK    5  A    between atoms: N_11  and  C_18
REMARK    6  A    between atoms: C_18  and  C_20
REMARK    7  A    between atoms: C_25  and  C_31
REMARK                            x       y       z     vdW  Elec       q    Type
REMARK                         _______ _______ _______ _____ _____    ______ ____
ROOT
ATOM      5  O   UNL     1     -13.138   6.556  20.889  0.00  0.00    -0.364 OA
ATOM      8  O   UNL     1     -15.700   7.695  23.089  0.00  0.00    -0.273 OA
ATOM     10  N   UNL     1     -11.989   8.643  19.128  0.00  0.00    -0.172 NA
ATOM     11  N   UNL     1     -13.853   8.856  22.282  0.00  0.00    -0.288 N 
ATOM     12  C   UNL     1     -12.679   8.855  21.417  0.00  0.00    +0.122 C 
ATOM     13  C   UNL     1     -12.090   7.471  21.196  0.00  0.00    +0.156 C 
ATOM     14  C   UNL     1     -12.988   9.332  19.994  0.00  0.00    +0.134 C 
ATOM     15  C   UNL     1     -11.224   7.667  19.958  0.00  0.00    +0.143 C 
ATOM     16  C   UNL     1     -14.626   7.716  22.486  0.00  0.00    +0.242 C 
ATOM     17  C   UNL     1     -14.016   6.419  21.983  0.00  0.00    +0.256 C 
ENDROOT
BRANCH  10   1
ATOM      1  S   UNL     1     -11.123   9.576  18.004  0.00  0.00    +0.061 S 
ATOM      6  O   UNL     1      -9.709   9.261  18.096  0.00  0.00    -0.153 OA
ATOM      7  O   UNL     1     -11.574  10.954  18.070  0.00  0.00    -0.153 OA
BRANCH   1  19
ATOM     19  C   UNL     1     -11.721   8.891  16.488  0.00  0.00    +0.106 A 
ATOM     21  C   UNL     1     -10.833   8.617  15.448  0.00  0.00    +0.032 A 
ATOM     22  C   UNL     1     -13.081   8.626  16.332  0.00  0.00    +0.032 A 
ATOM     26  C   UNL     1     -11.305   8.077  14.251  0.00  0.00    +0.047 A 
ATOM     27  C   UNL     1     -13.554   8.087  15.134  0.00  0.00    +0.047 A 
ATOM     29  C   UNL     1     -12.666   7.813  14.095  0.00  0.00    +0.120 A 
BRANCH  29   9
ATOM      9  O   UNL     1     -13.126   7.286  12.927  0.00  0.00    -0.495 OA
ATOM     32  C   UNL     1     -14.510   7.469  12.632  0.00  0.00    +0.277 C 
ENDBRANCH  29   9
ENDBRANCH   1  19
ENDBRANCH  10   1
BRANCH  11  18
ATOM     18  C   UNL     1     -14.293  10.146  22.795  0.00  0.00    +0.143 C 
BRANCH  18  20
ATOM     20  C   UNL     1     -14.026  10.286  24.266  0.00  0.00    -0.030 A 
ATOM     23  C   UNL     1     -12.713  10.321  24.735  0.00  0.00    +0.017 A 
ATOM     24  C   UNL     1     -15.090  10.382  25.162  0.00  0.00    +0.005 A 
ATOM     25  C   UNL     1     -12.463  10.450  26.102  0.00  0.00    +0.055 A 
ATOM     28  C   UNL     1     -14.841  10.513  26.529  0.00  0.00    +0.001 A 
ATOM     30  C   UNL     1     -13.528  10.548  26.998  0.00  0.00    +0.012 A 
BRANCH  25  31
ATOM      2  F   UNL     1     -10.688   9.320  27.207  0.00  0.00    -0.166 F 
ATOM      3  F   UNL     1     -10.133  10.703  25.624  0.00  0.00    -0.166 F 
ATOM      4  F   UNL     1     -10.835  11.465  27.530  0.00  0.00    -0.166 F 
ATOM     31  C   UNL     1     -11.060  10.486  26.604  0.00  0.00    +0.417 C 
ENDBRANCH  25  31
ENDBRANCH  18  20
ENDBRANCH  11  18
TORSDOF 6
ENDMDL
MODEL 5
REMARK VINA RESULT:      -6.3      2.413      3.259
REMARK  Name = 56775328
REMARK  7 active torsions:
REMARK  status: ('A' for Active; 'I' for Inactive)
REMARK    1  A    between atoms: S_1  and  N_10
REMARK    2  A    between atoms: S_1  and  C_19
REMARK    3  A    between atoms: O_9  and  C_29
REMARK    4  A    between atoms: O_9  and  C_32
REMARK    5  A    between atoms: N_11  and  C_18
REMARK    6  A    between atoms: C_18  and  C_20
REMARK    7  A    between atoms: C_25  and  C_31
REMARK                            x       y       z     vdW  Elec       q    Type
REMARK                         _______ _______ _______ _____ _____    ______ ____
ROOT
ATOM      5  O   UNL     1      -5.972 -14.565  14.409  0.00  0.00    -0.364 OA
ATOM      8  O   UNL     1      -3.457 -15.731  12.168  0.00  0.00    -0.273 OA
ATOM     10  N   UNL     1      -5.105 -12.402  16.239  0.00  0.00    -0.172 NA
ATOM     11  N   UNL     1      -3.749 -13.596  13.045  0.00  0.00    -0.288 N 
ATOM     12  C   UNL     1      -4.502 -12.723  13.938  0.00  0.00    +0.122 C 
ATOM     13  C   UNL     1      -5.941 -13.165  14.146  0.00  0.00    +0.156 C 
ATOM     14  C   UNL     1      -3.936 -12.700  15.362  0.00  0.00    +0.134 C 
ATOM     15  C   UNL     1      -6.345 -12.414  15.409  0.00  0.00    +0.143 C 
ATOM     16  C   UNL     1      -4.128 -14.913  12.798  0.00  0.00    +0.242 C 
ATOM     17  C   UNL     1      -5.515 -15.291  13.291  0.00  0.00    +0.256 C 
ENDROOT
BRANCH  10   1
ATOM      1  S   UNL     1      -4.943 -11.176  17.402  0.00  0.00    +0.061 S 
ATOM      6  O   UNL     1      -4.932  -9.881  16.747  0.00  0.00    -0.153 OA
ATOM      7  O   UNL     1      -3.894 -11.534  18.339  0.00  0.00    -0.153 OA
BRANCH   1  19
ATOM     19  C   UNL     1      -6.488 -11.328  18.249  0.00  0.00    +0.106 A 
ATOM     21  C   UNL     1      -7.488 -10.375  18.053  0.00  0.00    +0.032 A 
ATOM     22  C   UNL     1      -6.707 -12.402  19.112  0.00  0.00    +0.032 A 
ATOM     26  C   UNL     1      -8.706 -10.495  18.722  0.00  0.00    +0.047 A 
ATOM     27  C   UNL     1      -7.925 -12.522  19.781  0.00  0.00    +0.047 A 
ATOM     29  C   UNL     1      -8.925 -11.568  19.586  0.00  0.00    +0.120 A 
BRANCH  29   9
ATOM      9  O   UNL     1     -10.114 -11.685  20.238  0.00  0.00    -0.495 OA
ATOM     32  C   UNL     1     -10.536 -13.002  20.590  0.00  0.00    +0.277 C 
ENDBRANCH  29   9
ENDBRANCH   1  19
ENDBRANCH  10   1
BRANCH  11  18
ATOM     18  C   UNL     1      -2.477 -13.091  12.547  0.00  0.00    +0.143 C 
BRANCH  18  20
ATOM     20  C   UNL     1      -2.646 -11.826  11.755  0.00  0.00    -0.030 A 
ATOM     23  C   UNL     1      -3.521 -11.794  10.670  0.00  0.00    +0.017 A 
ATOM     24  C   UNL     1      -1.926 -10.683  12.105  0.00  0.00    +0.005 A 
ATOM     25  C   UNL     1      -3.678 -10.620   9.933  0.00  0.00    +0.055 A 
ATOM     28  C   UNL     1      -2.083  -9.508  11.369  0.00  0.00    +0.001 A 
ATOM     30  C   UNL     1      -2.959  -9.476  10.284  0.00  0.00    +0.012 A 
BRANCH  25  31
ATOM      2  F   UNL     1      -4.250 -11.448   7.779  0.00  0.00    -0.166 F 
ATOM      3  F   UNL     1      -5.898 -10.921   9.096  0.00  0.00    -0.166 F 
ATOM      4  F   UNL     1      -4.704  -9.360   8.179  0.00  0.00    -0.166 F 
ATOM     31  C   UNL     1      -4.614 -10.586   8.773  0.00  0.00    +0.417 C 
ENDBRANCH  25  31
ENDBRANCH  18  20
ENDBRANCH  11  18
TORSDOF 6
ENDMDL
MODEL 6
REMARK VINA RESULT:      -6.3      2.746      4.166
REMARK  Name = 56775328
REMARK  7 active torsions:
REMARK  status: ('A' for Active; 'I' for Inactive)
REMARK    1  A    between atoms: S_1  and  N_10
REMARK    2  A    between atoms: S_1  and  C_19
REMARK    3  A    between atoms: O_9  and  C_29
REMARK    4  A    between atoms: O_9  and  C_32
REMARK    5  A    between atoms: N_11  and  C_18
REMARK    6  A    between atoms: C_18  and  C_20
REMARK    7  A    between atoms: C_25  and  C_31
REMARK                            x       y       z     vdW  Elec       q    Type
REMARK                         _______ _______ _______ _____ _____    ______ ____
ROOT
ATOM      5  O   UNL     1      -8.172 -13.110  16.834  0.00  0.00    -0.364 OA
ATOM      8  O   UNL     1      -4.800 -13.281  17.976  0.00  0.00    -0.273 OA
ATOM     10  N   UNL     1      -9.397 -10.416  16.965  0.00  0.00    -0.172 NA
ATOM     11  N   UNL     1      -5.895 -11.514  16.934  0.00  0.00    -0.288 N 
ATOM     12  C   UNL     1      -7.139 -10.988  16.384  0.00  0.00    +0.122 C 
ATOM     13  C   UNL     1      -8.078 -12.066  15.870  0.00  0.00    +0.156 C 
ATOM     14  C   UNL     1      -7.989 -10.257  17.429  0.00  0.00    +0.134 C 
ATOM     15  C   UNL     1      -9.416 -11.340  15.793  0.00  0.00    +0.143 C 
ATOM     16  C   UNL     1      -5.776 -12.828  17.378  0.00  0.00    +0.242 C 
ATOM     17  C   UNL     1      -6.925 -13.748  17.000  0.00  0.00    +0.256 C 
ENDROOT
BRANCH  10   1
ATOM      1  S   UNL     1     -10.381  -9.034  16.899  0.00  0.00    +0.061 S 
ATOM      6  O   UNL     1     -11.081  -8.995  15.629  0.00  0.00    -0.153 OA
ATOM      7  O   UNL     1      -9.627  -7.881  17.358  0.00  0.00    -0.153 OA
BRANCH   1  19
ATOM     19  C   UNL     1     -11.570  -9.425  18.148  0.00  0.00    +0.106 A 
ATOM     21  C   UNL     1     -11.146  -9.792  19.425  0.00  0.00    +0.032 A 
ATOM     22  C   UNL     1     -12.932  -9.367  17.855  0.00  0.00    +0.032 A 
ATOM     26  C   UNL     1     -12.084 -10.101  20.410  0.00  0.00    +0.047 A 
ATOM     27  C   UNL     1     -13.871  -9.676  18.840  0.00  0.00    +0.047 A 
ATOM     29  C   UNL     1     -13.447 -10.043  20.117  0.00  0.00    +0.120 A 
BRANCH  29   9
ATOM      9  O   UNL     1     -14.362 -10.345  21.078  0.00  0.00    -0.495 OA
ATOM     32  C   UNL     1     -15.651  -9.745  20.960  0.00  0.00    +0.277 C 
ENDBRANCH  29   9
ENDBRANCH   1  19
ENDBRANCH  10   1
BRANCH  11  18
ATOM     18  C   UNL     1      -4.819 -10.559  17.162  0.00  0.00    +0.143 C 
BRANCH  18  20
ATOM     20  C   UNL     1      -3.761 -10.640  16.100  0.00  0.00    -0.030 A 
ATOM     23  C   UNL     1      -4.122 -10.610  14.753  0.00  0.00    +0.017 A 
ATOM     24  C   UNL     1      -2.418 -10.746  16.460  0.00  0.00    +0.005 A 
ATOM     25  C   UNL     1      -3.140 -10.687  13.765  0.00  0.00    +0.055 A 
ATOM     28  C   UNL     1      -1.435 -10.821  15.472  0.00  0.00    +0.001 A 
ATOM     30  C   UNL     1      -1.796 -10.791  14.126  0.00  0.00    +0.012 A 
BRANCH  25  31
ATOM      2  F   UNL     1      -4.843 -10.350  12.141  0.00  0.00    -0.166 F 
ATOM      3  F   UNL     1      -2.831  -9.735  11.592  0.00  0.00    -0.166 F 
ATOM      4  F   UNL     1      -3.331 -11.843  11.680  0.00  0.00    -0.166 F 
ATOM     31  C   UNL     1      -3.525 -10.655  12.325  0.00  0.00    +0.417 C 
ENDBRANCH  25  31
ENDBRANCH  18  20
ENDBRANCH  11  18
TORSDOF 6
ENDMDL
MODEL 7
REMARK VINA RESULT:      -6.3      2.494      4.065
REMARK  Name = 56775328
REMARK  7 active torsions:
REMARK  status: ('A' for Active; 'I' for Inactive)
REMARK    1  A    between atoms: S_1  and  N_10
REMARK    2  A    between atoms: S_1  and  C_19
REMARK    3  A    between atoms: O_9  and  C_29
REMARK    4  A    between atoms: O_9  and  C_32
REMARK    5  A    between atoms: N_11  and  C_18
REMARK    6  A    between atoms: C_18  and  C_20
REMARK    7  A    between atoms: C_25  and  C_31
REMARK                            x       y       z     vdW  Elec       q    Type
REMARK                         _______ _______ _______ _____ _____    ______ ____
ROOT
ATOM      5  O   UNL     1      -8.693  -9.574  15.300  0.00  0.00    -0.364 OA
ATOM      8  O   UNL     1      -8.202 -11.205  12.169  0.00  0.00    -0.273 OA
ATOM     10  N   UNL     1      -7.569 -11.002  17.639  0.00  0.00    -0.172 NA
ATOM     11  N   UNL     1      -6.835 -11.225  14.051  0.00  0.00    -0.288 N 
ATOM     12  C   UNL     1      -6.638 -10.812  15.435  0.00  0.00    +0.122 C 
ATOM     13  C   UNL     1      -7.357  -9.521  15.790  0.00  0.00    +0.156 C 
ATOM     14  C   UNL     1      -7.210 -11.816  16.442  0.00  0.00    +0.134 C 
ATOM     15  C   UNL     1      -7.385  -9.558  17.313  0.00  0.00    +0.143 C 
ATOM     16  C   UNL     1      -7.912 -10.782  13.289  0.00  0.00    +0.242 C 
ATOM     17  C   UNL     1      -8.705  -9.634  13.892  0.00  0.00    +0.256 C 
ENDROOT
BRANCH  10   1
ATOM      1  S   UNL     1      -7.047 -11.543  19.162  0.00  0.00    +0.061 S 
ATOM      6  O   UNL     1      -6.729 -10.402  20.001  0.00  0.00    -0.153 OA
ATOM      7  O   UNL     1      -6.088 -12.619  18.991  0.00  0.00    -0.153 OA
BRANCH   1  19
ATOM     19  C   UNL     1      -8.542 -12.256  19.781  0.00  0.00    +0.106 A 
ATOM     21  C   UNL     1      -8.552 -13.577  20.229  0.00  0.00    +0.032 A 
ATOM     22  C   UNL     1      -9.712 -11.497  19.820  0.00  0.00    +0.032 A 
ATOM     26  C   UNL     1      -9.731 -14.139  20.717  0.00  0.00    +0.047 A 
ATOM     27  C   UNL     1     -10.892 -12.060  20.308  0.00  0.00    +0.047 A 
ATOM     29  C   UNL     1     -10.902 -13.381  20.756  0.00  0.00    +0.120 A 
BRANCH  29   9
ATOM      9  O   UNL     1     -12.052 -13.930  21.232  0.00  0.00    -0.495 OA
ATOM     32  C   UNL     1     -12.643 -13.314  22.375  0.00  0.00    +0.277 C 
ENDBRANCH  29   9
ENDBRANCH   1  19
ENDBRANCH  10   1
BRANCH  11  18
ATOM     18  C   UNL     1      -5.950 -12.263  13.540  0.00  0.00    +0.143 C 
BRANCH  18  20
ATOM     20  C   UNL     1      -4.624 -11.708  13.106  0.00  0.00    -0.030 A 
ATOM     23  C   UNL     1      -4.553 -10.851  12.007  0.00  0.00    +0.017 A 
ATOM     24  C   UNL     1      -3.464 -12.049  13.801  0.00  0.00    +0.005 A 
ATOM     25  C   UNL     1      -3.322 -10.336  11.603  0.00  0.00    +0.055 A 
ATOM     28  C   UNL     1      -2.232 -11.532  13.397  0.00  0.00    +0.001 A 
ATOM     30  C   UNL     1      -2.161 -10.676  12.299  0.00  0.00    +0.012 A 
BRANCH  25  31
ATOM      2  F   UNL     1      -1.999  -8.891  10.254  0.00  0.00    -0.166 F 
ATOM      3  F   UNL     1      -3.554 -10.024   9.242  0.00  0.00    -0.166 F 
ATOM      4  F   UNL     1      -4.089  -8.350  10.513  0.00  0.00    -0.166 F 
ATOM     31  C   UNL     1      -3.246  -9.421  10.428  0.00  0.00    +0.417 C 
ENDBRANCH  25  31
ENDBRANCH  18  20
ENDBRANCH  11  18
TORSDOF 6
ENDMDL
MODEL 8
REMARK VINA RESULT:      -6.3      3.126      4.834
REMARK  Name = 56775328
REMARK  7 active torsions:
REMARK  status: ('A' for Active; 'I' for Inactive)
REMARK    1  A    between atoms: S_1  and  N_10
REMARK    2  A    between atoms: S_1  and  C_19
REMARK    3  A    between atoms: O_9  and  C_29
REMARK    4  A    between atoms: O_9  and  C_32
REMARK    5  A    between atoms: N_11  and  C_18
REMARK    6  A    between atoms: C_18  and  C_20
REMARK    7  A    between atoms: C_25  and  C_31
REMARK                            x       y       z     vdW  Elec       q    Type
REMARK                         _______ _______ _______ _____ _____    ______ ____
ROOT
ATOM      5  O   UNL     1      -4.177 -10.744  16.624  0.00  0.00    -0.364 OA
ATOM      8  O   UNL     1      -0.905 -10.807  15.211  0.00  0.00    -0.273 OA
ATOM     10  N   UNL     1      -6.335 -11.659  14.811  0.00  0.00    -0.172 NA
ATOM     11  N   UNL     1      -2.707 -12.211  14.772  0.00  0.00    -0.288 N 
ATOM     12  C   UNL     1      -4.108 -12.531  15.019  0.00  0.00    +0.122 C 
ATOM     13  C   UNL     1      -4.601 -12.082  16.384  0.00  0.00    +0.156 C 
ATOM     14  C   UNL     1      -5.060 -11.816  14.054  0.00  0.00    +0.134 C 
ATOM     15  C   UNL     1      -6.116 -12.101  16.219  0.00  0.00    +0.143 C 
ATOM     16  C   UNL     1      -2.039 -11.211  15.473  0.00  0.00    +0.242 C 
ATOM     17  C   UNL     1      -2.771 -10.671  16.691  0.00  0.00    +0.256 C 
ENDROOT
BRANCH  10   1
ATOM      1  S   UNL     1      -7.781 -12.122  14.052  0.00  0.00    +0.061 S 
ATOM      6  O   UNL     1      -8.906 -11.507  14.730  0.00  0.00    -0.153 OA
ATOM      7  O   UNL     1      -7.763 -13.553  13.810  0.00  0.00    -0.153 OA
BRANCH   1  19
ATOM     19  C   UNL     1      -7.598 -11.315  12.489  0.00  0.00    +0.106 A 
ATOM     21  C   UNL     1      -7.562  -9.922  12.423  0.00  0.00    +0.032 A 
ATOM     22  C   UNL     1      -7.491 -12.071  11.322  0.00  0.00    +0.032 A 
ATOM     26  C   UNL     1      -7.418  -9.285  11.191  0.00  0.00    +0.047 A 
ATOM     27  C   UNL     1      -7.348 -11.435  10.089  0.00  0.00    +0.047 A 
ATOM     29  C   UNL     1      -7.312 -10.042  10.023  0.00  0.00    +0.120 A 
BRANCH  29   9
ATOM      9  O   UNL     1      -7.172  -9.420   8.821  0.00  0.00    -0.495 OA
ATOM     32  C   UNL     1      -6.782  -8.047   8.840  0.00  0.00    +0.277 C 
ENDBRANCH  29   9
ENDBRANCH   1  19
ENDBRANCH  10   1
BRANCH  11  18
ATOM     18  C   UNL     1      -2.071 -12.865  13.637  0.00  0.00    +0.143 C 
BRANCH  18  20
ATOM     20  C   UNL     1      -2.725 -12.494  12.337  0.00  0.00    -0.030 A 
ATOM     23  C   UNL     1      -2.725 -11.166  11.910  0.00  0.00    +0.017 A 
ATOM     24  C   UNL     1      -3.332 -13.478  11.556  0.00  0.00    +0.005 A 
ATOM     25  C   UNL     1      -3.332 -10.821  10.703  0.00  0.00    +0.055 A 
ATOM     28  C   UNL     1      -3.939 -13.133  10.348  0.00  0.00    +0.001 A 
ATOM     30  C   UNL     1      -3.938 -11.805   9.921  0.00  0.00    +0.012 A 
BRANCH  25  31
ATOM      2  F   UNL     1      -3.710  -9.269   8.941  0.00  0.00    -0.166 F 
ATOM      3  F   UNL     1      -4.182  -8.599  10.955  0.00  0.00    -0.166 F 
ATOM      4  F   UNL     1      -2.112  -8.797  10.338  0.00  0.00    -0.166 F 
ATOM     31  C   UNL     1      -3.333  -9.402  10.247  0.00  0.00    +0.417 C 
ENDBRANCH  25  31
ENDBRANCH  18  20
ENDBRANCH  11  18
TORSDOF 6
ENDMDL
MODEL 9
REMARK VINA RESULT:      -6.3     20.874     24.482
REMARK  Name = 56775328
REMARK  7 active torsions:
REMARK  status: ('A' for Active; 'I' for Inactive)
REMARK    1  A    between atoms: S_1  and  N_10
REMARK    2  A    between atoms: S_1  and  C_19
REMARK    3  A    between atoms: O_9  and  C_29
REMARK    4  A    between atoms: O_9  and  C_32
REMARK    5  A    between atoms: N_11  and  C_18
REMARK    6  A    between atoms: C_18  and  C_20
REMARK    7  A    between atoms: C_25  and  C_31
REMARK                            x       y       z     vdW  Elec       q    Type
REMARK                         _______ _______ _______ _____ _____    ______ ____
ROOT
ATOM      5  O   UNL     1     -17.159  10.691  22.535  0.00  0.00    -0.364 OA
ATOM      8  O   UNL     1     -15.438  13.810  22.665  0.00  0.00    -0.273 OA
ATOM     10  N   UNL     1     -15.478   8.371  21.779  0.00  0.00    -0.172 NA
ATOM     11  N   UNL     1     -14.624  11.679  23.120  0.00  0.00    -0.288 N 
ATOM     12  C   UNL     1     -14.881  10.244  23.157  0.00  0.00    +0.122 C 
ATOM     13  C   UNL     1     -16.341   9.895  23.389  0.00  0.00    +0.156 C 
ATOM     14  C   UNL     1     -14.565   9.549  21.828  0.00  0.00    +0.134 C 
ATOM     15  C   UNL     1     -16.418   8.442  22.936  0.00  0.00    +0.143 C 
ATOM     16  C   UNL     1     -15.626  12.606  22.846  0.00  0.00    +0.242 C 
ATOM     17  C   UNL     1     -17.042  12.056  22.866  0.00  0.00    +0.256 C 
ENDROOT
BRANCH  10   1
ATOM      1  S   UNL     1     -14.814   6.857  21.390  0.00  0.00    +0.061 S 
ATOM      6  O   UNL     1     -15.758   6.103  20.588  0.00  0.00    -0.153 OA
ATOM      7  O   UNL     1     -14.225   6.268  22.580  0.00  0.00    -0.153 OA
BRANCH   1  19
ATOM     19  C   UNL     1     -13.489   7.349  20.327  0.00  0.00    +0.106 A 
ATOM     21  C   UNL     1     -12.172   7.291  20.782  0.00  0.00    +0.032 A 
ATOM     22  C   UNL     1     -13.762   7.795  19.035  0.00  0.00    +0.032 A 
ATOM     26  C   UNL     1     -11.127   7.680  19.943  0.00  0.00    +0.047 A 
ATOM     27  C   UNL     1     -12.717   8.185  18.196  0.00  0.00    +0.047 A 
ATOM     29  C   UNL     1     -11.400   8.127  18.650  0.00  0.00    +0.120 A 
BRANCH  29   9
ATOM      9  O   UNL     1     -10.380   8.506  17.832  0.00  0.00    -0.495 OA
ATOM     32  C   UNL     1     -10.543   8.265  16.435  0.00  0.00    +0.277 C 
ENDBRANCH  29   9
ENDBRANCH   1  19
ENDBRANCH  10   1
BRANCH  11  18
ATOM     18  C   UNL     1     -13.234  12.103  23.212  0.00  0.00    +0.143 C 
BRANCH  18  20
ATOM     20  C   UNL     1     -12.791  12.269  24.637  0.00  0.00    -0.030 A 
ATOM     23  C   UNL     1     -11.996  11.293  25.239  0.00  0.00    +0.017 A 
ATOM     24  C   UNL     1     -13.175  13.399  25.360  0.00  0.00    +0.005 A 
ATOM     25  C   UNL     1     -11.585  11.446  26.563  0.00  0.00    +0.055 A 
ATOM     28  C   UNL     1     -12.762  13.552  26.684  0.00  0.00    +0.001 A 
ATOM     30  C   UNL     1     -11.968  12.577  27.285  0.00  0.00    +0.012 A 
BRANCH  25  31
ATOM      2  F   UNL     1     -10.499  10.658  28.526  0.00  0.00    -0.166 F 
ATOM      3  F   UNL     1     -11.281   9.152  27.168  0.00  0.00    -0.166 F 
ATOM      4  F   UNL     1      -9.503  10.271  26.633  0.00  0.00    -0.166 F 
ATOM     31  C   UNL     1     -10.735  10.403  27.206  0.00  0.00    +0.417 C 
ENDBRANCH  25  31
ENDBRANCH  18  20
ENDBRANCH  11  18
TORSDOF 6
ENDMDL
MODEL 10
REMARK VINA RESULT:      -6.3     20.268     21.946
REMARK  Name = 56775328
REMARK  7 active torsions:
REMARK  status: ('A' for Active; 'I' for Inactive)
REMARK    1  A    between atoms: S_1  and  N_10
REMARK    2  A    between atoms: S_1  and  C_19
REMARK    3  A    between atoms: O_9  and  C_29
REMARK    4  A    between atoms: O_9  and  C_32
REMARK    5  A    between atoms: N_11  and  C_18
REMARK    6  A    between atoms: C_18  and  C_20
REMARK    7  A    between atoms: C_25  and  C_31
REMARK                            x       y       z     vdW  Elec       q    Type
REMARK                         _______ _______ _______ _____ _____    ______ ____
ROOT
ATOM      5  O   UNL     1     -18.012   4.970  20.172  0.00  0.00    -0.364 OA
ATOM      8  O   UNL     1     -16.954   5.047  23.575  0.00  0.00    -0.273 OA
ATOM     10  N   UNL     1     -17.614   7.502  18.686  0.00  0.00    -0.172 NA
ATOM     11  N   UNL     1     -16.078   6.197  21.753  0.00  0.00    -0.288 N 
ATOM     12  C   UNL     1     -16.175   6.511  20.332  0.00  0.00    +0.122 C 
ATOM     13  C   UNL     1     -16.830   5.413  19.511  0.00  0.00    +0.156 C 
ATOM     14  C   UNL     1     -17.062   7.729  20.052  0.00  0.00    +0.134 C 
ATOM     15  C   UNL     1     -17.221   6.137  18.229  0.00  0.00    +0.143 C 
ATOM     16  C   UNL     1     -16.898   5.250  22.362  0.00  0.00    +0.242 C 
ATOM     17  C   UNL     1     -17.697   4.375  21.411  0.00  0.00    +0.256 C 
ENDROOT
BRANCH  10   1
ATOM      1  S   UNL     1     -17.521   8.771  17.562  0.00  0.00    +0.061 S 
ATOM      6  O   UNL     1     -17.659  10.041  18.249  0.00  0.00    -0.153 OA
ATOM      7  O   UNL     1     -18.355   8.462  16.414  0.00  0.00    -0.153 OA
BRANCH   1  19
ATOM     19  C   UNL     1     -15.835   8.625  17.050  0.00  0.00    +0.106 A 
ATOM     21  C   UNL     1     -15.532   8.154  15.773  0.00  0.00    +0.032 A 
ATOM     22  C   UNL     1     -14.808   8.981  17.924  0.00  0.00    +0.032 A 
ATOM     26  C   UNL     1     -14.201   8.038  15.369  0.00  0.00    +0.047 A 
ATOM     27  C   UNL     1     -13.477   8.865  17.521  0.00  0.00    +0.047 A 
ATOM     29  C   UNL     1     -13.174   8.394  16.244  0.00  0.00    +0.120 A 
BRANCH  29   9
ATOM      9  O   UNL     1     -11.876   8.281  15.850  0.00  0.00    -0.495 OA
ATOM     32  C   UNL     1     -10.877   8.401  16.861  0.00  0.00    +0.277 C 
ENDBRANCH  29   9
ENDBRANCH   1  19
ENDBRANCH  10   1
BRANCH  11  18
ATOM     18  C   UNL     1     -15.201   7.038  22.556  0.00  0.00    +0.143 C 
BRANCH  18  20
ATOM     20  C   UNL     1     -13.904   7.326  21.856  0.00  0.00    -0.030 A 
ATOM     23  C   UNL     1     -13.537   8.644  21.583  0.00  0.00    +0.017 A 
ATOM     24  C   UNL     1     -13.067   6.276  21.480  0.00  0.00    +0.005 A 
ATOM     25  C   UNL     1     -12.333   8.912  20.932  0.00  0.00    +0.055 A 
ATOM     28  C   UNL     1     -11.862   6.545  20.829  0.00  0.00    +0.001 A 
ATOM     30  C   UNL     1     -11.495   7.862  20.557  0.00  0.00    +0.012 A 
BRANCH  25  31
ATOM      2  F   UNL     1     -12.939  11.029  20.036  0.00  0.00    -0.166 F 
ATOM      3  F   UNL     1     -11.605  11.038  21.753  0.00  0.00    -0.166 F 
ATOM      4  F   UNL     1     -10.862  10.427  19.809  0.00  0.00    -0.166 F 
ATOM     31  C   UNL     1     -11.940  10.321  20.640  0.00  0.00    +0.417 C 
ENDBRANCH  25  31
ENDBRANCH  18  20
ENDBRANCH  11  18
TORSDOF 6
ENDMDL
