MODEL 1
REMARK VINA RESULT:      -6.6      0.000      0.000
REMARK  Name = 75536581
REMARK  10 active torsions:
REMARK  status: ('A' for Active; 'I' for Inactive)
REMARK    1  A    between atoms: O_2  and  C_9
REMARK    2  A    between atoms: O_4  and  C_16
REMARK    3  A    between atoms: O_5  and  C_18
REMARK    4  A    between atoms: O_5  and  C_22
REMARK    5  A    between atoms: N_6  and  C_8
REMARK    6  A    between atoms: N_6  and  C_13
REMARK    7  A    between atoms: N_7  and  C_12
REMARK    8  A    between atoms: C_10  and  C_12
REMARK    9  A    between atoms: C_13  and  C_14
REMARK   10  A    between atoms: C_15  and  C_18
REMARK                            x       y       z     vdW  Elec       q    Type
REMARK                         _______ _______ _______ _____ _____    ______ ____
ROOT
ATOM      1  O   UNL     1      10.606   8.464  19.851  0.00  0.00    -0.371 OA
ATOM      8  C   UNL     1      12.792   7.652  19.401  0.00  0.00    +0.111 C 
ATOM      9  C   UNL     1      12.594   7.735  20.904  0.00  0.00    +0.164 C 
ATOM     10  C   UNL     1      11.075   7.738  20.999  0.00  0.00    +0.165 C 
ATOM     11  C   UNL     1      11.681   8.561  18.901  0.00  0.00    +0.181 C 
ENDROOT
BRANCH   9   2
ATOM      2  O   UNL     1      13.164   6.638  21.591  0.00  0.00    -0.388 OA
ATOM     24  H   UNL     1      13.618   6.075  20.943  0.00  0.00    +0.210 HD
ENDBRANCH   9   2
BRANCH   8   6
ATOM      6  N   UNL     1      14.111   8.077  18.962  0.00  0.00    -0.305 NA
ATOM     23  H   UNL     1      14.549   8.624  19.704  0.00  0.00    +0.123 HD
BRANCH   6  13
ATOM     13  C   UNL     1      14.958   6.930  18.658  0.00  0.00    +0.120 C 
BRANCH  13  14
ATOM     14  C   UNL     1      16.216   6.928  19.487  0.00  0.00    +0.008 A 
ATOM     16  C   UNL     1      17.248   6.029  19.213  0.00  0.00    +0.121 A 
ATOM     17  C   UNL     1      16.342   7.838  20.536  0.00  0.00    +0.008 A 
ATOM     19  C   UNL     1      18.406   6.041  19.991  0.00  0.00    +0.046 A 
ATOM     20  C   UNL     1      17.501   7.848  21.314  0.00  0.00    +0.001 A 
ATOM     21  C   UNL     1      18.532   6.950  21.041  0.00  0.00    +0.004 A 
BRANCH  16   4
ATOM      4  O   UNL     1      17.141   5.134  18.192  0.00  0.00    -0.506 OA
ATOM     26  H   UNL     1      16.899   4.265  18.557  0.00  0.00    +0.292 HD
ENDBRANCH  16   4
ENDBRANCH  13  14
ENDBRANCH   6  13
ENDBRANCH   8   6
BRANCH  10  12
ATOM     12  C   UNL     1      10.555   8.392  22.267  0.00  0.00    +0.138 C 
BRANCH  12   7
ATOM      3  O   UNL     1      11.022  11.218  21.868  0.00  0.00    -0.273 OA
ATOM      7  N   UNL     1      11.565   9.200  22.889  0.00  0.00    -0.311 N 
ATOM     15  C   UNL     1      11.717  10.560  22.636  0.00  0.00    +0.239 C 
ATOM     25  H   UNL     1      12.203   8.745  23.537  0.00  0.00    +0.149 HD
BRANCH  15  18
ATOM     18  C   UNL     1      12.859  11.161  23.428  0.00  0.00    +0.255 C 
BRANCH  18   5
ATOM      5  O   UNL     1      12.459  12.367  24.042  0.00  0.00    -0.374 OA
ATOM     22  C   UNL     1      11.683  12.136  25.214  0.00  0.00    +0.194 C 
ENDBRANCH  18   5
ENDBRANCH  15  18
ENDBRANCH  12   7
ENDBRANCH  10  12
TORSDOF 9
ENDMDL
MODEL 2
REMARK VINA RESULT:      -6.1     15.935     18.705
REMARK  Name = 75536581
REMARK  10 active torsions:
REMARK  status: ('A' for Active; 'I' for Inactive)
REMARK    1  A    between atoms: O_2  and  C_9
REMARK    2  A    between atoms: O_4  and  C_16
REMARK    3  A    between atoms: O_5  and  C_18
REMARK    4  A    between atoms: O_5  and  C_22
REMARK    5  A    between atoms: N_6  and  C_8
REMARK    6  A    between atoms: N_6  and  C_13
REMARK    7  A    between atoms: N_7  and  C_12
REMARK    8  A    between atoms: C_10  and  C_12
REMARK    9  A    between atoms: C_13  and  C_14
REMARK   10  A    between atoms: C_15  and  C_18
REMARK                            x       y       z     vdW  Elec       q    Type
REMARK                         _______ _______ _______ _____ _____    ______ ____
ROOT
ATOM      1  O   UNL     1      -0.655   3.108  26.568  0.00  0.00    -0.371 OA
ATOM      8  C   UNL     1       0.129   1.640  24.873  0.00  0.00    +0.111 C 
ATOM      9  C   UNL     1      -0.591   2.808  24.223  0.00  0.00    +0.164 C 
ATOM     10  C   UNL     1      -0.537   3.843  25.339  0.00  0.00    +0.165 C 
ATOM     11  C   UNL     1      -0.396   1.720  26.298  0.00  0.00    +0.181 C 
ENDROOT
BRANCH   9   2
ATOM      2  O   UNL     1       0.055   3.262  23.050  0.00  0.00    -0.388 OA
ATOM     24  H   UNL     1      -0.037   2.578  22.366  0.00  0.00    +0.210 HD
ENDBRANCH   9   2
BRANCH   8   6
ATOM      6  N   UNL     1      -0.146   0.360  24.241  0.00  0.00    -0.305 NA
ATOM     23  H   UNL     1       0.720  -0.006  23.842  0.00  0.00    +0.123 HD
BRANCH   6  13
ATOM     13  C   UNL     1      -0.664  -0.602  25.206  0.00  0.00    +0.120 C 
BRANCH  13  14
ATOM     14  C   UNL     1      -1.947  -1.234  24.733  0.00  0.00    +0.008 A 
ATOM     16  C   UNL     1      -3.056  -0.448  24.420  0.00  0.00    +0.121 A 
ATOM     17  C   UNL     1      -2.017  -2.622  24.609  0.00  0.00    +0.008 A 
ATOM     19  C   UNL     1      -4.236  -1.051  23.984  0.00  0.00    +0.046 A 
ATOM     20  C   UNL     1      -3.197  -3.223  24.172  0.00  0.00    +0.001 A 
ATOM     21  C   UNL     1      -4.307  -2.438  23.860  0.00  0.00    +0.004 A 
BRANCH  16   4
ATOM      4  O   UNL     1      -3.005   0.908  24.536  0.00  0.00    -0.506 OA
ATOM     26  H   UNL     1      -2.076   1.182  24.635  0.00  0.00    +0.292 HD
ENDBRANCH  16   4
ENDBRANCH  13  14
ENDBRANCH   6  13
ENDBRANCH   8   6
BRANCH  10  12
ATOM     12  C   UNL     1      -1.645   4.877  25.250  0.00  0.00    +0.138 C 
BRANCH  12   7
ATOM      3  O   UNL     1      -3.889   3.751  23.813  0.00  0.00    -0.273 OA
ATOM      7  N   UNL     1      -2.870   4.379  25.808  0.00  0.00    -0.311 N 
ATOM     15  C   UNL     1      -3.901   3.852  25.037  0.00  0.00    +0.239 C 
ATOM     25  H   UNL     1      -2.985   4.428  26.817  0.00  0.00    +0.149 HD
BRANCH  15  18
ATOM     18  C   UNL     1      -5.072   3.402  25.885  0.00  0.00    +0.255 C 
BRANCH  18   5
ATOM      5  O   UNL     1      -5.291   2.015  25.736  0.00  0.00    -0.374 OA
ATOM     22  C   UNL     1      -6.454   1.741  24.959  0.00  0.00    +0.194 C 
ENDBRANCH  18   5
ENDBRANCH  15  18
ENDBRANCH  12   7
ENDBRANCH  10  12
TORSDOF 9
ENDMDL
MODEL 3
REMARK VINA RESULT:      -6.1      1.717      2.132
REMARK  Name = 75536581
REMARK  10 active torsions:
REMARK  status: ('A' for Active; 'I' for Inactive)
REMARK    1  A    between atoms: O_2  and  C_9
REMARK    2  A    between atoms: O_4  and  C_16
REMARK    3  A    between atoms: O_5  and  C_18
REMARK    4  A    between atoms: O_5  and  C_22
REMARK    5  A    between atoms: N_6  and  C_8
REMARK    6  A    between atoms: N_6  and  C_13
REMARK    7  A    between atoms: N_7  and  C_12
REMARK    8  A    between atoms: C_10  and  C_12
REMARK    9  A    between atoms: C_13  and  C_14
REMARK   10  A    between atoms: C_15  and  C_18
REMARK                            x       y       z     vdW  Elec       q    Type
REMARK                         _______ _______ _______ _____ _____    ______ ____
ROOT
ATOM      1  O   UNL     1      11.592   7.554  19.420  0.00  0.00    -0.371 OA
ATOM      8  C   UNL     1      13.808   7.119  20.154  0.00  0.00    +0.111 C 
ATOM      9  C   UNL     1      13.221   8.242  20.989  0.00  0.00    +0.164 C 
ATOM     10  C   UNL     1      11.731   8.022  20.771  0.00  0.00    +0.165 C 
ATOM     11  C   UNL     1      12.881   7.124  18.949  0.00  0.00    +0.181 C 
ENDROOT
BRANCH   9   2
ATOM      2  O   UNL     1      13.575   8.149  22.356  0.00  0.00    -0.388 OA
ATOM     24  H   UNL     1      12.798   7.842  22.851  0.00  0.00    +0.210 HD
ENDBRANCH   9   2
BRANCH   8   6
ATOM      6  N   UNL     1      15.202   7.324  19.796  0.00  0.00    -0.305 NA
ATOM     23  H   UNL     1      15.519   8.212  20.187  0.00  0.00    +0.123 HD
BRANCH   6  13
ATOM     13  C   UNL     1      16.042   6.253  20.318  0.00  0.00    +0.120 C 
BRANCH  13  14
ATOM     14  C   UNL     1      17.416   6.746  20.686  0.00  0.00    +0.008 A 
ATOM     16  C   UNL     1      17.576   7.855  21.518  0.00  0.00    +0.121 A 
ATOM     17  C   UNL     1      18.536   6.081  20.186  0.00  0.00    +0.008 A 
ATOM     19  C   UNL     1      18.857   8.299  21.848  0.00  0.00    +0.046 A 
ATOM     20  C   UNL     1      19.816   6.526  20.517  0.00  0.00    +0.001 A 
ATOM     21  C   UNL     1      19.976   7.635  21.348  0.00  0.00    +0.004 A 
BRANCH  16   4
ATOM      4  O   UNL     1      16.493   8.515  22.015  0.00  0.00    -0.506 OA
ATOM     26  H   UNL     1      16.496   9.427  21.676  0.00  0.00    +0.292 HD
ENDBRANCH  16   4
ENDBRANCH  13  14
ENDBRANCH   6  13
ENDBRANCH   8   6
BRANCH  10  12
ATOM     12  C   UNL     1      10.903   9.280  20.967  0.00  0.00    +0.138 C 
BRANCH  12   7
ATOM      3  O   UNL     1      11.609  11.843  22.107  0.00  0.00    -0.273 OA
ATOM      7  N   UNL     1      10.848   9.658  22.351  0.00  0.00    -0.311 N 
ATOM     15  C   UNL     1      11.209  10.920  22.811  0.00  0.00    +0.239 C 
ATOM     25  H   UNL     1      10.539   8.959  23.020  0.00  0.00    +0.149 HD
BRANCH  15  18
ATOM     18  C   UNL     1      11.052  11.043  24.312  0.00  0.00    +0.255 C 
BRANCH  18   5
ATOM      5  O   UNL     1      10.182  12.106  24.637  0.00  0.00    -0.374 OA
ATOM     22  C   UNL     1      10.838  13.118  25.396  0.00  0.00    +0.194 C 
ENDBRANCH  18   5
ENDBRANCH  15  18
ENDBRANCH  12   7
ENDBRANCH  10  12
TORSDOF 9
ENDMDL
MODEL 4
REMARK VINA RESULT:      -5.9      2.337      3.887
REMARK  Name = 75536581
REMARK  10 active torsions:
REMARK  status: ('A' for Active; 'I' for Inactive)
REMARK    1  A    between atoms: O_2  and  C_9
REMARK    2  A    between atoms: O_4  and  C_16
REMARK    3  A    between atoms: O_5  and  C_18
REMARK    4  A    between atoms: O_5  and  C_22
REMARK    5  A    between atoms: N_6  and  C_8
REMARK    6  A    between atoms: N_6  and  C_13
REMARK    7  A    between atoms: N_7  and  C_12
REMARK    8  A    between atoms: C_10  and  C_12
REMARK    9  A    between atoms: C_13  and  C_14
REMARK   10  A    between atoms: C_15  and  C_18
REMARK                            x       y       z     vdW  Elec       q    Type
REMARK                         _______ _______ _______ _____ _____    ______ ____
ROOT
ATOM      1  O   UNL     1      15.410   6.639  19.086  0.00  0.00    -0.371 OA
ATOM      8  C   UNL     1      16.614   6.599  21.133  0.00  0.00    +0.111 C 
ATOM      9  C   UNL     1      15.339   7.400  21.324  0.00  0.00    +0.164 C 
ATOM     10  C   UNL     1      14.495   6.888  20.165  0.00  0.00    +0.165 C 
ATOM     11  C   UNL     1      16.745   6.599  19.618  0.00  0.00    +0.181 C 
ENDROOT
BRANCH   9   2
ATOM      2  O   UNL     1      14.724   7.157  22.574  0.00  0.00    -0.388 OA
ATOM     24  H   UNL     1      15.265   7.572  23.266  0.00  0.00    +0.210 HD
ENDBRANCH   9   2
BRANCH   8   6
ATOM      6  N   UNL     1      17.771   7.173  21.801  0.00  0.00    -0.305 NA
ATOM     23  H   UNL     1      17.995   6.609  22.621  0.00  0.00    +0.123 HD
BRANCH   6  13
ATOM     13  C   UNL     1      18.929   7.199  20.915  0.00  0.00    +0.120 C 
BRANCH  13  14
ATOM     14  C   UNL     1      20.018   6.273  21.389  0.00  0.00    +0.008 A 
ATOM     16  C   UNL     1      20.338   5.122  20.670  0.00  0.00    +0.121 A 
ATOM     17  C   UNL     1      20.709   6.579  22.562  0.00  0.00    +0.008 A 
ATOM     19  C   UNL     1      21.349   4.275  21.124  0.00  0.00    +0.046 A 
ATOM     20  C   UNL     1      21.721   5.731  23.015  0.00  0.00    +0.001 A 
ATOM     21  C   UNL     1      22.040   4.580  22.296  0.00  0.00    +0.004 A 
BRANCH  16   4
ATOM      4  O   UNL     1      19.672   4.809  19.523  0.00  0.00    -0.506 OA
ATOM     26  H   UNL     1      19.146   5.578  19.242  0.00  0.00    +0.292 HD
ENDBRANCH  16   4
ENDBRANCH  13  14
ENDBRANCH   6  13
ENDBRANCH   8   6
BRANCH  10  12
ATOM     12  C   UNL     1      13.429   7.873  19.718  0.00  0.00    +0.138 C 
BRANCH  12   7
ATOM      3  O   UNL     1      10.585   8.396  19.740  0.00  0.00    -0.273 OA
ATOM      7  N   UNL     1      12.640   8.327  20.828  0.00  0.00    -0.311 N 
ATOM     15  C   UNL     1      11.269   8.553  20.747  0.00  0.00    +0.239 C 
ATOM     25  H   UNL     1      13.117   8.498  21.709  0.00  0.00    +0.149 HD
BRANCH  15  18
ATOM     18  C   UNL     1      10.693   9.026  22.065  0.00  0.00    +0.255 C 
BRANCH  18   5
ATOM      5  O   UNL     1      10.925  10.406  22.244  0.00  0.00    -0.374 OA
ATOM     22  C   UNL     1      10.971  10.763  23.623  0.00  0.00    +0.194 C 
ENDBRANCH  18   5
ENDBRANCH  15  18
ENDBRANCH  12   7
ENDBRANCH  10  12
TORSDOF 9
ENDMDL
MODEL 5
REMARK VINA RESULT:      -5.8      2.901      6.841
REMARK  Name = 75536581
REMARK  10 active torsions:
REMARK  status: ('A' for Active; 'I' for Inactive)
REMARK    1  A    between atoms: O_2  and  C_9
REMARK    2  A    between atoms: O_4  and  C_16
REMARK    3  A    between atoms: O_5  and  C_18
REMARK    4  A    between atoms: O_5  and  C_22
REMARK    5  A    between atoms: N_6  and  C_8
REMARK    6  A    between atoms: N_6  and  C_13
REMARK    7  A    between atoms: N_7  and  C_12
REMARK    8  A    between atoms: C_10  and  C_12
REMARK    9  A    between atoms: C_13  and  C_14
REMARK   10  A    between atoms: C_15  and  C_18
REMARK                            x       y       z     vdW  Elec       q    Type
REMARK                         _______ _______ _______ _____ _____    ______ ____
ROOT
ATOM      1  O   UNL     1      13.609   7.089  20.614  0.00  0.00    -0.371 OA
ATOM      8  C   UNL     1      11.856   7.945  21.969  0.00  0.00    +0.111 C 
ATOM      9  C   UNL     1      11.533   8.216  20.511  0.00  0.00    +0.164 C 
ATOM     10  C   UNL     1      12.416   7.188  19.819  0.00  0.00    +0.165 C 
ATOM     11  C   UNL     1      13.351   7.678  21.901  0.00  0.00    +0.181 C 
ENDROOT
BRANCH   9   2
ATOM      2  O   UNL     1      10.164   8.023  20.211  0.00  0.00    -0.388 OA
ATOM     24  H   UNL     1       9.689   8.847  20.409  0.00  0.00    +0.210 HD
ENDBRANCH   9   2
BRANCH   8   6
ATOM      6  N   UNL     1      11.518   9.045  22.857  0.00  0.00    -0.305 NA
ATOM     23  H   UNL     1      11.806   8.807  23.807  0.00  0.00    +0.123 HD
BRANCH   6  13
ATOM     13  C   UNL     1      12.195  10.272  22.453  0.00  0.00    +0.120 C 
BRANCH  13  14
ATOM     14  C   UNL     1      11.464  11.499  22.930  0.00  0.00    +0.008 A 
ATOM     16  C   UNL     1      11.131  11.653  24.276  0.00  0.00    +0.121 A 
ATOM     17  C   UNL     1      11.120  12.488  22.008  0.00  0.00    +0.008 A 
ATOM     19  C   UNL     1      10.453  12.796  24.699  0.00  0.00    +0.046 A 
ATOM     20  C   UNL     1      10.442  13.631  22.433  0.00  0.00    +0.001 A 
ATOM     21  C   UNL     1      10.108  13.784  23.778  0.00  0.00    +0.004 A 
BRANCH  16   4
ATOM      4  O   UNL     1      11.460  10.696  25.188  0.00  0.00    -0.506 OA
ATOM     26  H   UNL     1      10.692  10.530  25.763  0.00  0.00    +0.292 HD
ENDBRANCH  16   4
ENDBRANCH  13  14
ENDBRANCH   6  13
ENDBRANCH   8   6
BRANCH  10  12
ATOM     12  C   UNL     1      12.779   7.571  18.395  0.00  0.00    +0.138 C 
BRANCH  12   7
ATOM      3  O   UNL     1      14.966   9.441  18.683  0.00  0.00    -0.273 OA
ATOM      7  N   UNL     1      12.733   8.993  18.209  0.00  0.00    -0.311 N 
ATOM     15  C   UNL     1      13.841   9.819  18.370  0.00  0.00    +0.239 C 
ATOM     25  H   UNL     1      11.840   9.409  17.959  0.00  0.00    +0.149 HD
BRANCH  15  18
ATOM     18  C   UNL     1      13.507  11.274  18.112  0.00  0.00    +0.255 C 
BRANCH  18   5
ATOM      5  O   UNL     1      14.406  11.833  17.178  0.00  0.00    -0.374 OA
ATOM     22  C   UNL     1      14.181  11.338  15.861  0.00  0.00    +0.194 C 
ENDBRANCH  18   5
ENDBRANCH  15  18
ENDBRANCH  12   7
ENDBRANCH  10  12
TORSDOF 9
ENDMDL
MODEL 6
REMARK VINA RESULT:      -5.7     15.590     17.658
REMARK  Name = 75536581
REMARK  10 active torsions:
REMARK  status: ('A' for Active; 'I' for Inactive)
REMARK    1  A    between atoms: O_2  and  C_9
REMARK    2  A    between atoms: O_4  and  C_16
REMARK    3  A    between atoms: O_5  and  C_18
REMARK    4  A    between atoms: O_5  and  C_22
REMARK    5  A    between atoms: N_6  and  C_8
REMARK    6  A    between atoms: N_6  and  C_13
REMARK    7  A    between atoms: N_7  and  C_12
REMARK    8  A    between atoms: C_10  and  C_12
REMARK    9  A    between atoms: C_13  and  C_14
REMARK   10  A    between atoms: C_15  and  C_18
REMARK                            x       y       z     vdW  Elec       q    Type
REMARK                         _______ _______ _______ _____ _____    ______ ____
ROOT
ATOM      1  O   UNL     1      10.412   7.831   4.034  0.00  0.00    -0.371 OA
ATOM      8  C   UNL     1      11.454   5.907   3.110  0.00  0.00    +0.111 C 
ATOM      9  C   UNL     1      11.055   5.613   4.545  0.00  0.00    +0.164 C 
ATOM     10  C   UNL     1       9.988   6.675   4.776  0.00  0.00    +0.165 C 
ATOM     11  C   UNL     1      11.423   7.427   3.095  0.00  0.00    +0.181 C 
ENDROOT
BRANCH   9   2
ATOM      2  O   UNL     1      10.542   4.305   4.712  0.00  0.00    -0.388 OA
ATOM     24  H   UNL     1      10.875   3.752   3.985  0.00  0.00    +0.210 HD
ENDBRANCH   9   2
BRANCH   8   6
ATOM      6  N   UNL     1      12.752   5.364   2.743  0.00  0.00    -0.305 NA
ATOM     23  H   UNL     1      13.237   5.060   3.588  0.00  0.00    +0.123 HD
BRANCH   6  13
ATOM     13  C   UNL     1      12.609   4.224   1.845  0.00  0.00    +0.120 C 
BRANCH  13  14
ATOM     14  C   UNL     1      13.692   4.193   0.800  0.00  0.00    +0.008 A 
ATOM     16  C   UNL     1      15.016   3.928   1.152  0.00  0.00    +0.121 A 
ATOM     17  C   UNL     1      13.359   4.434  -0.533  0.00  0.00    +0.008 A 
ATOM     19  C   UNL     1      16.007   3.905   0.171  0.00  0.00    +0.046 A 
ATOM     20  C   UNL     1      14.351   4.410  -1.514  0.00  0.00    +0.001 A 
ATOM     21  C   UNL     1      15.675   4.146  -1.162  0.00  0.00    +0.004 A 
BRANCH  16   4
ATOM      4  O   UNL     1      15.357   3.692   2.450  0.00  0.00    -0.506 OA
ATOM     26  H   UNL     1      16.256   3.321   2.478  0.00  0.00    +0.292 HD
ENDBRANCH  16   4
ENDBRANCH  13  14
ENDBRANCH   6  13
ENDBRANCH   8   6
BRANCH  10  12
ATOM     12  C   UNL     1       9.812   7.040   6.239  0.00  0.00    +0.138 C 
BRANCH  12   7
ATOM      3  O   UNL     1      11.468   5.754   8.232  0.00  0.00    -0.273 OA
ATOM      7  N   UNL     1       9.482   5.887   7.028  0.00  0.00    -0.311 N 
ATOM     15  C   UNL     1      10.345   5.334   7.969  0.00  0.00    +0.239 C 
ATOM     25  H   UNL     1       8.574   5.455   6.877  0.00  0.00    +0.149 HD
BRANCH  15  18
ATOM     18  C   UNL     1       9.739   4.126   8.653  0.00  0.00    +0.255 C 
BRANCH  18   5
ATOM      5  O   UNL     1       9.779   4.277  10.056  0.00  0.00    -0.374 OA
ATOM     22  C   UNL     1       8.530   4.721  10.579  0.00  0.00    +0.194 C 
ENDBRANCH  18   5
ENDBRANCH  15  18
ENDBRANCH  12   7
ENDBRANCH  10  12
TORSDOF 9
ENDMDL
MODEL 7
REMARK VINA RESULT:      -5.7      3.108      7.856
REMARK  Name = 75536581
REMARK  10 active torsions:
REMARK  status: ('A' for Active; 'I' for Inactive)
REMARK    1  A    between atoms: O_2  and  C_9
REMARK    2  A    between atoms: O_4  and  C_16
REMARK    3  A    between atoms: O_5  and  C_18
REMARK    4  A    between atoms: O_5  and  C_22
REMARK    5  A    between atoms: N_6  and  C_8
REMARK    6  A    between atoms: N_6  and  C_13
REMARK    7  A    between atoms: N_7  and  C_12
REMARK    8  A    between atoms: C_10  and  C_12
REMARK    9  A    between atoms: C_13  and  C_14
REMARK   10  A    between atoms: C_15  and  C_18
REMARK                            x       y       z     vdW  Elec       q    Type
REMARK                         _______ _______ _______ _____ _____    ______ ____
ROOT
ATOM      1  O   UNL     1      18.009   6.249  19.476  0.00  0.00    -0.371 OA
ATOM      8  C   UNL     1      15.739   6.827  19.868  0.00  0.00    +0.111 C 
ATOM      9  C   UNL     1      16.515   6.960  21.165  0.00  0.00    +0.164 C 
ATOM     10  C   UNL     1      17.940   7.084  20.643  0.00  0.00    +0.165 C 
ATOM     11  C   UNL     1      16.670   5.945  19.050  0.00  0.00    +0.181 C 
ENDROOT
BRANCH   9   2
ATOM      2  O   UNL     1      16.128   8.093  21.919  0.00  0.00    -0.388 OA
ATOM     24  H   UNL     1      16.870   8.720  21.930  0.00  0.00    +0.210 HD
ENDBRANCH   9   2
BRANCH   8   6
ATOM      6  N   UNL     1      14.415   6.249  20.035  0.00  0.00    -0.305 NA
ATOM     23  H   UNL     1      14.226   6.136  21.032  0.00  0.00    +0.123 HD
BRANCH   6  13
ATOM     13  C   UNL     1      13.390   7.107  19.454  0.00  0.00    +0.120 C 
BRANCH  13  14
ATOM     14  C   UNL     1      12.456   7.652  20.502  0.00  0.00    +0.008 A 
ATOM     16  C   UNL     1      11.454   6.850  21.050  0.00  0.00    +0.121 A 
ATOM     17  C   UNL     1      12.600   8.974  20.922  0.00  0.00    +0.008 A 
ATOM     19  C   UNL     1      10.597   7.372  22.019  0.00  0.00    +0.046 A 
ATOM     20  C   UNL     1      11.742   9.495  21.892  0.00  0.00    +0.001 A 
ATOM     21  C   UNL     1      10.741   8.693  22.440  0.00  0.00    +0.004 A 
BRANCH  16   4
ATOM      4  O   UNL     1      11.299   5.558  20.650  0.00  0.00    -0.506 OA
ATOM     26  H   UNL     1      10.418   5.453  20.251  0.00  0.00    +0.292 HD
ENDBRANCH  16   4
ENDBRANCH  13  14
ENDBRANCH   6  13
ENDBRANCH   8   6
BRANCH  10  12
ATOM     12  C   UNL     1      18.988   6.646  21.651  0.00  0.00    +0.138 C 
BRANCH  12   7
ATOM      3  O   UNL     1      21.165   5.075  22.728  0.00  0.00    -0.273 OA
ATOM      7  N   UNL     1      20.232   6.332  21.007  0.00  0.00    -0.311 N 
ATOM     15  C   UNL     1      21.227   5.565  21.604  0.00  0.00    +0.239 C 
ATOM     25  H   UNL     1      20.388   6.702  20.073  0.00  0.00    +0.149 HD
BRANCH  15  18
ATOM     18  C   UNL     1      22.429   5.392  20.700  0.00  0.00    +0.255 C 
BRANCH  18   5
ATOM      5  O   UNL     1      23.022   6.640  20.414  0.00  0.00    -0.374 OA
ATOM     22  C   UNL     1      23.845   7.096  21.485  0.00  0.00    +0.194 C 
ENDBRANCH  18   5
ENDBRANCH  15  18
ENDBRANCH  12   7
ENDBRANCH  10  12
TORSDOF 9
ENDMDL
MODEL 8
REMARK VINA RESULT:      -5.6     28.331     31.147
REMARK  Name = 75536581
REMARK  10 active torsions:
REMARK  status: ('A' for Active; 'I' for Inactive)
REMARK    1  A    between atoms: O_2  and  C_9
REMARK    2  A    between atoms: O_4  and  C_16
REMARK    3  A    between atoms: O_5  and  C_18
REMARK    4  A    between atoms: O_5  and  C_22
REMARK    5  A    between atoms: N_6  and  C_8
REMARK    6  A    between atoms: N_6  and  C_13
REMARK    7  A    between atoms: N_7  and  C_12
REMARK    8  A    between atoms: C_10  and  C_12
REMARK    9  A    between atoms: C_13  and  C_14
REMARK   10  A    between atoms: C_15  and  C_18
REMARK                            x       y       z     vdW  Elec       q    Type
REMARK                         _______ _______ _______ _____ _____    ______ ____
ROOT
ATOM      1  O   UNL     1     -18.419   1.511  27.624  0.00  0.00    -0.371 OA
ATOM      8  C   UNL     1     -16.417   1.366  28.895  0.00  0.00    +0.111 C 
ATOM      9  C   UNL     1     -16.139   2.140  27.619  0.00  0.00    +0.164 C 
ATOM     10  C   UNL     1     -17.544   2.581  27.231  0.00  0.00    +0.165 C 
ATOM     11  C   UNL     1     -17.713   0.654  28.538  0.00  0.00    +0.181 C 
ENDROOT
BRANCH   9   2
ATOM      2  O   UNL     1     -15.278   3.242  27.826  0.00  0.00    -0.388 OA
ATOM     24  H   UNL     1     -15.768   4.055  27.619  0.00  0.00    +0.210 HD
ENDBRANCH   9   2
BRANCH   8   6
ATOM      6  N   UNL     1     -15.352   0.449  29.266  0.00  0.00    -0.305 NA
ATOM     23  H   UNL     1     -14.463   0.817  28.925  0.00  0.00    +0.123 HD
BRANCH   6  13
ATOM     13  C   UNL     1     -15.274   0.294  30.714  0.00  0.00    +0.120 C 
BRANCH  13  14
ATOM     14  C   UNL     1     -14.714   1.523  31.380  0.00  0.00    +0.008 A 
ATOM     16  C   UNL     1     -13.605   2.181  30.847  0.00  0.00    +0.121 A 
ATOM     17  C   UNL     1     -15.319   2.003  32.542  0.00  0.00    +0.008 A 
ATOM     19  C   UNL     1     -13.100   3.318  31.478  0.00  0.00    +0.046 A 
ATOM     20  C   UNL     1     -14.813   3.141  33.171  0.00  0.00    +0.001 A 
ATOM     21  C   UNL     1     -13.704   3.798  32.639  0.00  0.00    +0.004 A 
BRANCH  16   4
ATOM      4  O   UNL     1     -13.003   1.725  29.713  0.00  0.00    -0.506 OA
ATOM     26  H   UNL     1     -12.474   2.443  29.324  0.00  0.00    +0.292 HD
ENDBRANCH  16   4
ENDBRANCH  13  14
ENDBRANCH   6  13
ENDBRANCH   8   6
BRANCH  10  12
ATOM     12  C   UNL     1     -17.699   2.852  25.745  0.00  0.00    +0.138 C 
BRANCH  12   7
ATOM      3  O   UNL     1     -16.345   2.604  23.201  0.00  0.00    -0.273 OA
ATOM      7  N   UNL     1     -16.629   3.670  25.250  0.00  0.00    -0.311 N 
ATOM     15  C   UNL     1     -16.034   3.477  24.007  0.00  0.00    +0.239 C 
ATOM     25  H   UNL     1     -16.288   4.417  25.848  0.00  0.00    +0.149 HD
BRANCH  15  18
ATOM     18  C   UNL     1     -14.933   4.482  23.741  0.00  0.00    +0.255 C 
BRANCH  18   5
ATOM      5  O   UNL     1     -14.648   4.555  22.361  0.00  0.00    -0.374 OA
ATOM     22  C   UNL     1     -13.421   5.234  22.107  0.00  0.00    +0.194 C 
ENDBRANCH  18   5
ENDBRANCH  15  18
ENDBRANCH  12   7
ENDBRANCH  10  12
TORSDOF 9
ENDMDL
MODEL 9
REMARK VINA RESULT:      -5.6      3.537      7.766
REMARK  Name = 75536581
REMARK  10 active torsions:
REMARK  status: ('A' for Active; 'I' for Inactive)
REMARK    1  A    between atoms: O_2  and  C_9
REMARK    2  A    between atoms: O_4  and  C_16
REMARK    3  A    between atoms: O_5  and  C_18
REMARK    4  A    between atoms: O_5  and  C_22
REMARK    5  A    between atoms: N_6  and  C_8
REMARK    6  A    between atoms: N_6  and  C_13
REMARK    7  A    between atoms: N_7  and  C_12
REMARK    8  A    between atoms: C_10  and  C_12
REMARK    9  A    between atoms: C_13  and  C_14
REMARK   10  A    between atoms: C_15  and  C_18
REMARK                            x       y       z     vdW  Elec       q    Type
REMARK                         _______ _______ _______ _____ _____    ______ ____
ROOT
ATOM      1  O   UNL     1      16.480   7.620  21.542  0.00  0.00    -0.371 OA
ATOM      8  C   UNL     1      15.490   6.613  19.632  0.00  0.00    +0.111 C 
ATOM      9  C   UNL     1      16.999   6.613  19.466  0.00  0.00    +0.164 C 
ATOM     10  C   UNL     1      17.453   6.771  20.911  0.00  0.00    +0.165 C 
ATOM     11  C   UNL     1      15.307   7.667  20.712  0.00  0.00    +0.181 C 
ENDROOT
BRANCH   9   2
ATOM      2  O   UNL     1      17.485   5.417  18.888  0.00  0.00    -0.388 OA
ATOM     24  H   UNL     1      18.083   5.651  18.159  0.00  0.00    +0.210 HD
ENDBRANCH   9   2
BRANCH   8   6
ATOM      6  N   UNL     1      14.769   6.925  18.409  0.00  0.00    -0.305 NA
ATOM     23  H   UNL     1      13.887   6.411  18.403  0.00  0.00    +0.123 HD
BRANCH   6  13
ATOM     13  C   UNL     1      14.483   8.352  18.317  0.00  0.00    +0.120 C 
BRANCH  13  14
ATOM     14  C   UNL     1      13.275   8.628  17.462  0.00  0.00    +0.008 A 
ATOM     16  C   UNL     1      12.014   8.166  17.838  0.00  0.00    +0.121 A 
ATOM     17  C   UNL     1      13.429   9.355  16.281  0.00  0.00    +0.008 A 
ATOM     19  C   UNL     1      10.906   8.430  17.033  0.00  0.00    +0.046 A 
ATOM     20  C   UNL     1      12.319   9.619  15.477  0.00  0.00    +0.001 A 
ATOM     21  C   UNL     1      11.059   9.157  15.853  0.00  0.00    +0.004 A 
BRANCH  16   4
ATOM      4  O   UNL     1      11.847   7.454  18.988  0.00  0.00    -0.506 OA
ATOM     26  H   UNL     1      11.869   6.504  18.778  0.00  0.00    +0.292 HD
ENDBRANCH  16   4
ENDBRANCH  13  14
ENDBRANCH   6  13
ENDBRANCH   8   6
BRANCH  10  12
ATOM     12  C   UNL     1      18.834   7.387  21.041  0.00  0.00    +0.138 C 
BRANCH  12   7
ATOM      3  O   UNL     1      20.195   6.350  23.374  0.00  0.00    -0.273 OA
ATOM      7  N   UNL     1      19.855   6.379  21.072  0.00  0.00    -0.311 N 
ATOM     15  C   UNL     1      20.457   5.939  22.247  0.00  0.00    +0.239 C 
ATOM     25  H   UNL     1      20.153   5.980  20.186  0.00  0.00    +0.149 HD
BRANCH  15  18
ATOM     18  C   UNL     1      21.498   4.870  21.986  0.00  0.00    +0.255 C 
BRANCH  18   5
ATOM      5  O   UNL     1      21.905   4.265  23.194  0.00  0.00    -0.374 OA
ATOM     22  C   UNL     1      23.323   4.254  23.333  0.00  0.00    +0.194 C 
ENDBRANCH  18   5
ENDBRANCH  15  18
ENDBRANCH  12   7
ENDBRANCH  10  12
TORSDOF 9
ENDMDL
MODEL 10
REMARK VINA RESULT:      -5.6      2.648      6.846
REMARK  Name = 75536581
REMARK  10 active torsions:
REMARK  status: ('A' for Active; 'I' for Inactive)
REMARK    1  A    between atoms: O_2  and  C_9
REMARK    2  A    between atoms: O_4  and  C_16
REMARK    3  A    between atoms: O_5  and  C_18
REMARK    4  A    between atoms: O_5  and  C_22
REMARK    5  A    between atoms: N_6  and  C_8
REMARK    6  A    between atoms: N_6  and  C_13
REMARK    7  A    between atoms: N_7  and  C_12
REMARK    8  A    between atoms: C_10  and  C_12
REMARK    9  A    between atoms: C_13  and  C_14
REMARK   10  A    between atoms: C_15  and  C_18
REMARK                            x       y       z     vdW  Elec       q    Type
REMARK                         _______ _______ _______ _____ _____    ______ ____
ROOT
ATOM      1  O   UNL     1      14.851   9.196  19.776  0.00  0.00    -0.371 OA
ATOM      8  C   UNL     1      15.145   9.334  22.129  0.00  0.00    +0.111 C 
ATOM      9  C   UNL     1      14.503   8.002  21.787  0.00  0.00    +0.164 C 
ATOM     10  C   UNL     1      14.876   7.865  20.317  0.00  0.00    +0.165 C 
ATOM     11  C   UNL     1      14.867  10.134  20.866  0.00  0.00    +0.181 C 
ENDROOT
BRANCH   9   2
ATOM      2  O   UNL     1      15.014   6.935  22.563  0.00  0.00    -0.388 OA
ATOM     24  H   UNL     1      14.378   6.201  22.529  0.00  0.00    +0.210 HD
ENDBRANCH   9   2
BRANCH   8   6
ATOM      6  N   UNL     1      14.598   9.956  23.324  0.00  0.00    -0.305 NA
ATOM     23  H   UNL     1      15.242   9.806  24.102  0.00  0.00    +0.123 HD
BRANCH   6  13
ATOM     13  C   UNL     1      14.416  11.390  23.133  0.00  0.00    +0.120 C 
BRANCH  13  14
ATOM     14  C   UNL     1      13.041  11.841  23.548  0.00  0.00    +0.008 A 
ATOM     16  C   UNL     1      12.637  11.763  24.881  0.00  0.00    +0.121 A 
ATOM     17  C   UNL     1      12.167  12.340  22.582  0.00  0.00    +0.008 A 
ATOM     19  C   UNL     1      11.359  12.184  25.248  0.00  0.00    +0.046 A 
ATOM     20  C   UNL     1      10.889  12.762  22.950  0.00  0.00    +0.001 A 
ATOM     21  C   UNL     1      10.485  12.684  24.283  0.00  0.00    +0.004 A 
BRANCH  16   4
ATOM      4  O   UNL     1      13.478  11.277  25.837  0.00  0.00    -0.506 OA
ATOM     26  H   UNL     1      12.993  11.200  26.677  0.00  0.00    +0.292 HD
ENDBRANCH  16   4
ENDBRANCH  13  14
ENDBRANCH   6  13
ENDBRANCH   8   6
BRANCH  10  12
ATOM     12  C   UNL     1      13.924   6.976  19.537  0.00  0.00    +0.138 C 
BRANCH  12   7
ATOM      3  O   UNL     1      11.237   8.006  19.247  0.00  0.00    -0.273 OA
ATOM      7  N   UNL     1      13.378   7.665  18.403  0.00  0.00    -0.311 N 
ATOM     15  C   UNL     1      12.067   8.128  18.351  0.00  0.00    +0.239 C 
ATOM     25  H   UNL     1      13.983   7.807  17.599  0.00  0.00    +0.149 HD
BRANCH  15  18
ATOM     18  C   UNL     1      11.760   8.817  17.037  0.00  0.00    +0.255 C 
BRANCH  18   5
ATOM      5  O   UNL     1      12.840   8.682  16.140  0.00  0.00    -0.374 OA
ATOM     22  C   UNL     1      13.271   9.942  15.632  0.00  0.00    +0.194 C 
ENDBRANCH  18   5
ENDBRANCH  15  18
ENDBRANCH  12   7
ENDBRANCH  10  12
TORSDOF 9
ENDMDL
