MODEL 1
REMARK VINA RESULT:      -9.2      0.000      0.000
REMARK  Name = 11883999
REMARK  7 active torsions:
REMARK  status: ('A' for Active; 'I' for Inactive)
REMARK    1  A    between atoms: O_3  and  C_13
REMARK    2  A    between atoms: O_3  and  C_17
REMARK    3  A    between atoms: O_6  and  C_30
REMARK    4  A    between atoms: O_6  and  C_34
REMARK    5  A    between atoms: N_7  and  C_12
REMARK    6  A    between atoms: N_8  and  C_18
REMARK    7  A    between atoms: N_9  and  C_19
REMARK                            x       y       z     vdW  Elec       q    Type
REMARK                         _______ _______ _______ _____ _____    ______ ____
ROOT
ATOM      1  O   UNL     1     -16.467   0.659  25.538  0.00  0.00    -0.368 OA
ATOM      2  O   UNL     1     -18.527   2.870  26.054  0.00  0.00    -0.368 OA
ATOM     10  C   UNL     1     -17.203   2.913  25.483  0.00  0.00    +0.173 C 
ATOM     11  C   UNL     1     -16.364   1.906  26.246  0.00  0.00    +0.192 C 
ATOM     12  C   UNL     1     -17.227   2.371  24.074  0.00  0.00    +0.131 C 
ATOM     13  C   UNL     1     -17.060   1.848  27.584  0.00  0.00    +0.235 C 
ATOM     14  C   UNL     1     -17.170   0.870  24.304  0.00  0.00    +0.185 C 
ATOM     15  C   UNL     1     -18.514   2.000  27.195  0.00  0.00    +0.207 C 
ENDROOT
BRANCH  12   7
ATOM      4  O   UNL     1     -16.597   5.083  23.398  0.00  0.00    -0.252 OA
ATOM      7  N   UNL     1     -16.088   2.829  23.318  0.00  0.00    -0.292 N 
ATOM      8  N   UNL     1     -14.677   4.320  22.284  0.00  0.00    -0.269 N 
ATOM     16  C   UNL     1     -15.851   4.179  23.029  0.00  0.00    +0.304 C 
ATOM     40  H   UNL     1     -15.389   2.147  23.035  0.00  0.00    +0.151 HD
ATOM     41  H   UNL     1     -14.174   3.465  22.060  0.00  0.00    +0.156 HD
BRANCH   8  18
ATOM     18  C   UNL     1     -14.095   5.514  21.797  0.00  0.00    +0.035 A 
ATOM     21  C   UNL     1     -12.709   5.622  21.693  0.00  0.00    +0.027 A 
ATOM     22  C   UNL     1     -14.909   6.583  21.422  0.00  0.00    +0.027 A 
ATOM     27  C   UNL     1     -12.135   6.799  21.213  0.00  0.00    +0.048 A 
ATOM     28  C   UNL     1     -14.335   7.760  20.942  0.00  0.00    +0.048 A 
ATOM     30  C   UNL     1     -12.949   7.868  20.838  0.00  0.00    +0.129 A 
BRANCH  30   6
ATOM      6  O   UNL     1     -12.389   9.018  20.372  0.00  0.00    -0.456 OA
BRANCH   6  34
ATOM     34  C   UNL     1     -11.749   8.971  19.145  0.00  0.00    +0.128 A 
ATOM     35  C   UNL     1     -12.430   8.510  18.019  0.00  0.00    +0.046 A 
ATOM     36  C   UNL     1     -10.421   9.385  19.035  0.00  0.00    +0.046 A 
ATOM     37  C   UNL     1     -11.786   8.462  16.784  0.00  0.00    +0.004 A 
ATOM     38  C   UNL     1      -9.776   9.336  17.799  0.00  0.00    +0.004 A 
ATOM     39  C   UNL     1     -10.457   8.875  16.674  0.00  0.00    +0.000 A 
ENDBRANCH   6  34
ENDBRANCH  30   6
ENDBRANCH   8  18
ENDBRANCH  12   7
BRANCH  13   3
ATOM      3  O   UNL     1     -16.823   0.652  28.291  0.00  0.00    -0.442 OA
BRANCH   3  17
ATOM      5  O   UNL     1     -15.905  -0.210  30.200  0.00  0.00    -0.226 OA
ATOM      9  N   UNL     1     -15.887   2.089  29.757  0.00  0.00    -0.251 N 
ATOM     17  C   UNL     1     -16.169   0.761  29.501  0.00  0.00    +0.405 C 
ATOM     42  H   UNL     1     -16.200   2.727  29.035  0.00  0.00    +0.158 HD
BRANCH   9  19
ATOM     19  C   UNL     1     -15.230   2.638  30.881  0.00  0.00    +0.044 A 
ATOM     20  C   UNL     1     -15.869   3.546  31.741  0.00  0.00    +0.003 A 
ATOM     23  C   UNL     1     -13.911   2.245  31.112  0.00  0.00    +0.024 A 
ATOM     24  C   UNL     1     -15.159   4.064  32.851  0.00  0.00    -0.016 A 
ATOM     25  C   UNL     1     -17.195   3.953  31.523  0.00  0.00    +0.010 A 
ATOM     26  C   UNL     1     -13.214   2.753  32.205  0.00  0.00    +0.002 A 
ATOM     29  C   UNL     1     -13.833   3.657  33.069  0.00  0.00    +0.008 A 
ATOM     31  C   UNL     1     -15.798   4.973  33.711  0.00  0.00    +0.008 A 
ATOM     32  C   UNL     1     -17.813   4.857  32.387  0.00  0.00    +0.001 A 
ATOM     33  C   UNL     1     -17.116   5.366  33.479  0.00  0.00    +0.001 A 
ENDBRANCH   9  19
ENDBRANCH   3  17
ENDBRANCH  13   3
TORSDOF 7
ENDMDL
MODEL 2
REMARK VINA RESULT:      -9.1      1.682      2.528
REMARK  Name = 11883999
REMARK  7 active torsions:
REMARK  status: ('A' for Active; 'I' for Inactive)
REMARK    1  A    between atoms: O_3  and  C_13
REMARK    2  A    between atoms: O_3  and  C_17
REMARK    3  A    between atoms: O_6  and  C_30
REMARK    4  A    between atoms: O_6  and  C_34
REMARK    5  A    between atoms: N_7  and  C_12
REMARK    6  A    between atoms: N_8  and  C_18
REMARK    7  A    between atoms: N_9  and  C_19
REMARK                            x       y       z     vdW  Elec       q    Type
REMARK                         _______ _______ _______ _____ _____    ______ ____
ROOT
ATOM      1  O   UNL     1     -16.105   2.811  24.176  0.00  0.00    -0.368 OA
ATOM      2  O   UNL     1     -18.532   4.380  25.199  0.00  0.00    -0.368 OA
ATOM     10  C   UNL     1     -17.183   4.794  24.902  0.00  0.00    +0.173 C 
ATOM     11  C   UNL     1     -16.271   3.659  25.325  0.00  0.00    +0.192 C 
ATOM     12  C   UNL     1     -16.983   4.882  23.408  0.00  0.00    +0.131 C 
ATOM     13  C   UNL     1     -17.076   2.981  26.408  0.00  0.00    +0.235 C 
ATOM     14  C   UNL     1     -16.710   3.435  23.033  0.00  0.00    +0.185 C 
ATOM     15  C   UNL     1     -18.490   3.124  25.892  0.00  0.00    +0.207 C 
ENDROOT
BRANCH  12   7
ATOM      4  O   UNL     1     -15.690   5.098  20.860  0.00  0.00    -0.252 OA
ATOM      7  N   UNL     1     -15.864   5.729  23.078  0.00  0.00    -0.292 N 
ATOM      8  N   UNL     1     -14.225   6.684  21.780  0.00  0.00    -0.269 N 
ATOM     16  C   UNL     1     -15.287   5.776  21.803  0.00  0.00    +0.304 C 
ATOM     40  H   UNL     1     -15.518   6.371  23.786  0.00  0.00    +0.151 HD
ATOM     41  H   UNL     1     -14.020   7.167  22.652  0.00  0.00    +0.156 HD
BRANCH   8  18
ATOM     18  C   UNL     1     -13.390   7.018  20.689  0.00  0.00    +0.035 A 
ATOM     21  C   UNL     1     -13.925   7.662  19.573  0.00  0.00    +0.027 A 
ATOM     22  C   UNL     1     -12.032   6.703  20.727  0.00  0.00    +0.027 A 
ATOM     27  C   UNL     1     -13.103   7.990  18.496  0.00  0.00    +0.048 A 
ATOM     28  C   UNL     1     -11.210   7.031  19.650  0.00  0.00    +0.048 A 
ATOM     30  C   UNL     1     -11.745   7.675  18.535  0.00  0.00    +0.129 A 
BRANCH  30   6
ATOM      6  O   UNL     1     -10.942   7.993  17.482  0.00  0.00    -0.456 OA
BRANCH   6  34
ATOM     34  C   UNL     1     -10.762   9.336  17.193  0.00  0.00    +0.128 A 
ATOM     35  C   UNL     1     -10.218  10.190  18.152  0.00  0.00    +0.046 A 
ATOM     36  C   UNL     1     -11.128   9.834  15.942  0.00  0.00    +0.046 A 
ATOM     37  C   UNL     1     -10.038  11.541  17.861  0.00  0.00    +0.004 A 
ATOM     38  C   UNL     1     -10.948  11.187  15.651  0.00  0.00    +0.004 A 
ATOM     39  C   UNL     1     -10.403  12.040  16.609  0.00  0.00    +0.000 A 
ENDBRANCH   6  34
ENDBRANCH  30   6
ENDBRANCH   8  18
ENDBRANCH  12   7
BRANCH  13   3
ATOM      3  O   UNL     1     -16.720   1.633  26.614  0.00  0.00    -0.442 OA
BRANCH   3  17
ATOM      5  O   UNL     1     -17.555   0.344  28.308  0.00  0.00    -0.226 OA
ATOM      9  N   UNL     1     -15.739   1.784  28.639  0.00  0.00    -0.251 N 
ATOM     17  C   UNL     1     -16.743   1.172  27.914  0.00  0.00    +0.405 C 
ATOM     42  H   UNL     1     -15.181   2.441  28.106  0.00  0.00    +0.158 HD
BRANCH   9  19
ATOM     19  C   UNL     1     -15.413   1.599  30.002  0.00  0.00    +0.044 A 
ATOM     20  C   UNL     1     -15.276   2.684  30.883  0.00  0.00    +0.003 A 
ATOM     23  C   UNL     1     -15.230   0.290  30.448  0.00  0.00    +0.024 A 
ATOM     24  C   UNL     1     -14.947   2.436  32.238  0.00  0.00    -0.016 A 
ATOM     25  C   UNL     1     -15.455   4.008  30.450  0.00  0.00    +0.010 A 
ATOM     26  C   UNL     1     -14.909   0.047  31.782  0.00  0.00    +0.002 A 
ATOM     29  C   UNL     1     -14.767   1.113  32.671  0.00  0.00    +0.008 A 
ATOM     31  C   UNL     1     -14.809   3.522  33.120  0.00  0.00    +0.008 A 
ATOM     32  C   UNL     1     -15.314   5.072  31.340  0.00  0.00    +0.001 A 
ATOM     33  C   UNL     1     -14.991   4.830  32.672  0.00  0.00    +0.001 A 
ENDBRANCH   9  19
ENDBRANCH   3  17
ENDBRANCH  13   3
TORSDOF 7
ENDMDL
MODEL 3
REMARK VINA RESULT:      -8.7     17.191     20.526
REMARK  Name = 11883999
REMARK  7 active torsions:
REMARK  status: ('A' for Active; 'I' for Inactive)
REMARK    1  A    between atoms: O_3  and  C_13
REMARK    2  A    between atoms: O_3  and  C_17
REMARK    3  A    between atoms: O_6  and  C_30
REMARK    4  A    between atoms: O_6  and  C_34
REMARK    5  A    between atoms: N_7  and  C_12
REMARK    6  A    between atoms: N_8  and  C_18
REMARK    7  A    between atoms: N_9  and  C_19
REMARK                            x       y       z     vdW  Elec       q    Type
REMARK                         _______ _______ _______ _____ _____    ______ ____
ROOT
ATOM      1  O   UNL     1      -6.396 -11.463  16.713  0.00  0.00    -0.368 OA
ATOM      2  O   UNL     1      -5.417 -11.864  19.591  0.00  0.00    -0.368 OA
ATOM     10  C   UNL     1      -6.013 -10.726  18.934  0.00  0.00    +0.173 C 
ATOM     11  C   UNL     1      -5.476 -10.705  17.517  0.00  0.00    +0.192 C 
ATOM     12  C   UNL     1      -7.496 -10.946  18.757  0.00  0.00    +0.131 C 
ATOM     13  C   UNL     1      -4.149 -11.411  17.661  0.00  0.00    +0.235 C 
ATOM     14  C   UNL     1      -7.547 -11.802  17.502  0.00  0.00    +0.185 C 
ATOM     15  C   UNL     1      -4.456 -12.459  18.708  0.00  0.00    +0.207 C 
ENDROOT
BRANCH  12   7
ATOM      4  O   UNL     1      -9.435 -10.354  16.732  0.00  0.00    -0.252 OA
ATOM      7  N   UNL     1      -8.192  -9.697  18.568  0.00  0.00    -0.292 N 
ATOM      8  N   UNL     1      -9.638  -8.188  17.614  0.00  0.00    -0.269 N 
ATOM     16  C   UNL     1      -9.129  -9.488  17.549  0.00  0.00    +0.304 C 
ATOM     40  H   UNL     1      -8.044  -8.954  19.245  0.00  0.00    +0.151 HD
ATOM     41  H   UNL     1      -9.278  -7.593  18.356  0.00  0.00    +0.156 HD
BRANCH   8  18
ATOM     18  C   UNL     1     -10.600  -7.589  16.767  0.00  0.00    +0.035 A 
ATOM     21  C   UNL     1     -10.225  -6.558  15.906  0.00  0.00    +0.027 A 
ATOM     22  C   UNL     1     -11.924  -8.028  16.794  0.00  0.00    +0.027 A 
ATOM     27  C   UNL     1     -11.173  -5.966  15.072  0.00  0.00    +0.048 A 
ATOM     28  C   UNL     1     -12.872  -7.437  15.960  0.00  0.00    +0.048 A 
ATOM     30  C   UNL     1     -12.497  -6.406  15.099  0.00  0.00    +0.129 A 
BRANCH  30   6
ATOM      6  O   UNL     1     -13.423  -5.827  14.287  0.00  0.00    -0.456 OA
BRANCH   6  34
ATOM     34  C   UNL     1     -12.985  -5.307  13.080  0.00  0.00    +0.128 A 
ATOM     35  C   UNL     1     -12.733  -3.941  12.958  0.00  0.00    +0.046 A 
ATOM     36  C   UNL     1     -12.797  -6.152  11.985  0.00  0.00    +0.046 A 
ATOM     37  C   UNL     1     -12.293  -3.418  11.743  0.00  0.00    +0.004 A 
ATOM     38  C   UNL     1     -12.357  -5.628  10.769  0.00  0.00    +0.004 A 
ATOM     39  C   UNL     1     -12.105  -4.263  10.648  0.00  0.00    +0.000 A 
ENDBRANCH   6  34
ENDBRANCH  30   6
ENDBRANCH   8  18
ENDBRANCH  12   7
BRANCH  13   3
ATOM      3  O   UNL     1      -3.681 -11.982  16.460  0.00  0.00    -0.442 OA
BRANCH   3  17
ATOM      5  O   UNL     1      -2.288 -10.284  15.824  0.00  0.00    -0.226 OA
ATOM      9  N   UNL     1      -3.682 -11.370  14.289  0.00  0.00    -0.251 N 
ATOM     17  C   UNL     1      -3.132 -11.122  15.532  0.00  0.00    +0.405 C 
ATOM     42  H   UNL     1      -4.369 -12.116  14.278  0.00  0.00    +0.158 HD
BRANCH   9  19
ATOM     19  C   UNL     1      -3.401 -10.718  13.066  0.00  0.00    +0.044 A 
ATOM     20  C   UNL     1      -4.406 -10.087  12.317  0.00  0.00    +0.003 A 
ATOM     23  C   UNL     1      -2.078 -10.723  12.625  0.00  0.00    +0.024 A 
ATOM     24  C   UNL     1      -4.064  -9.451  11.099  0.00  0.00    -0.016 A 
ATOM     25  C   UNL     1      -5.743 -10.074  12.747  0.00  0.00    +0.010 A 
ATOM     26  C   UNL     1      -1.742 -10.096  11.427  0.00  0.00    +0.002 A 
ATOM     29  C   UNL     1      -2.728  -9.464  10.668  0.00  0.00    +0.008 A 
ATOM     31  C   UNL     1      -5.070  -8.819  10.349  0.00  0.00    +0.008 A 
ATOM     32  C   UNL     1      -6.729  -9.442  11.988  0.00  0.00    +0.001 A 
ATOM     33  C   UNL     1      -6.392  -8.816  10.791  0.00  0.00    +0.001 A 
ENDBRANCH   9  19
ENDBRANCH   3  17
ENDBRANCH  13   3
TORSDOF 7
ENDMDL
MODEL 4
REMARK VINA RESULT:      -8.6     16.577     21.030
REMARK  Name = 11883999
REMARK  7 active torsions:
REMARK  status: ('A' for Active; 'I' for Inactive)
REMARK    1  A    between atoms: O_3  and  C_13
REMARK    2  A    between atoms: O_3  and  C_17
REMARK    3  A    between atoms: O_6  and  C_30
REMARK    4  A    between atoms: O_6  and  C_34
REMARK    5  A    between atoms: N_7  and  C_12
REMARK    6  A    between atoms: N_8  and  C_18
REMARK    7  A    between atoms: N_9  and  C_19
REMARK                            x       y       z     vdW  Elec       q    Type
REMARK                         _______ _______ _______ _____ _____    ______ ____
ROOT
ATOM      1  O   UNL     1      -6.316 -12.165  17.440  0.00  0.00    -0.368 OA
ATOM      2  O   UNL     1      -4.870 -11.654  20.095  0.00  0.00    -0.368 OA
ATOM     10  C   UNL     1      -5.889 -10.903  19.402  0.00  0.00    +0.173 C 
ATOM     11  C   UNL     1      -5.590 -11.021  17.920  0.00  0.00    +0.192 C 
ATOM     12  C   UNL     1      -7.229 -11.581  19.556  0.00  0.00    +0.131 C 
ATOM     13  C   UNL     1      -4.099 -11.259  17.906  0.00  0.00    +0.235 C 
ATOM     14  C   UNL     1      -7.172 -12.656  18.483  0.00  0.00    +0.185 C 
ATOM     15  C   UNL     1      -3.900 -12.110  19.141  0.00  0.00    +0.207 C 
ENDROOT
BRANCH  12   7
ATOM      4  O   UNL     1      -9.994 -11.992  20.181  0.00  0.00    -0.252 OA
ATOM      7  N   UNL     1      -8.312 -10.660  19.319  0.00  0.00    -0.292 N 
ATOM      8  N   UNL     1     -10.468  -9.865  19.310  0.00  0.00    -0.269 N 
ATOM     16  C   UNL     1      -9.643 -10.938  19.655  0.00  0.00    +0.304 C 
ATOM     40  H   UNL     1      -8.092  -9.739  18.949  0.00  0.00    +0.151 HD
ATOM     41  H   UNL     1     -10.016  -9.062  18.880  0.00  0.00    +0.156 HD
BRANCH   8  18
ATOM     18  C   UNL     1     -11.868  -9.754  19.484  0.00  0.00    +0.035 A 
ATOM     21  C   UNL     1     -12.698  -9.597  18.375  0.00  0.00    +0.027 A 
ATOM     22  C   UNL     1     -12.417  -9.800  20.766  0.00  0.00    +0.027 A 
ATOM     27  C   UNL     1     -14.078  -9.487  18.546  0.00  0.00    +0.048 A 
ATOM     28  C   UNL     1     -13.796  -9.690  20.937  0.00  0.00    +0.048 A 
ATOM     30  C   UNL     1     -14.627  -9.534  19.828  0.00  0.00    +0.129 A 
BRANCH  30   6
ATOM      6  O   UNL     1     -15.973  -9.423  19.996  0.00  0.00    -0.456 OA
BRANCH   6  34
ATOM     34  C   UNL     1     -16.495  -8.154  20.188  0.00  0.00    +0.128 A 
ATOM     35  C   UNL     1     -17.202  -7.527  19.163  0.00  0.00    +0.046 A 
ATOM     36  C   UNL     1     -16.312  -7.503  21.409  0.00  0.00    +0.046 A 
ATOM     37  C   UNL     1     -17.726  -6.250  19.356  0.00  0.00    +0.004 A 
ATOM     38  C   UNL     1     -16.836  -6.225  21.602  0.00  0.00    +0.004 A 
ATOM     39  C   UNL     1     -17.543  -5.599  20.577  0.00  0.00    +0.000 A 
ENDBRANCH   6  34
ENDBRANCH  30   6
ENDBRANCH   8  18
ENDBRANCH  12   7
BRANCH  13   3
ATOM      3  O   UNL     1      -3.642 -11.904  16.739  0.00  0.00    -0.442 OA
BRANCH   3  17
ATOM      5  O   UNL     1      -2.201 -10.289  16.001  0.00  0.00    -0.226 OA
ATOM      9  N   UNL     1      -3.669 -11.386  14.543  0.00  0.00    -0.251 N 
ATOM     17  C   UNL     1      -3.083 -11.106  15.762  0.00  0.00    +0.405 C 
ATOM     42  H   UNL     1      -4.383 -12.104  14.580  0.00  0.00    +0.158 HD
BRANCH   9  19
ATOM     19  C   UNL     1      -3.391 -10.798  13.288  0.00  0.00    +0.044 A 
ATOM     20  C   UNL     1      -4.385 -10.149  12.539  0.00  0.00    +0.003 A 
ATOM     23  C   UNL     1      -2.082 -10.886  12.813  0.00  0.00    +0.024 A 
ATOM     24  C   UNL     1      -4.047  -9.580  11.288  0.00  0.00    -0.016 A 
ATOM     25  C   UNL     1      -5.707 -10.052  13.003  0.00  0.00    +0.010 A 
ATOM     26  C   UNL     1      -1.750 -10.324  11.582  0.00  0.00    +0.002 A 
ATOM     29  C   UNL     1      -2.725  -9.676  10.824  0.00  0.00    +0.008 A 
ATOM     31  C   UNL     1      -5.042  -8.930  10.538  0.00  0.00    +0.008 A 
ATOM     32  C   UNL     1      -6.682  -9.404  12.244  0.00  0.00    +0.001 A 
ATOM     33  C   UNL     1      -6.349  -8.844  11.014  0.00  0.00    +0.001 A 
ENDBRANCH   9  19
ENDBRANCH   3  17
ENDBRANCH  13   3
TORSDOF 7
ENDMDL
MODEL 5
REMARK VINA RESULT:      -8.5      1.604      2.065
REMARK  Name = 11883999
REMARK  7 active torsions:
REMARK  status: ('A' for Active; 'I' for Inactive)
REMARK    1  A    between atoms: O_3  and  C_13
REMARK    2  A    between atoms: O_3  and  C_17
REMARK    3  A    between atoms: O_6  and  C_30
REMARK    4  A    between atoms: O_6  and  C_34
REMARK    5  A    between atoms: N_7  and  C_12
REMARK    6  A    between atoms: N_8  and  C_18
REMARK    7  A    between atoms: N_9  and  C_19
REMARK                            x       y       z     vdW  Elec       q    Type
REMARK                         _______ _______ _______ _____ _____    ______ ____
ROOT
ATOM      1  O   UNL     1     -16.484   0.637  25.650  0.00  0.00    -0.368 OA
ATOM      2  O   UNL     1     -18.275   3.014  26.388  0.00  0.00    -0.368 OA
ATOM     10  C   UNL     1     -17.003   2.950  25.708  0.00  0.00    +0.173 C 
ATOM     11  C   UNL     1     -16.205   1.846  26.374  0.00  0.00    +0.192 C 
ATOM     12  C   UNL     1     -17.194   2.456  24.294  0.00  0.00    +0.131 C 
ATOM     13  C   UNL     1     -16.791   1.813  27.765  0.00  0.00    +0.235 C 
ATOM     14  C   UNL     1     -17.263   0.950  24.484  0.00  0.00    +0.185 C 
ATOM     15  C   UNL     1     -18.251   2.112  27.503  0.00  0.00    +0.207 C 
ENDROOT
BRANCH  12   7
ATOM      4  O   UNL     1     -16.491   5.105  23.457  0.00  0.00    -0.252 OA
ATOM      7  N   UNL     1     -16.082   2.828  23.455  0.00  0.00    -0.292 N 
ATOM      8  N   UNL     1     -14.672   4.207  22.276  0.00  0.00    -0.269 N 
ATOM     16  C   UNL     1     -15.806   4.152  23.090  0.00  0.00    +0.304 C 
ATOM     40  H   UNL     1     -15.430   2.104  23.167  0.00  0.00    +0.151 HD
ATOM     41  H   UNL     1     -14.218   3.322  22.064  0.00  0.00    +0.156 HD
BRANCH   8  18
ATOM     18  C   UNL     1     -14.069   5.351  21.701  0.00  0.00    +0.035 A 
ATOM     21  C   UNL     1     -12.688   5.525  21.779  0.00  0.00    +0.027 A 
ATOM     22  C   UNL     1     -14.857   6.305  21.058  0.00  0.00    +0.027 A 
ATOM     27  C   UNL     1     -12.094   6.653  21.214  0.00  0.00    +0.048 A 
ATOM     28  C   UNL     1     -14.263   7.433  20.492  0.00  0.00    +0.048 A 
ATOM     30  C   UNL     1     -12.882   7.607  20.570  0.00  0.00    +0.129 A 
BRANCH  30   6
ATOM      6  O   UNL     1     -12.303   8.709  20.020  0.00  0.00    -0.456 OA
BRANCH   6  34
ATOM     34  C   UNL     1     -12.687   9.948  20.508  0.00  0.00    +0.128 A 
ATOM     35  C   UNL     1     -13.187  10.916  19.638  0.00  0.00    +0.046 A 
ATOM     36  C   UNL     1     -12.571  10.226  21.870  0.00  0.00    +0.046 A 
ATOM     37  C   UNL     1     -13.573  12.162  20.129  0.00  0.00    +0.004 A 
ATOM     38  C   UNL     1     -12.956  11.474  22.361  0.00  0.00    +0.004 A 
ATOM     39  C   UNL     1     -13.457  12.441  21.492  0.00  0.00    +0.000 A 
ENDBRANCH   6  34
ENDBRANCH  30   6
ENDBRANCH   8  18
ENDBRANCH  12   7
BRANCH  13   3
ATOM      3  O   UNL     1     -16.613   0.578  28.422  0.00  0.00    -0.442 OA
BRANCH   3  17
ATOM      5  O   UNL     1     -15.171  -0.364  29.927  0.00  0.00    -0.226 OA
ATOM      9  N   UNL     1     -16.011   1.802  30.219  0.00  0.00    -0.251 N 
ATOM     17  C   UNL     1     -15.857   0.589  29.576  0.00  0.00    +0.405 C 
ATOM     42  H   UNL     1     -16.632   2.449  29.745  0.00  0.00    +0.158 HD
BRANCH   9  19
ATOM     19  C   UNL     1     -15.416   2.229  31.428  0.00  0.00    +0.044 A 
ATOM     20  C   UNL     1     -15.287   3.589  31.749  0.00  0.00    +0.003 A 
ATOM     23  C   UNL     1     -14.957   1.243  32.302  0.00  0.00    +0.024 A 
ATOM     24  C   UNL     1     -14.681   3.956  32.975  0.00  0.00    -0.016 A 
ATOM     25  C   UNL     1     -15.743   4.595  30.881  0.00  0.00    +0.010 A 
ATOM     26  C   UNL     1     -14.363   1.604  33.509  0.00  0.00    +0.002 A 
ATOM     29  C   UNL     1     -14.225   2.952  33.844  0.00  0.00    +0.008 A 
ATOM     31  C   UNL     1     -14.551   5.318  33.296  0.00  0.00    +0.008 A 
ATOM     32  C   UNL     1     -15.604   5.942  31.216  0.00  0.00    +0.001 A 
ATOM     33  C   UNL     1     -15.010   6.302  32.422  0.00  0.00    +0.001 A 
ENDBRANCH   9  19
ENDBRANCH   3  17
ENDBRANCH  13   3
TORSDOF 7
ENDMDL
MODEL 6
REMARK VINA RESULT:      -8.3      1.893      2.851
REMARK  Name = 11883999
REMARK  7 active torsions:
REMARK  status: ('A' for Active; 'I' for Inactive)
REMARK    1  A    between atoms: O_3  and  C_13
REMARK    2  A    between atoms: O_3  and  C_17
REMARK    3  A    between atoms: O_6  and  C_30
REMARK    4  A    between atoms: O_6  and  C_34
REMARK    5  A    between atoms: N_7  and  C_12
REMARK    6  A    between atoms: N_8  and  C_18
REMARK    7  A    between atoms: N_9  and  C_19
REMARK                            x       y       z     vdW  Elec       q    Type
REMARK                         _______ _______ _______ _____ _____    ______ ____
ROOT
ATOM      1  O   UNL     1     -16.050   3.313  25.041  0.00  0.00    -0.368 OA
ATOM      2  O   UNL     1     -18.880   4.354  24.484  0.00  0.00    -0.368 OA
ATOM     10  C   UNL     1     -17.597   5.013  24.457  0.00  0.00    +0.173 C 
ATOM     11  C   UNL     1     -16.777   4.426  25.589  0.00  0.00    +0.192 C 
ATOM     12  C   UNL     1     -16.836   4.617  23.215  0.00  0.00    +0.131 C 
ATOM     13  C   UNL     1     -17.840   3.974  26.561  0.00  0.00    +0.235 C 
ATOM     14  C   UNL     1     -16.234   3.281  23.617  0.00  0.00    +0.185 C 
ATOM     15  C   UNL     1     -18.939   3.500  25.636  0.00  0.00    +0.207 C 
ENDROOT
BRANCH  12   7
ATOM      4  O   UNL     1     -15.458   4.897  20.718  0.00  0.00    -0.252 OA
ATOM      7  N   UNL     1     -15.810   5.580  22.899  0.00  0.00    -0.292 N 
ATOM      8  N   UNL     1     -14.236   6.679  21.636  0.00  0.00    -0.269 N 
ATOM     16  C   UNL     1     -15.183   5.651  21.649  0.00  0.00    +0.304 C 
ATOM     40  H   UNL     1     -15.576   6.282  23.595  0.00  0.00    +0.151 HD
ATOM     41  H   UNL     1     -14.130   7.213  22.495  0.00  0.00    +0.156 HD
BRANCH   8  18
ATOM     18  C   UNL     1     -13.395   7.072  20.569  0.00  0.00    +0.035 A 
ATOM     21  C   UNL     1     -13.943   7.666  19.432  0.00  0.00    +0.027 A 
ATOM     22  C   UNL     1     -12.019   6.865  20.652  0.00  0.00    +0.027 A 
ATOM     27  C   UNL     1     -13.115   8.053  18.379  0.00  0.00    +0.048 A 
ATOM     28  C   UNL     1     -11.190   7.252  19.599  0.00  0.00    +0.048 A 
ATOM     30  C   UNL     1     -11.738   7.847  18.463  0.00  0.00    +0.129 A 
BRANCH  30   6
ATOM      6  O   UNL     1     -10.930   8.222  17.434  0.00  0.00    -0.456 OA
BRANCH   6  34
ATOM     34  C   UNL     1     -10.822   9.576  17.162  0.00  0.00    +0.128 A 
ATOM     35  C   UNL     1     -11.381  10.101  15.998  0.00  0.00    +0.046 A 
ATOM     36  C   UNL     1     -10.152  10.414  18.054  0.00  0.00    +0.046 A 
ATOM     37  C   UNL     1     -11.272  11.463  15.724  0.00  0.00    +0.004 A 
ATOM     38  C   UNL     1     -10.042  11.777  17.779  0.00  0.00    +0.004 A 
ATOM     39  C   UNL     1     -10.601  12.302  16.616  0.00  0.00    +0.000 A 
ENDBRANCH   6  34
ENDBRANCH  30   6
ENDBRANCH   8  18
ENDBRANCH  12   7
BRANCH  13   3
ATOM      3  O   UNL     1     -17.408   2.957  27.436  0.00  0.00    -0.442 OA
BRANCH   3  17
ATOM      5  O   UNL     1     -18.406   2.990  29.493  0.00  0.00    -0.226 OA
ATOM      9  N   UNL     1     -16.241   3.821  29.163  0.00  0.00    -0.251 N 
ATOM     17  C   UNL     1     -17.437   3.240  28.786  0.00  0.00    +0.405 C 
ATOM     42  H   UNL     1     -15.576   3.933  28.407  0.00  0.00    +0.158 HD
BRANCH   9  19
ATOM     19  C   UNL     1     -15.856   4.262  30.449  0.00  0.00    +0.044 A 
ATOM     20  C   UNL     1     -15.400   3.368  31.432  0.00  0.00    +0.003 A 
ATOM     23  C   UNL     1     -15.943   5.629  30.714  0.00  0.00    +0.024 A 
ATOM     24  C   UNL     1     -15.028   3.869  32.703  0.00  0.00    -0.016 A 
ATOM     25  C   UNL     1     -15.306   1.989  31.183  0.00  0.00    +0.010 A 
ATOM     26  C   UNL     1     -15.576   6.121  31.964  0.00  0.00    +0.002 A 
ATOM     29  C   UNL     1     -15.121   5.248  32.953  0.00  0.00    +0.008 A 
ATOM     31  C   UNL     1     -14.572   2.975  33.686  0.00  0.00    +0.008 A 
ATOM     32  C   UNL     1     -14.852   1.117  32.172  0.00  0.00    +0.001 A 
ATOM     33  C   UNL     1     -14.485   1.609  33.421  0.00  0.00    +0.001 A 
ENDBRANCH   9  19
ENDBRANCH   3  17
ENDBRANCH  13   3
TORSDOF 7
ENDMDL
MODEL 7
REMARK VINA RESULT:      -8.2     15.486     17.661
REMARK  Name = 11883999
REMARK  7 active torsions:
REMARK  status: ('A' for Active; 'I' for Inactive)
REMARK    1  A    between atoms: O_3  and  C_13
REMARK    2  A    between atoms: O_3  and  C_17
REMARK    3  A    between atoms: O_6  and  C_30
REMARK    4  A    between atoms: O_6  and  C_34
REMARK    5  A    between atoms: N_7  and  C_12
REMARK    6  A    between atoms: N_8  and  C_18
REMARK    7  A    between atoms: N_9  and  C_19
REMARK                            x       y       z     vdW  Elec       q    Type
REMARK                         _______ _______ _______ _____ _____    ______ ____
ROOT
ATOM      1  O   UNL     1     -12.616  -8.289  15.255  0.00  0.00    -0.368 OA
ATOM      2  O   UNL     1     -11.100  -5.799  16.203  0.00  0.00    -0.368 OA
ATOM     10  C   UNL     1     -11.536  -6.210  14.890  0.00  0.00    +0.173 C 
ATOM     11  C   UNL     1     -11.371  -7.716  14.824  0.00  0.00    +0.192 C 
ATOM     12  C   UNL     1     -13.025  -6.002  14.749  0.00  0.00    +0.131 C 
ATOM     13  C   UNL     1     -10.266  -7.967  15.822  0.00  0.00    +0.235 C 
ATOM     14  C   UNL     1     -13.589  -7.245  15.417  0.00  0.00    +0.185 C 
ATOM     15  C   UNL     1     -10.560  -6.937  16.890  0.00  0.00    +0.207 C 
ENDROOT
BRANCH  12   7
ATOM      4  O   UNL     1     -13.778  -3.647  13.302  0.00  0.00    -0.252 OA
ATOM      7  N   UNL     1     -13.414  -5.930  13.363  0.00  0.00    -0.292 N 
ATOM      8  N   UNL     1     -14.098  -4.970  11.390  0.00  0.00    -0.269 N 
ATOM     16  C   UNL     1     -13.770  -4.734  12.727  0.00  0.00    +0.304 C 
ATOM     40  H   UNL     1     -13.367  -6.776  12.802  0.00  0.00    +0.151 HD
ATOM     41  H   UNL     1     -14.040  -5.934  11.069  0.00  0.00    +0.156 HD
BRANCH   8  18
ATOM     18  C   UNL     1     -14.507  -4.030  10.416  0.00  0.00    +0.035 A 
ATOM     21  C   UNL     1     -13.591  -3.553   9.479  0.00  0.00    +0.027 A 
ATOM     22  C   UNL     1     -15.827  -3.578  10.393  0.00  0.00    +0.027 A 
ATOM     27  C   UNL     1     -13.994  -2.625   8.519  0.00  0.00    +0.048 A 
ATOM     28  C   UNL     1     -16.229  -2.650   9.434  0.00  0.00    +0.048 A 
ATOM     30  C   UNL     1     -15.313  -2.173   8.496  0.00  0.00    +0.129 A 
BRANCH  30   6
ATOM      6  O   UNL     1     -15.706  -1.265   7.562  0.00  0.00    -0.456 OA
BRANCH   6  34
ATOM     34  C   UNL     1     -15.323   0.054   7.746  0.00  0.00    +0.128 A 
ATOM     35  C   UNL     1     -14.566   0.704   6.772  0.00  0.00    +0.046 A 
ATOM     36  C   UNL     1     -15.696   0.731   8.908  0.00  0.00    +0.046 A 
ATOM     37  C   UNL     1     -14.181   2.031   6.959  0.00  0.00    +0.004 A 
ATOM     38  C   UNL     1     -15.310   2.058   9.094  0.00  0.00    +0.004 A 
ATOM     39  C   UNL     1     -14.553   2.708   8.121  0.00  0.00    +0.000 A 
ENDBRANCH   6  34
ENDBRANCH  30   6
ENDBRANCH   8  18
ENDBRANCH  12   7
BRANCH  13   3
ATOM      3  O   UNL     1     -10.260  -9.279  16.338  0.00  0.00    -0.442 OA
BRANCH   3  17
ATOM      5  O   UNL     1      -9.312 -11.120  15.368  0.00  0.00    -0.226 OA
ATOM      9  N   UNL     1      -8.021  -9.514  16.478  0.00  0.00    -0.251 N 
ATOM     17  C   UNL     1      -9.187 -10.078  15.999  0.00  0.00    +0.405 C 
ATOM     42  H   UNL     1      -8.154  -8.641  16.976  0.00  0.00    +0.158 HD
BRANCH   9  19
ATOM     19  C   UNL     1      -6.701 -10.004  16.351  0.00  0.00    +0.044 A 
ATOM     20  C   UNL     1      -6.019 -10.580  17.435  0.00  0.00    +0.003 A 
ATOM     23  C   UNL     1      -6.091  -9.896  15.101  0.00  0.00    +0.024 A 
ATOM     24  C   UNL     1      -4.698 -11.053  17.249  0.00  0.00    -0.016 A 
ATOM     25  C   UNL     1      -6.618 -10.695  18.701  0.00  0.00    +0.010 A 
ATOM     26  C   UNL     1      -4.792 -10.363  14.918  0.00  0.00    +0.002 A 
ATOM     29  C   UNL     1      -4.099 -10.938  15.984  0.00  0.00    +0.008 A 
ATOM     31  C   UNL     1      -4.016 -11.629  18.334  0.00  0.00    +0.008 A 
ATOM     32  C   UNL     1      -5.925 -11.270  19.766  0.00  0.00    +0.001 A 
ATOM     33  C   UNL     1      -4.626 -11.736  19.583  0.00  0.00    +0.001 A 
ENDBRANCH   9  19
ENDBRANCH   3  17
ENDBRANCH  13   3
TORSDOF 7
ENDMDL
MODEL 8
REMARK VINA RESULT:      -8.2      2.255      4.039
REMARK  Name = 11883999
REMARK  7 active torsions:
REMARK  status: ('A' for Active; 'I' for Inactive)
REMARK    1  A    between atoms: O_3  and  C_13
REMARK    2  A    between atoms: O_3  and  C_17
REMARK    3  A    between atoms: O_6  and  C_30
REMARK    4  A    between atoms: O_6  and  C_34
REMARK    5  A    between atoms: N_7  and  C_12
REMARK    6  A    between atoms: N_8  and  C_18
REMARK    7  A    between atoms: N_9  and  C_19
REMARK                            x       y       z     vdW  Elec       q    Type
REMARK                         _______ _______ _______ _____ _____    ______ ____
ROOT
ATOM      1  O   UNL     1     -15.644   3.855  23.312  0.00  0.00    -0.368 OA
ATOM      2  O   UNL     1     -17.539   6.219  23.779  0.00  0.00    -0.368 OA
ATOM     10  C   UNL     1     -16.104   6.158  23.639  0.00  0.00    +0.173 C 
ATOM     11  C   UNL     1     -15.651   4.880  24.319  0.00  0.00    +0.192 C 
ATOM     12  C   UNL     1     -15.732   5.950  22.191  0.00  0.00    +0.131 C 
ATOM     13  C   UNL     1     -16.738   4.651  25.341  0.00  0.00    +0.235 C 
ATOM     14  C   UNL     1     -15.896   4.448  22.028  0.00  0.00    +0.185 C 
ATOM     15  C   UNL     1     -17.971   5.131  24.610  0.00  0.00    +0.207 C 
ENDROOT
BRANCH  12   7
ATOM      4  O   UNL     1     -14.768   7.337  19.877  0.00  0.00    -0.252 OA
ATOM      7  N   UNL     1     -14.374   6.360  21.935  0.00  0.00    -0.292 N 
ATOM      8  N   UNL     1     -12.611   7.304  20.803  0.00  0.00    -0.269 N 
ATOM     16  C   UNL     1     -13.982   7.037  20.774  0.00  0.00    +0.304 C 
ATOM     40  H   UNL     1     -13.678   6.208  22.660  0.00  0.00    +0.151 HD
ATOM     41  H   UNL     1     -12.102   6.986  21.623  0.00  0.00    +0.156 HD
BRANCH   8  18
ATOM     18  C   UNL     1     -11.834   7.967  19.824  0.00  0.00    +0.035 A 
ATOM     21  C   UNL     1     -11.567   7.342  18.606  0.00  0.00    +0.027 A 
ATOM     22  C   UNL     1     -11.336   9.245  20.077  0.00  0.00    +0.027 A 
ATOM     27  C   UNL     1     -10.800   7.995  17.641  0.00  0.00    +0.048 A 
ATOM     28  C   UNL     1     -10.569   9.897  19.111  0.00  0.00    +0.048 A 
ATOM     30  C   UNL     1     -10.301   9.273  17.894  0.00  0.00    +0.129 A 
BRANCH  30   6
ATOM      6  O   UNL     1      -9.551   9.909  16.953  0.00  0.00    -0.456 OA
BRANCH   6  34
ATOM     34  C   UNL     1     -10.033  11.104  16.446  0.00  0.00    +0.128 A 
ATOM     35  C   UNL     1     -11.194  11.117  15.673  0.00  0.00    +0.046 A 
ATOM     36  C   UNL     1      -9.357  12.296  16.709  0.00  0.00    +0.046 A 
ATOM     37  C   UNL     1     -11.679  12.320  15.162  0.00  0.00    +0.004 A 
ATOM     38  C   UNL     1      -9.842  13.500  16.197  0.00  0.00    +0.004 A 
ATOM     39  C   UNL     1     -11.002  13.512  15.424  0.00  0.00    +0.000 A 
ENDBRANCH   6  34
ENDBRANCH  30   6
ENDBRANCH   8  18
ENDBRANCH  12   7
BRANCH  13   3
ATOM      3  O   UNL     1     -16.853   3.307  25.749  0.00  0.00    -0.442 OA
BRANCH   3  17
ATOM      5  O   UNL     1     -18.063   2.535  27.530  0.00  0.00    -0.226 OA
ATOM      9  N   UNL     1     -15.971   3.547  27.812  0.00  0.00    -0.251 N 
ATOM     17  C   UNL     1     -17.054   3.078  27.095  0.00  0.00    +0.405 C 
ATOM     42  H   UNL     1     -15.243   3.963  27.242  0.00  0.00    +0.158 HD
BRANCH   9  19
ATOM     19  C   UNL     1     -15.770   3.512  29.210  0.00  0.00    +0.044 A 
ATOM     20  C   UNL     1     -15.430   2.324  29.879  0.00  0.00    +0.003 A 
ATOM     23  C   UNL     1     -15.923   4.707  29.913  0.00  0.00    +0.024 A 
ATOM     24  C   UNL     1     -15.243   2.350  31.282  0.00  0.00    -0.016 A 
ATOM     25  C   UNL     1     -15.273   1.112  29.187  0.00  0.00    +0.010 A 
ATOM     26  C   UNL     1     -15.738   4.732  31.293  0.00  0.00    +0.002 A 
ATOM     29  C   UNL     1     -15.400   3.562  31.974  0.00  0.00    +0.008 A 
ATOM     31  C   UNL     1     -14.903   1.162  31.950  0.00  0.00    +0.008 A 
ATOM     32  C   UNL     1     -14.935  -0.057  29.868  0.00  0.00    +0.001 A 
ATOM     33  C   UNL     1     -14.751  -0.032  31.247  0.00  0.00    +0.001 A 
ENDBRANCH   9  19
ENDBRANCH   3  17
ENDBRANCH  13   3
TORSDOF 7
ENDMDL
MODEL 9
REMARK VINA RESULT:      -8.1     19.015     21.847
REMARK  Name = 11883999
REMARK  7 active torsions:
REMARK  status: ('A' for Active; 'I' for Inactive)
REMARK    1  A    between atoms: O_3  and  C_13
REMARK    2  A    between atoms: O_3  and  C_17
REMARK    3  A    between atoms: O_6  and  C_30
REMARK    4  A    between atoms: O_6  and  C_34
REMARK    5  A    between atoms: N_7  and  C_12
REMARK    6  A    between atoms: N_8  and  C_18
REMARK    7  A    between atoms: N_9  and  C_19
REMARK                            x       y       z     vdW  Elec       q    Type
REMARK                         _______ _______ _______ _____ _____    ______ ____
ROOT
ATOM      1  O   UNL     1      -4.569  -9.700   8.248  0.00  0.00    -0.368 OA
ATOM      2  O   UNL     1      -6.787 -11.659   9.054  0.00  0.00    -0.368 OA
ATOM     10  C   UNL     1      -6.776 -10.220   8.944  0.00  0.00    +0.173 C 
ATOM     11  C   UNL     1      -5.412  -9.754   9.412  0.00  0.00    +0.192 C 
ATOM     12  C   UNL     1      -6.820  -9.810   7.491  0.00  0.00    +0.131 C 
ATOM     13  C   UNL     1      -4.995 -10.858  10.353  0.00  0.00    +0.235 C 
ATOM     14  C   UNL     1      -5.364  -9.936   7.076  0.00  0.00    +0.185 C 
ATOM     15  C   UNL     1      -5.568 -12.085   9.680  0.00  0.00    +0.207 C 
ENDROOT
BRANCH  12   7
ATOM      4  O   UNL     1      -9.168  -8.675   8.678  0.00  0.00    -0.252 OA
ATOM      7  N   UNL     1      -7.292  -8.456   7.343  0.00  0.00    -0.292 N 
ATOM      8  N   UNL     1      -8.661  -6.633   7.637  0.00  0.00    -0.269 N 
ATOM     16  C   UNL     1      -8.455  -7.977   7.960  0.00  0.00    +0.304 C 
ATOM     40  H   UNL     1      -6.721  -7.799   6.820  0.00  0.00    +0.151 HD
ATOM     41  H   UNL     1      -7.972  -6.200   7.026  0.00  0.00    +0.156 HD
BRANCH   8  18
ATOM     18  C   UNL     1      -9.716  -5.790   8.057  0.00  0.00    +0.035 A 
ATOM     21  C   UNL     1      -9.433  -4.572   8.674  0.00  0.00    +0.027 A 
ATOM     22  C   UNL     1     -11.041  -6.178   7.854  0.00  0.00    +0.027 A 
ATOM     27  C   UNL     1     -10.474  -3.741   9.088  0.00  0.00    +0.048 A 
ATOM     28  C   UNL     1     -12.081  -5.347   8.268  0.00  0.00    +0.048 A 
ATOM     30  C   UNL     1     -11.798  -4.129   8.885  0.00  0.00    +0.129 A 
BRANCH  30   6
ATOM      6  O   UNL     1     -12.814  -3.320   9.292  0.00  0.00    -0.456 OA
BRANCH   6  34
ATOM     34  C   UNL     1     -13.387  -3.579  10.527  0.00  0.00    +0.128 A 
ATOM     35  C   UNL     1     -12.600  -3.567  11.678  0.00  0.00    +0.046 A 
ATOM     36  C   UNL     1     -14.752  -3.853  10.618  0.00  0.00    +0.046 A 
ATOM     37  C   UNL     1     -13.177  -3.828  12.920  0.00  0.00    +0.004 A 
ATOM     38  C   UNL     1     -15.329  -4.115  11.861  0.00  0.00    +0.004 A 
ATOM     39  C   UNL     1     -14.542  -4.102  13.011  0.00  0.00    +0.000 A 
ENDBRANCH   6  34
ENDBRANCH  30   6
ENDBRANCH   8  18
ENDBRANCH  12   7
BRANCH  13   3
ATOM      3  O   UNL     1      -3.599 -10.953  10.528  0.00  0.00    -0.442 OA
BRANCH   3  17
ATOM      5  O   UNL     1      -2.706 -12.598  11.841  0.00  0.00    -0.226 OA
ATOM      9  N   UNL     1      -3.299 -10.510  12.719  0.00  0.00    -0.251 N 
ATOM     17  C   UNL     1      -3.153 -11.463  11.730  0.00  0.00    +0.405 C 
ATOM     42  H   UNL     1      -3.694  -9.634  12.399  0.00  0.00    +0.158 HD
BRANCH   9  19
ATOM     19  C   UNL     1      -2.967 -10.620  14.089  0.00  0.00    +0.044 A 
ATOM     20  C   UNL     1      -3.950 -10.787  15.077  0.00  0.00    +0.003 A 
ATOM     23  C   UNL     1      -1.616 -10.557  14.430  0.00  0.00    +0.024 A 
ATOM     24  C   UNL     1      -3.557 -10.889  16.433  0.00  0.00    -0.016 A 
ATOM     25  C   UNL     1      -5.315 -10.851  14.751  0.00  0.00    +0.010 A 
ATOM     26  C   UNL     1      -1.229 -10.660  15.765  0.00  0.00    +0.002 A 
ATOM     29  C   UNL     1      -2.193 -10.825  16.760  0.00  0.00    +0.008 A 
ATOM     31  C   UNL     1      -4.541 -11.056  17.422  0.00  0.00    +0.008 A 
ATOM     32  C   UNL     1      -6.277 -11.016  15.747  0.00  0.00    +0.001 A 
ATOM     33  C   UNL     1      -5.891 -11.118  17.080  0.00  0.00    +0.001 A 
ENDBRANCH   9  19
ENDBRANCH   3  17
ENDBRANCH  13   3
TORSDOF 7
ENDMDL
MODEL 10
REMARK VINA RESULT:      -8.1     16.358     19.308
REMARK  Name = 11883999
REMARK  7 active torsions:
REMARK  status: ('A' for Active; 'I' for Inactive)
REMARK    1  A    between atoms: O_3  and  C_13
REMARK    2  A    between atoms: O_3  and  C_17
REMARK    3  A    between atoms: O_6  and  C_30
REMARK    4  A    between atoms: O_6  and  C_34
REMARK    5  A    between atoms: N_7  and  C_12
REMARK    6  A    between atoms: N_8  and  C_18
REMARK    7  A    between atoms: N_9  and  C_19
REMARK                            x       y       z     vdW  Elec       q    Type
REMARK                         _______ _______ _______ _____ _____    ______ ____
ROOT
ATOM      1  O   UNL     1     -10.163 -10.121  15.311  0.00  0.00    -0.368 OA
ATOM      2  O   UNL     1      -9.258  -8.365  17.657  0.00  0.00    -0.368 OA
ATOM     10  C   UNL     1      -9.471  -8.062  16.262  0.00  0.00    +0.173 C 
ATOM     11  C   UNL     1      -9.013  -9.273  15.474  0.00  0.00    +0.192 C 
ATOM     12  C   UNL     1     -10.949  -7.976  15.969  0.00  0.00    +0.131 C 
ATOM     13  C   UNL     1      -7.988  -9.893  16.394  0.00  0.00    +0.235 C 
ATOM     14  C   UNL     1     -11.329  -9.436  15.795  0.00  0.00    +0.185 C 
ATOM     15  C   UNL     1      -8.583  -9.627  17.759  0.00  0.00    +0.207 C 
ENDROOT
BRANCH  12   7
ATOM      4  O   UNL     1     -13.411  -6.715  15.221  0.00  0.00    -0.252 OA
ATOM      7  N   UNL     1     -11.201  -7.222  14.766  0.00  0.00    -0.292 N 
ATOM      8  N   UNL     1     -12.386  -5.970  13.245  0.00  0.00    -0.269 N 
ATOM     16  C   UNL     1     -12.439  -6.635  14.474  0.00  0.00    +0.304 C 
ATOM     40  H   UNL     1     -10.427  -7.053  14.129  0.00  0.00    +0.151 HD
ATOM     41  H   UNL     1     -11.499  -6.000  12.748  0.00  0.00    +0.156 HD
BRANCH   8  18
ATOM     18  C   UNL     1     -13.422  -5.256  12.599  0.00  0.00    +0.035 A 
ATOM     21  C   UNL     1     -13.650  -3.917  12.917  0.00  0.00    +0.027 A 
ATOM     22  C   UNL     1     -14.216  -5.890  11.643  0.00  0.00    +0.027 A 
ATOM     27  C   UNL     1     -14.671  -3.213  12.281  0.00  0.00    +0.048 A 
ATOM     28  C   UNL     1     -15.237  -5.186  11.007  0.00  0.00    +0.048 A 
ATOM     30  C   UNL     1     -15.465  -3.848  11.325  0.00  0.00    +0.129 A 
BRANCH  30   6
ATOM      6  O   UNL     1     -16.464  -3.161  10.706  0.00  0.00    -0.456 OA
BRANCH   6  34
ATOM     34  C   UNL     1     -16.110  -2.063   9.940  0.00  0.00    +0.128 A 
ATOM     35  C   UNL     1     -16.509  -0.784  10.327  0.00  0.00    +0.046 A 
ATOM     36  C   UNL     1     -15.355  -2.237   8.779  0.00  0.00    +0.046 A 
ATOM     37  C   UNL     1     -16.153   0.322   9.555  0.00  0.00    +0.004 A 
ATOM     38  C   UNL     1     -15.000  -1.130   8.007  0.00  0.00    +0.004 A 
ATOM     39  C   UNL     1     -15.398   0.148   8.394  0.00  0.00    +0.000 A 
ENDBRANCH   6  34
ENDBRANCH  30   6
ENDBRANCH   8  18
ENDBRANCH  12   7
BRANCH  13   3
ATOM      3  O   UNL     1      -7.783 -11.268  16.164  0.00  0.00    -0.442 OA
BRANCH   3  17
ATOM      5  O   UNL     1      -6.126 -12.844  16.168  0.00  0.00    -0.226 OA
ATOM      9  N   UNL     1      -5.699 -10.612  15.601  0.00  0.00    -0.251 N 
ATOM     17  C   UNL     1      -6.479 -11.684  15.990  0.00  0.00    +0.405 C 
ATOM     42  H   UNL     1      -6.205  -9.738  15.515  0.00  0.00    +0.158 HD
BRANCH   9  19
ATOM     19  C   UNL     1      -4.315 -10.601  15.318  0.00  0.00    +0.044 A 
ATOM     20  C   UNL     1      -3.830 -10.532  14.002  0.00  0.00    +0.003 A 
ATOM     23  C   UNL     1      -3.436 -10.660  16.400  0.00  0.00    +0.024 A 
ATOM     24  C   UNL     1      -2.432 -10.524  13.781  0.00  0.00    -0.016 A 
ATOM     25  C   UNL     1      -4.700 -10.472  12.902  0.00  0.00    +0.010 A 
ATOM     26  C   UNL     1      -2.060 -10.651  16.181  0.00  0.00    +0.002 A 
ATOM     29  C   UNL     1      -1.560 -10.584  14.880  0.00  0.00    +0.008 A 
ATOM     31  C   UNL     1      -1.946 -10.456  12.464  0.00  0.00    +0.008 A 
ATOM     32  C   UNL     1      -4.199 -10.405  11.601  0.00  0.00    +0.001 A 
ATOM     33  C   UNL     1      -2.825 -10.397  11.383  0.00  0.00    +0.001 A 
ENDBRANCH   9  19
ENDBRANCH   3  17
ENDBRANCH  13   3
TORSDOF 7
ENDMDL
