MODEL 1
REMARK VINA RESULT:      -6.5      0.000      0.000
REMARK  Name = 75536037
REMARK  8 active torsions:
REMARK  status: ('A' for Active; 'I' for Inactive)
REMARK    1  A    between atoms: O_3  and  C_24
REMARK    2  A    between atoms: O_3  and  C_29
REMARK    3  A    between atoms: N_5  and  C_10
REMARK    4  A    between atoms: N_8  and  C_22
REMARK    5  A    between atoms: C_16  and  C_21
REMARK    6  A    between atoms: C_22  and  C_23
REMARK    7  A    between atoms: C_22  and  C_24
REMARK    8  A    between atoms: C_23  and  C_25
REMARK                            x       y       z     vdW  Elec       q    Type
REMARK                         _______ _______ _______ _____ _____    ______ ____
ROOT
ATOM      1  O   UNL     1      12.876   8.599   2.276  0.00  0.00    -0.253 OA
ATOM      5  N   UNL     1      13.493   6.453   2.802  0.00  0.00    -0.296 N 
ATOM      6  N   UNL     1      12.909   7.979   4.517  0.00  0.00    -0.272 N 
ATOM      7  N   UNL     1      12.951   8.783   7.284  0.00  0.00    -0.312 NA
ATOM     16  C   UNL     1      12.984   6.959   5.575  0.00  0.00    +0.177 C 
ATOM     17  C   UNL     1      12.469   9.314   4.940  0.00  0.00    +0.125 C 
ATOM     18  C   UNL     1      13.536   7.499   6.898  0.00  0.00    +0.113 C 
ATOM     19  C   UNL     1      13.080   7.738   3.137  0.00  0.00    +0.303 C 
ATOM     20  C   UNL     1      13.146   9.769   6.225  0.00  0.00    +0.100 C 
ATOM     31  H   UNL     1      13.499   5.718   3.495  0.00  0.00    +0.151 HD
ATOM     32  H   UNL     1      13.397   9.113   8.140  0.00  0.00    +0.122 HD
ENDROOT
BRANCH   5  10
ATOM     10  C   UNL     1      13.707   6.048   1.429  0.00  0.00    +0.074 C 
ATOM     11  C   UNL     1      12.423   5.481   0.816  0.00  0.00    +0.022 C 
ATOM     12  C   UNL     1      14.861   5.045   1.325  0.00  0.00    +0.022 C 
ATOM     13  C   UNL     1      12.061   4.107   1.381  0.00  0.00    +0.002 C 
ATOM     14  C   UNL     1      14.497   3.673   1.888  0.00  0.00    +0.002 C 
ATOM     15  C   UNL     1      13.222   3.124   1.255  0.00  0.00    +0.000 C 
ENDBRANCH   5  10
BRANCH  16  21
ATOM      2  O   UNL     1      10.982   5.915   4.796  0.00  0.00    -0.274 OA
ATOM      8  N   UNL     1      11.125   6.549   7.031  0.00  0.00    -0.301 N 
ATOM     21  C   UNL     1      11.598   6.408   5.737  0.00  0.00    +0.236 C 
ATOM     33  H   UNL     1      11.713   6.996   7.728  0.00  0.00    +0.150 HD
BRANCH   8  22
ATOM     22  C   UNL     1       9.809   6.118   7.444  0.00  0.00    +0.186 C 
BRANCH  22  24
ATOM      4  O   UNL     1       9.755   3.723   7.763  0.00  0.00    -0.249 OA
ATOM     24  C   UNL     1       9.855   4.838   8.266  0.00  0.00    +0.328 C 
BRANCH  24   3
ATOM      3  O   UNL     1       9.998   5.088   9.598  0.00  0.00    -0.467 OA
ATOM     29  C   UNL     1       8.991   4.528  10.447  0.00  0.00    +0.280 C 
ENDBRANCH  24   3
ENDBRANCH  22  24
BRANCH  22  23
ATOM     23  C   UNL     1       9.042   7.237   8.164  0.00  0.00    +0.070 C 
BRANCH  23  25
ATOM      9  N   UNL     1       8.583   9.892   5.496  0.00  0.00    -0.263 NA
ATOM     25  C   UNL     1       9.075   8.577   7.465  0.00  0.00    -0.027 A 
ATOM     26  C   UNL     1       9.601   9.701   8.093  0.00  0.00    +0.006 A 
ATOM     27  C   UNL     1       8.582   8.725   6.177  0.00  0.00    +0.114 A 
ATOM     28  C   UNL     1       9.619  10.919   7.423  0.00  0.00    +0.020 A 
ATOM     30  C   UNL     1       9.103  10.963   6.139  0.00  0.00    +0.111 A 
ENDBRANCH  23  25
ENDBRANCH  22  23
ENDBRANCH   8  22
ENDBRANCH  16  21
TORSDOF 7
ENDMDL
MODEL 2
REMARK VINA RESULT:      -6.0     12.254     15.984
REMARK  Name = 75536037
REMARK  8 active torsions:
REMARK  status: ('A' for Active; 'I' for Inactive)
REMARK    1  A    between atoms: O_3  and  C_24
REMARK    2  A    between atoms: O_3  and  C_29
REMARK    3  A    between atoms: N_5  and  C_10
REMARK    4  A    between atoms: N_8  and  C_22
REMARK    5  A    between atoms: C_16  and  C_21
REMARK    6  A    between atoms: C_22  and  C_23
REMARK    7  A    between atoms: C_22  and  C_24
REMARK    8  A    between atoms: C_23  and  C_25
REMARK                            x       y       z     vdW  Elec       q    Type
REMARK                         _______ _______ _______ _____ _____    ______ ____
ROOT
ATOM      1  O   UNL     1      14.835  12.758  18.206  0.00  0.00    -0.253 OA
ATOM      5  N   UNL     1      13.289  11.866  19.648  0.00  0.00    -0.296 N 
ATOM      6  N   UNL     1      13.695  10.839  17.552  0.00  0.00    -0.272 N 
ATOM      7  N   UNL     1      12.890   9.069  15.425  0.00  0.00    -0.312 NA
ATOM     16  C   UNL     1      12.828   9.687  17.847  0.00  0.00    +0.177 C 
ATOM     17  C   UNL     1      14.412  10.794  16.272  0.00  0.00    +0.125 C 
ATOM     18  C   UNL     1      12.058   9.182  16.623  0.00  0.00    +0.113 C 
ATOM     19  C   UNL     1      13.997  11.883  18.451  0.00  0.00    +0.303 C 
ATOM     20  C   UNL     1      13.518  10.351  15.122  0.00  0.00    +0.100 C 
ATOM     31  H   UNL     1      12.732  11.063  19.903  0.00  0.00    +0.151 HD
ATOM     32  H   UNL     1      12.310   8.782  14.638  0.00  0.00    +0.122 HD
ENDROOT
BRANCH   5  10
ATOM     10  C   UNL     1      13.490  12.865  20.675  0.00  0.00    +0.074 C 
ATOM     11  C   UNL     1      12.992  12.366  22.035  0.00  0.00    +0.022 C 
ATOM     12  C   UNL     1      12.822  14.190  20.291  0.00  0.00    +0.022 C 
ATOM     13  C   UNL     1      11.466  12.298  22.111  0.00  0.00    +0.002 C 
ATOM     14  C   UNL     1      11.298  14.121  20.370  0.00  0.00    +0.002 C 
ATOM     15  C   UNL     1      10.825  13.632  21.736  0.00  0.00    +0.000 C 
ENDBRANCH   5  10
BRANCH  16  21
ATOM      2  O   UNL     1      13.903   7.554  17.847  0.00  0.00    -0.274 OA
ATOM      8  N   UNL     1      14.242   8.985  19.651  0.00  0.00    -0.301 N 
ATOM     21  C   UNL     1      13.713   8.621  18.423  0.00  0.00    +0.236 C 
ATOM     33  H   UNL     1      13.997   9.888  20.047  0.00  0.00    +0.150 HD
BRANCH   8  22
ATOM     22  C   UNL     1      15.108   8.127  20.425  0.00  0.00    +0.186 C 
BRANCH  22  24
ATOM      4  O   UNL     1      16.751   9.897  20.513  0.00  0.00    -0.249 OA
ATOM     24  C   UNL     1      16.516   8.692  20.548  0.00  0.00    +0.328 C 
BRANCH  24   3
ATOM      3  O   UNL     1      17.454   7.713  20.678  0.00  0.00    -0.467 OA
ATOM     29  C   UNL     1      18.508   7.982  21.609  0.00  0.00    +0.280 C 
ENDBRANCH  24   3
ENDBRANCH  22  24
BRANCH  22  23
ATOM     23  C   UNL     1      14.502   7.791  21.796  0.00  0.00    +0.070 C 
BRANCH  23  25
ATOM      9  N   UNL     1      11.014   6.397  21.285  0.00  0.00    -0.263 NA
ATOM     25  C   UNL     1      12.994   7.680  21.811  0.00  0.00    -0.027 A 
ATOM     26  C   UNL     1      12.205   8.699  22.331  0.00  0.00    +0.006 A 
ATOM     27  C   UNL     1      12.355   6.559  21.304  0.00  0.00    +0.114 A 
ATOM     28  C   UNL     1      10.821   8.568  22.329  0.00  0.00    +0.020 A 
ATOM     30  C   UNL     1      10.278   7.408  21.800  0.00  0.00    +0.111 A 
ENDBRANCH  23  25
ENDBRANCH  22  23
ENDBRANCH   8  22
ENDBRANCH  16  21
TORSDOF 7
ENDMDL
MODEL 3
REMARK VINA RESULT:      -5.7     23.277     27.272
REMARK  Name = 75536037
REMARK  8 active torsions:
REMARK  status: ('A' for Active; 'I' for Inactive)
REMARK    1  A    between atoms: O_3  and  C_24
REMARK    2  A    between atoms: O_3  and  C_29
REMARK    3  A    between atoms: N_5  and  C_10
REMARK    4  A    between atoms: N_8  and  C_22
REMARK    5  A    between atoms: C_16  and  C_21
REMARK    6  A    between atoms: C_22  and  C_23
REMARK    7  A    between atoms: C_22  and  C_24
REMARK    8  A    between atoms: C_23  and  C_25
REMARK                            x       y       z     vdW  Elec       q    Type
REMARK                         _______ _______ _______ _____ _____    ______ ____
ROOT
ATOM      1  O   UNL     1      -8.922 -12.671  16.411  0.00  0.00    -0.253 OA
ATOM      5  N   UNL     1      -8.711 -10.445  16.924  0.00  0.00    -0.296 N 
ATOM      6  N   UNL     1      -6.794 -11.833  16.834  0.00  0.00    -0.272 N 
ATOM      7  N   UNL     1      -4.038 -12.356  17.498  0.00  0.00    -0.312 NA
ATOM     16  C   UNL     1      -5.861 -10.711  17.024  0.00  0.00    +0.177 C 
ATOM     17  C   UNL     1      -6.181 -13.148  16.609  0.00  0.00    +0.125 C 
ATOM     18  C   UNL     1      -4.641 -11.077  17.876  0.00  0.00    +0.113 C 
ATOM     19  C   UNL     1      -8.194 -11.717  16.704  0.00  0.00    +0.303 C 
ATOM     20  C   UNL     1      -5.031 -13.424  17.567  0.00  0.00    +0.100 C 
ATOM     31  H   UNL     1      -8.096  -9.647  17.001  0.00  0.00    +0.151 HD
ATOM     32  H   UNL     1      -3.270 -12.567  18.133  0.00  0.00    +0.122 HD
ENDROOT
BRANCH   5  10
ATOM     10  C   UNL     1     -10.127 -10.162  16.823  0.00  0.00    +0.074 C 
ATOM     11  C   UNL     1     -10.515  -9.801  15.385  0.00  0.00    +0.022 C 
ATOM     12  C   UNL     1     -10.539  -9.059  17.803  0.00  0.00    +0.022 C 
ATOM     13  C   UNL     1     -10.001  -8.422  14.969  0.00  0.00    +0.002 C 
ATOM     14  C   UNL     1     -10.026  -7.682  17.384  0.00  0.00    +0.002 C 
ATOM     15  C   UNL     1     -10.434  -7.340  15.954  0.00  0.00    +0.000 C 
ENDBRANCH   5  10
BRANCH  16  21
ATOM      2  O   UNL     1      -6.231  -9.618  14.934  0.00  0.00    -0.274 OA
ATOM      8  N   UNL     1      -4.173 -10.633  15.325  0.00  0.00    -0.301 N 
ATOM     21  C   UNL     1      -5.462 -10.248  15.654  0.00  0.00    +0.236 C 
ATOM     33  H   UNL     1      -3.632 -11.175  15.992  0.00  0.00    +0.150 HD
BRANCH   8  22
ATOM     22  C   UNL     1      -3.558 -10.330  14.053  0.00  0.00    +0.186 C 
BRANCH  22  24
ATOM      4  O   UNL     1      -1.259  -9.980  14.711  0.00  0.00    -0.249 OA
ATOM     24  C   UNL     1      -2.065 -10.630  14.052  0.00  0.00    +0.328 C 
BRANCH  24   3
ATOM      3  O   UNL     1      -1.750 -11.671  13.232  0.00  0.00    -0.467 OA
ATOM     29  C   UNL     1      -1.406 -12.896  13.888  0.00  0.00    +0.280 C 
ENDBRANCH  24   3
ENDBRANCH  22  24
BRANCH  22  23
ATOM     23  C   UNL     1      -4.283 -11.021  12.889  0.00  0.00    +0.070 C 
BRANCH  23  25
ATOM      9  N   UNL     1      -5.911  -8.583  10.484  0.00  0.00    -0.263 NA
ATOM     25  C   UNL     1      -4.504 -10.148  11.674  0.00  0.00    -0.027 A 
ATOM     26  C   UNL     1      -3.562 -10.088  10.653  0.00  0.00    +0.006 A 
ATOM     27  C   UNL     1      -5.652  -9.382  11.543  0.00  0.00    +0.114 A 
ATOM     28  C   UNL     1      -3.793  -9.277   9.548  0.00  0.00    +0.020 A 
ATOM     30  C   UNL     1      -4.972  -8.550   9.511  0.00  0.00    +0.111 A 
ENDBRANCH  23  25
ENDBRANCH  22  23
ENDBRANCH   8  22
ENDBRANCH  16  21
TORSDOF 7
ENDMDL
MODEL 4
REMARK VINA RESULT:      -5.6      2.625      7.369
REMARK  Name = 75536037
REMARK  8 active torsions:
REMARK  status: ('A' for Active; 'I' for Inactive)
REMARK    1  A    between atoms: O_3  and  C_24
REMARK    2  A    between atoms: O_3  and  C_29
REMARK    3  A    between atoms: N_5  and  C_10
REMARK    4  A    between atoms: N_8  and  C_22
REMARK    5  A    between atoms: C_16  and  C_21
REMARK    6  A    between atoms: C_22  and  C_23
REMARK    7  A    between atoms: C_22  and  C_24
REMARK    8  A    between atoms: C_23  and  C_25
REMARK                            x       y       z     vdW  Elec       q    Type
REMARK                         _______ _______ _______ _____ _____    ______ ____
ROOT
ATOM      1  O   UNL     1      13.545   6.711   7.111  0.00  0.00    -0.253 OA
ATOM      5  N   UNL     1      11.690   6.780   5.762  0.00  0.00    -0.296 N 
ATOM      6  N   UNL     1      13.713   7.794   5.059  0.00  0.00    -0.272 N 
ATOM      7  N   UNL     1      15.141   9.639   3.368  0.00  0.00    -0.312 NA
ATOM     16  C   UNL     1      13.193   8.113   3.720  0.00  0.00    +0.177 C 
ATOM     17  C   UNL     1      15.121   8.129   5.299  0.00  0.00    +0.125 C 
ATOM     18  C   UNL     1      13.703   9.452   3.177  0.00  0.00    +0.113 C 
ATOM     19  C   UNL     1      13.019   7.071   6.052  0.00  0.00    +0.303 C 
ATOM     20  C   UNL     1      15.485   9.514   4.782  0.00  0.00    +0.100 C 
ATOM     31  H   UNL     1      11.322   6.935   4.835  0.00  0.00    +0.151 HD
ATOM     32  H   UNL     1      15.407  10.566   3.037  0.00  0.00    +0.122 HD
ENDROOT
BRANCH   5  10
ATOM     10  C   UNL     1      10.847   6.041   6.677  0.00  0.00    +0.074 C 
ATOM     11  C   UNL     1       9.819   5.196   5.918  0.00  0.00    +0.022 C 
ATOM     12  C   UNL     1      10.166   6.980   7.678  0.00  0.00    +0.022 C 
ATOM     13  C   UNL     1       8.724   6.048   5.274  0.00  0.00    +0.002 C 
ATOM     14  C   UNL     1       9.071   7.828   7.033  0.00  0.00    +0.002 C 
ATOM     15  C   UNL     1       8.053   6.965   6.293  0.00  0.00    +0.000 C 
ENDBRANCH   5  10
BRANCH  16  21
ATOM      2  O   UNL     1      14.751   6.684   2.609  0.00  0.00    -0.274 OA
ATOM      8  N   UNL     1      12.472   6.329   2.291  0.00  0.00    -0.301 N 
ATOM     21  C   UNL     1      13.576   6.970   2.827  0.00  0.00    +0.236 C 
ATOM     33  H   UNL     1      11.542   6.667   2.522  0.00  0.00    +0.150 HD
BRANCH   8  22
ATOM     22  C   UNL     1      12.570   5.210   1.383  0.00  0.00    +0.186 C 
BRANCH  22  24
ATOM      4  O   UNL     1      11.411   3.696   2.868  0.00  0.00    -0.249 OA
ATOM     24  C   UNL     1      12.338   3.879   2.084  0.00  0.00    +0.328 C 
BRANCH  24   3
ATOM      3  O   UNL     1      13.278   2.951   1.750  0.00  0.00    -0.467 OA
ATOM     29  C   UNL     1      14.618   3.440   1.627  0.00  0.00    +0.280 C 
ENDBRANCH  24   3
ENDBRANCH  22  24
BRANCH  22  23
ATOM     23  C   UNL     1      11.655   5.383   0.161  0.00  0.00    +0.070 C 
BRANCH  23  25
ATOM      9  N   UNL     1      11.473   2.857  -2.659  0.00  0.00    -0.263 NA
ATOM     25  C   UNL     1      12.048   4.562  -1.045  0.00  0.00    -0.027 A 
ATOM     26  C   UNL     1      13.291   4.723  -1.648  0.00  0.00    +0.006 A 
ATOM     27  C   UNL     1      11.183   3.623  -1.585  0.00  0.00    +0.114 A 
ATOM     28  C   UNL     1      13.625   3.952  -2.756  0.00  0.00    +0.020 A 
ATOM     30  C   UNL     1      12.690   3.041  -3.219  0.00  0.00    +0.111 A 
ENDBRANCH  23  25
ENDBRANCH  22  23
ENDBRANCH   8  22
ENDBRANCH  16  21
TORSDOF 7
ENDMDL
MODEL 5
REMARK VINA RESULT:      -5.5      2.157      6.450
REMARK  Name = 75536037
REMARK  8 active torsions:
REMARK  status: ('A' for Active; 'I' for Inactive)
REMARK    1  A    between atoms: O_3  and  C_24
REMARK    2  A    between atoms: O_3  and  C_29
REMARK    3  A    between atoms: N_5  and  C_10
REMARK    4  A    between atoms: N_8  and  C_22
REMARK    5  A    between atoms: C_16  and  C_21
REMARK    6  A    between atoms: C_22  and  C_23
REMARK    7  A    between atoms: C_22  and  C_24
REMARK    8  A    between atoms: C_23  and  C_25
REMARK                            x       y       z     vdW  Elec       q    Type
REMARK                         _______ _______ _______ _____ _____    ______ ____
ROOT
ATOM      1  O   UNL     1      11.091   9.621   4.979  0.00  0.00    -0.253 OA
ATOM      5  N   UNL     1      12.665   7.972   4.716  0.00  0.00    -0.296 N 
ATOM      6  N   UNL     1      10.689   7.547   5.951  0.00  0.00    -0.272 N 
ATOM      7  N   UNL     1       9.216   5.981   7.872  0.00  0.00    -0.312 NA
ATOM     16  C   UNL     1      10.993   6.116   6.118  0.00  0.00    +0.177 C 
ATOM     17  C   UNL     1       9.399   7.997   6.488  0.00  0.00    +0.125 C 
ATOM     18  C   UNL     1      10.562   5.561   7.479  0.00  0.00    +0.113 C 
ATOM     19  C   UNL     1      11.457   8.462   5.201  0.00  0.00    +0.303 C 
ATOM     20  C   UNL     1       9.122   7.438   7.877  0.00  0.00    +0.100 C 
ATOM     31  H   UNL     1      12.875   6.986   4.764  0.00  0.00    +0.151 HD
ATOM     32  H   UNL     1       9.011   5.626   8.805  0.00  0.00    +0.122 HD
ENDROOT
BRANCH   5  10
ATOM     10  C   UNL     1      13.562   8.786   3.924  0.00  0.00    +0.074 C 
ATOM     11  C   UNL     1      14.440   7.916   3.018  0.00  0.00    +0.022 C 
ATOM     12  C   UNL     1      14.413   9.694   4.817  0.00  0.00    +0.022 C 
ATOM     13  C   UNL     1      15.502   7.143   3.801  0.00  0.00    +0.002 C 
ATOM     14  C   UNL     1      15.476   8.920   5.596  0.00  0.00    +0.002 C 
ATOM     15  C   UNL     1      16.344   8.071   4.673  0.00  0.00    +0.000 C 
ENDBRANCH   5  10
BRANCH  16  21
ATOM      2  O   UNL     1       9.135   5.068   5.044  0.00  0.00    -0.274 OA
ATOM      8  N   UNL     1      11.177   5.156   3.930  0.00  0.00    -0.301 N 
ATOM     21  C   UNL     1      10.316   5.400   4.987  0.00  0.00    +0.236 C 
ATOM     33  H   UNL     1      12.145   5.455   4.001  0.00  0.00    +0.150 HD
BRANCH   8  22
ATOM     22  C   UNL     1      10.777   4.461   2.728  0.00  0.00    +0.186 C 
BRANCH  22  24
ATOM      4  O   UNL     1       9.918   5.120   0.567  0.00  0.00    -0.249 OA
ATOM     24  C   UNL     1      10.592   5.409   1.551  0.00  0.00    +0.328 C 
BRANCH  24   3
ATOM      3  O   UNL     1      11.270   6.578   1.722  0.00  0.00    -0.467 OA
ATOM     29  C   UNL     1      11.870   7.127   0.544  0.00  0.00    +0.280 C 
ENDBRANCH  24   3
ENDBRANCH  22  24
BRANCH  22  23
ATOM     23  C   UNL     1      11.732   3.306   2.391  0.00  0.00    +0.070 C 
BRANCH  23  25
ATOM      9  N   UNL     1      13.735   3.595  -0.815  0.00  0.00    -0.263 NA
ATOM     25  C   UNL     1      12.844   3.665   1.431  0.00  0.00    -0.027 A 
ATOM     26  C   UNL     1      13.966   4.364   1.862  0.00  0.00    +0.006 A 
ATOM     27  C   UNL     1      12.778   3.306   0.093  0.00  0.00    +0.114 A 
ATOM     28  C   UNL     1      14.972   4.678   0.956  0.00  0.00    +0.020 A 
ATOM     30  C   UNL     1      14.811   4.275  -0.359  0.00  0.00    +0.111 A 
ENDBRANCH  23  25
ENDBRANCH  22  23
ENDBRANCH   8  22
ENDBRANCH  16  21
TORSDOF 7
ENDMDL
MODEL 6
REMARK VINA RESULT:      -5.4     22.994     25.192
REMARK  Name = 75536037
REMARK  8 active torsions:
REMARK  status: ('A' for Active; 'I' for Inactive)
REMARK    1  A    between atoms: O_3  and  C_24
REMARK    2  A    between atoms: O_3  and  C_29
REMARK    3  A    between atoms: N_5  and  C_10
REMARK    4  A    between atoms: N_8  and  C_22
REMARK    5  A    between atoms: C_16  and  C_21
REMARK    6  A    between atoms: C_22  and  C_23
REMARK    7  A    between atoms: C_22  and  C_24
REMARK    8  A    between atoms: C_23  and  C_25
REMARK                            x       y       z     vdW  Elec       q    Type
REMARK                         _______ _______ _______ _____ _____    ______ ____
ROOT
ATOM      1  O   UNL     1      -6.820 -11.948   7.697  0.00  0.00    -0.253 OA
ATOM      5  N   UNL     1      -4.580 -12.399   7.485  0.00  0.00    -0.296 N 
ATOM      6  N   UNL     1      -5.321 -10.715   8.978  0.00  0.00    -0.272 N 
ATOM      7  N   UNL     1      -4.806  -8.371  10.574  0.00  0.00    -0.312 NA
ATOM     16  C   UNL     1      -3.975 -10.484   9.528  0.00  0.00    +0.177 C 
ATOM     17  C   UNL     1      -6.409  -9.948   9.596  0.00  0.00    +0.125 C 
ATOM     18  C   UNL     1      -3.703  -9.014   9.860  0.00  0.00    +0.113 C 
ATOM     19  C   UNL     1      -5.655 -11.704   8.029  0.00  0.00    +0.303 C 
ATOM     20  C   UNL     1      -6.042  -8.485   9.804  0.00  0.00    +0.100 C 
ATOM     31  H   UNL     1      -3.656 -12.303   7.879  0.00  0.00    +0.151 HD
ATOM     32  H   UNL     1      -4.587  -7.386  10.717  0.00  0.00    +0.122 HD
ENDROOT
BRANCH   5  10
ATOM     10  C   UNL     1      -4.759 -13.446   6.503  0.00  0.00    +0.074 C 
ATOM     11  C   UNL     1      -3.514 -14.334   6.411  0.00  0.00    +0.022 C 
ATOM     12  C   UNL     1      -5.128 -12.862   5.136  0.00  0.00    +0.022 C 
ATOM     13  C   UNL     1      -2.338 -13.623   5.739  0.00  0.00    +0.002 C 
ATOM     14  C   UNL     1      -3.951 -12.155   4.465  0.00  0.00    +0.002 C 
ATOM     15  C   UNL     1      -2.727 -13.060   4.374  0.00  0.00    +0.000 C 
ENDBRANCH   5  10
BRANCH  16  21
ATOM      2  O   UNL     1      -3.881 -12.584  10.661  0.00  0.00    -0.274 OA
ATOM      8  N   UNL     1      -3.729 -10.624  11.908  0.00  0.00    -0.301 N 
ATOM     21  C   UNL     1      -3.852 -11.359  10.740  0.00  0.00    +0.236 C 
ATOM     33  H   UNL     1      -3.741  -9.610  11.858  0.00  0.00    +0.150 HD
BRANCH   8  22
ATOM     22  C   UNL     1      -3.617 -11.229  13.215  0.00  0.00    +0.186 C 
BRANCH  22  24
ATOM      4  O   UNL     1      -1.528 -12.323  13.745  0.00  0.00    -0.249 OA
ATOM     24  C   UNL     1      -2.175 -11.281  13.702  0.00  0.00    +0.328 C 
BRANCH  24   3
ATOM      3  O   UNL     1      -1.719 -10.057  14.089  0.00  0.00    -0.467 OA
ATOM     29  C   UNL     1      -1.057 -10.014  15.358  0.00  0.00    +0.280 C 
ENDBRANCH  24   3
ENDBRANCH  22  24
BRANCH  22  23
ATOM     23  C   UNL     1      -4.545 -10.555  14.237  0.00  0.00    +0.070 C 
BRANCH  23  25
ATOM      9  N   UNL     1      -5.111 -13.288  16.802  0.00  0.00    -0.263 NA
ATOM     25  C   UNL     1      -4.638 -11.264  15.569  0.00  0.00    -0.027 A 
ATOM     26  C   UNL     1      -4.356 -10.598  16.757  0.00  0.00    +0.006 A 
ATOM     27  C   UNL     1      -5.008 -12.598  15.646  0.00  0.00    +0.114 A 
ATOM     28  C   UNL     1      -4.452 -11.276  17.967  0.00  0.00    +0.020 A 
ATOM     30  C   UNL     1      -4.830 -12.608  17.937  0.00  0.00    +0.111 A 
ENDBRANCH  23  25
ENDBRANCH  22  23
ENDBRANCH   8  22
ENDBRANCH  16  21
TORSDOF 7
ENDMDL
MODEL 7
REMARK VINA RESULT:      -5.4     23.333     26.747
REMARK  Name = 75536037
REMARK  8 active torsions:
REMARK  status: ('A' for Active; 'I' for Inactive)
REMARK    1  A    between atoms: O_3  and  C_24
REMARK    2  A    between atoms: O_3  and  C_29
REMARK    3  A    between atoms: N_5  and  C_10
REMARK    4  A    between atoms: N_8  and  C_22
REMARK    5  A    between atoms: C_16  and  C_21
REMARK    6  A    between atoms: C_22  and  C_23
REMARK    7  A    between atoms: C_22  and  C_24
REMARK    8  A    between atoms: C_23  and  C_25
REMARK                            x       y       z     vdW  Elec       q    Type
REMARK                         _______ _______ _______ _____ _____    ______ ____
ROOT
ATOM      1  O   UNL     1      -6.887 -12.976  10.172  0.00  0.00    -0.253 OA
ATOM      5  N   UNL     1      -5.739 -11.093  10.805  0.00  0.00    -0.296 N 
ATOM      6  N   UNL     1      -7.777 -11.661  11.871  0.00  0.00    -0.272 N 
ATOM      7  N   UNL     1     -10.063 -10.933  13.469  0.00  0.00    -0.312 NA
ATOM     16  C   UNL     1      -7.662 -10.582  12.865  0.00  0.00    +0.177 C 
ATOM     17  C   UNL     1      -8.928 -12.558  12.025  0.00  0.00    +0.125 C 
ATOM     18  C   UNL     1      -9.008  -9.947  13.227  0.00  0.00    +0.113 C 
ATOM     19  C   UNL     1      -6.807 -11.979  10.897  0.00  0.00    +0.303 C 
ATOM     20  C   UNL     1     -10.219 -11.802  12.306  0.00  0.00    +0.100 C 
ATOM     31  H   UNL     1      -5.603 -10.379  11.506  0.00  0.00    +0.151 HD
ATOM     32  H   UNL     1     -10.941 -10.449  13.650  0.00  0.00    +0.122 HD
ENDROOT
BRANCH   5  10
ATOM     10  C   UNL     1      -4.660 -11.285   9.860  0.00  0.00    +0.074 C 
ATOM     11  C   UNL     1      -3.363 -11.673  10.576  0.00  0.00    +0.022 C 
ATOM     12  C   UNL     1      -4.464 -10.039   8.989  0.00  0.00    +0.022 C 
ATOM     13  C   UNL     1      -2.750 -10.505  11.350  0.00  0.00    +0.002 C 
ATOM     14  C   UNL     1      -3.850  -8.875   9.764  0.00  0.00    +0.002 C 
ATOM     15  C   UNL     1      -2.554  -9.281  10.460  0.00  0.00    +0.000 C 
ENDBRANCH   5  10
BRANCH  16  21
ATOM      2  O   UNL     1      -7.573 -11.948  14.822  0.00  0.00    -0.274 OA
ATOM      8  N   UNL     1      -5.683 -10.735  14.209  0.00  0.00    -0.301 N 
ATOM     21  C   UNL     1      -6.988 -11.176  14.067  0.00  0.00    +0.236 C 
ATOM     33  H   UNL     1      -5.308 -10.074  13.535  0.00  0.00    +0.150 HD
BRANCH   8  22
ATOM     22  C   UNL     1      -4.825 -11.142  15.298  0.00  0.00    +0.186 C 
BRANCH  22  24
ATOM      4  O   UNL     1      -3.164 -12.572  14.280  0.00  0.00    -0.249 OA
ATOM     24  C   UNL     1      -3.425 -11.501  14.821  0.00  0.00    +0.328 C 
BRANCH  24   3
ATOM      3  O   UNL     1      -2.523 -10.514  15.083  0.00  0.00    -0.467 OA
ATOM     29  C   UNL     1      -1.245 -10.950  15.558  0.00  0.00    +0.280 C 
ENDBRANCH  24   3
ENDBRANCH  22  24
BRANCH  22  23
ATOM     23  C   UNL     1      -4.798 -10.098  16.425  0.00  0.00    +0.070 C 
BRANCH  23  25
ATOM      9  N   UNL     1      -7.788 -10.412  18.734  0.00  0.00    -0.263 NA
ATOM     25  C   UNL     1      -5.637 -10.450  17.632  0.00  0.00    -0.027 A 
ATOM     26  C   UNL     1      -5.081 -11.107  18.724  0.00  0.00    +0.006 A 
ATOM     27  C   UNL     1      -6.984 -10.127  17.686  0.00  0.00    +0.114 A 
ATOM     28  C   UNL     1      -5.877 -11.416  19.821  0.00  0.00    +0.020 A 
ATOM     30  C   UNL     1      -7.213 -11.051  19.778  0.00  0.00    +0.111 A 
ENDBRANCH  23  25
ENDBRANCH  22  23
ENDBRANCH   8  22
ENDBRANCH  16  21
TORSDOF 7
ENDMDL
MODEL 8
REMARK VINA RESULT:      -5.3      2.416      5.317
REMARK  Name = 75536037
REMARK  8 active torsions:
REMARK  status: ('A' for Active; 'I' for Inactive)
REMARK    1  A    between atoms: O_3  and  C_24
REMARK    2  A    between atoms: O_3  and  C_29
REMARK    3  A    between atoms: N_5  and  C_10
REMARK    4  A    between atoms: N_8  and  C_22
REMARK    5  A    between atoms: C_16  and  C_21
REMARK    6  A    between atoms: C_22  and  C_23
REMARK    7  A    between atoms: C_22  and  C_24
REMARK    8  A    between atoms: C_23  and  C_25
REMARK                            x       y       z     vdW  Elec       q    Type
REMARK                         _______ _______ _______ _____ _____    ______ ____
ROOT
ATOM      1  O   UNL     1      11.065  11.249   6.594  0.00  0.00    -0.253 OA
ATOM      5  N   UNL     1      10.644  10.042   4.688  0.00  0.00    -0.296 N 
ATOM      6  N   UNL     1      12.704   9.787   5.831  0.00  0.00    -0.272 N 
ATOM      7  N   UNL     1      15.462   8.952   5.879  0.00  0.00    -0.312 NA
ATOM     16  C   UNL     1      13.150   8.682   4.967  0.00  0.00    +0.177 C 
ATOM     17  C   UNL     1      13.597  10.134   6.943  0.00  0.00    +0.125 C 
ATOM     18  C   UNL     1      14.655   8.707   4.683  0.00  0.00    +0.113 C 
ATOM     19  C   UNL     1      11.444  10.419   5.762  0.00  0.00    +0.303 C 
ATOM     20  C   UNL     1      15.056  10.201   6.517  0.00  0.00    +0.100 C 
ATOM     31  H   UNL     1      10.897   9.251   4.114  0.00  0.00    +0.151 HD
ATOM     32  H   UNL     1      16.445   9.010   5.616  0.00  0.00    +0.122 HD
ENDROOT
BRANCH   5  10
ATOM     10  C   UNL     1       9.324  10.595   4.482  0.00  0.00    +0.074 C 
ATOM     11  C   UNL     1       8.242   9.655   5.022  0.00  0.00    +0.022 C 
ATOM     12  C   UNL     1       9.089  10.922   3.004  0.00  0.00    +0.022 C 
ATOM     13  C   UNL     1       8.074   8.401   4.162  0.00  0.00    +0.002 C 
ATOM     14  C   UNL     1       8.920   9.669   2.147  0.00  0.00    +0.002 C 
ATOM     15  C   UNL     1       7.830   8.753   2.697  0.00  0.00    +0.000 C 
ENDBRANCH   5  10
BRANCH  16  21
ATOM      2  O   UNL     1      13.429   6.880   6.509  0.00  0.00    -0.274 OA
ATOM      8  N   UNL     1      11.526   6.932   5.170  0.00  0.00    -0.301 N 
ATOM     21  C   UNL     1      12.735   7.411   5.647  0.00  0.00    +0.236 C 
ATOM     33  H   UNL     1      11.046   7.442   4.434  0.00  0.00    +0.150 HD
BRANCH   8  22
ATOM     22  C   UNL     1      10.916   5.711   5.646  0.00  0.00    +0.186 C 
BRANCH  22  24
ATOM      4  O   UNL     1      10.882   5.478   8.051  0.00  0.00    -0.249 OA
ATOM     24  C   UNL     1      10.316   5.873   7.035  0.00  0.00    +0.328 C 
BRANCH  24   3
ATOM      3  O   UNL     1       9.096   6.478   7.001  0.00  0.00    -0.467 OA
ATOM     29  C   UNL     1       8.879   7.494   7.986  0.00  0.00    +0.280 C 
ENDBRANCH  24   3
ENDBRANCH  22  24
BRANCH  22  23
ATOM     23  C   UNL     1       9.896   5.154   4.641  0.00  0.00    +0.070 C 
BRANCH  23  25
ATOM      9  N   UNL     1      11.767   3.746   1.658  0.00  0.00    -0.263 NA
ATOM     25  C   UNL     1      10.421   4.994   3.232  0.00  0.00    -0.027 A 
ATOM     26  C   UNL     1      10.075   5.896   2.231  0.00  0.00    +0.006 A 
ATOM     27  C   UNL     1      11.263   3.945   2.896  0.00  0.00    +0.114 A 
ATOM     28  C   UNL     1      10.574   5.724   0.945  0.00  0.00    +0.020 A 
ATOM     30  C   UNL     1      11.408   4.643   0.712  0.00  0.00    +0.111 A 
ENDBRANCH  23  25
ENDBRANCH  22  23
ENDBRANCH   8  22
ENDBRANCH  16  21
TORSDOF 7
ENDMDL
MODEL 9
REMARK VINA RESULT:      -5.3     23.681     27.094
REMARK  Name = 75536037
REMARK  8 active torsions:
REMARK  status: ('A' for Active; 'I' for Inactive)
REMARK    1  A    between atoms: O_3  and  C_24
REMARK    2  A    between atoms: O_3  and  C_29
REMARK    3  A    between atoms: N_5  and  C_10
REMARK    4  A    between atoms: N_8  and  C_22
REMARK    5  A    between atoms: C_16  and  C_21
REMARK    6  A    between atoms: C_22  and  C_23
REMARK    7  A    between atoms: C_22  and  C_24
REMARK    8  A    between atoms: C_23  and  C_25
REMARK                            x       y       z     vdW  Elec       q    Type
REMARK                         _______ _______ _______ _____ _____    ______ ____
ROOT
ATOM      1  O   UNL     1      -4.762 -14.911  16.167  0.00  0.00    -0.253 OA
ATOM      5  N   UNL     1      -5.059 -12.675  16.584  0.00  0.00    -0.296 N 
ATOM      6  N   UNL     1      -3.649 -13.380  14.816  0.00  0.00    -0.272 N 
ATOM      7  N   UNL     1      -1.537 -12.855  12.926  0.00  0.00    -0.312 NA
ATOM     16  C   UNL     1      -3.430 -12.010  14.323  0.00  0.00    +0.177 C 
ATOM     17  C   UNL     1      -3.038 -14.453  14.023  0.00  0.00    +0.125 C 
ATOM     18  C   UNL     1      -2.011 -11.777  13.795  0.00  0.00    +0.113 C 
ATOM     19  C   UNL     1      -4.507 -13.737  15.877  0.00  0.00    +0.303 C 
ATOM     20  C   UNL     1      -1.603 -14.135  13.625  0.00  0.00    +0.100 C 
ATOM     31  H   UNL     1      -4.974 -11.729  16.239  0.00  0.00    +0.151 HD
ATOM     32  H   UNL     1      -0.573 -12.668  12.654  0.00  0.00    +0.122 HD
ENDROOT
BRANCH   5  10
ATOM     10  C   UNL     1      -5.962 -12.877  17.696  0.00  0.00    +0.074 C 
ATOM     11  C   UNL     1      -7.359 -12.336  17.377  0.00  0.00    +0.022 C 
ATOM     12  C   UNL     1      -5.404 -12.252  18.979  0.00  0.00    +0.022 C 
ATOM     13  C   UNL     1      -7.404 -10.808  17.353  0.00  0.00    +0.002 C 
ATOM     14  C   UNL     1      -5.452 -10.725  18.955  0.00  0.00    +0.002 C 
ATOM     15  C   UNL     1      -6.854 -10.210  18.646  0.00  0.00    +0.000 C 
ENDBRANCH   5  10
BRANCH  16  21
ATOM      2  O   UNL     1      -4.338 -12.202  12.123  0.00  0.00    -0.274 OA
ATOM      8  N   UNL     1      -5.516 -10.993  13.725  0.00  0.00    -0.301 N 
ATOM     21  C   UNL     1      -4.464 -11.765  13.263  0.00  0.00    +0.236 C 
ATOM     33  H   UNL     1      -5.505 -10.663  14.686  0.00  0.00    +0.150 HD
BRANCH   8  22
ATOM     22  C   UNL     1      -6.631 -10.597  12.896  0.00  0.00    +0.186 C 
BRANCH  22  24
ATOM      4  O   UNL     1      -8.470 -11.651  14.055  0.00  0.00    -0.249 OA
ATOM     24  C   UNL     1      -7.948 -10.614  13.658  0.00  0.00    +0.328 C 
BRANCH  24   3
ATOM      3  O   UNL     1      -8.466  -9.364  13.818  0.00  0.00    -0.467 OA
ATOM     29  C   UNL     1      -9.608  -9.270  14.676  0.00  0.00    +0.280 C 
ENDBRANCH  24   3
ENDBRANCH  22  24
BRANCH  22  23
ATOM     23  C   UNL     1      -6.380  -9.244  12.211  0.00  0.00    +0.070 C 
BRANCH  23  25
ATOM      9  N   UNL     1      -6.093 -10.135   8.537  0.00  0.00    -0.263 NA
ATOM     25  C   UNL     1      -5.832  -9.340  10.805  0.00  0.00    -0.027 A 
ATOM     26  C   UNL     1      -4.615  -8.759  10.469  0.00  0.00    +0.006 A 
ATOM     27  C   UNL     1      -6.526 -10.012   9.810  0.00  0.00    +0.114 A 
ATOM     28  C   UNL     1      -4.135  -8.865   9.168  0.00  0.00    +0.020 A 
ATOM     30  C   UNL     1      -4.905  -9.557   8.247  0.00  0.00    +0.111 A 
ENDBRANCH  23  25
ENDBRANCH  22  23
ENDBRANCH   8  22
ENDBRANCH  16  21
TORSDOF 7
ENDMDL
MODEL 10
REMARK VINA RESULT:      -5.3      1.862      2.349
REMARK  Name = 75536037
REMARK  8 active torsions:
REMARK  status: ('A' for Active; 'I' for Inactive)
REMARK    1  A    between atoms: O_3  and  C_24
REMARK    2  A    between atoms: O_3  and  C_29
REMARK    3  A    between atoms: N_5  and  C_10
REMARK    4  A    between atoms: N_8  and  C_22
REMARK    5  A    between atoms: C_16  and  C_21
REMARK    6  A    between atoms: C_22  and  C_23
REMARK    7  A    between atoms: C_22  and  C_24
REMARK    8  A    between atoms: C_23  and  C_25
REMARK                            x       y       z     vdW  Elec       q    Type
REMARK                         _______ _______ _______ _____ _____    ______ ____
ROOT
ATOM      1  O   UNL     1      12.646   8.679   2.133  0.00  0.00    -0.253 OA
ATOM      5  N   UNL     1      12.421   6.539   2.930  0.00  0.00    -0.296 N 
ATOM      6  N   UNL     1      13.134   8.279   4.371  0.00  0.00    -0.272 N 
ATOM      7  N   UNL     1      14.406   9.164   6.801  0.00  0.00    -0.312 NA
ATOM     16  C   UNL     1      13.103   7.422   5.568  0.00  0.00    +0.177 C 
ATOM     17  C   UNL     1      13.467   9.690   4.599  0.00  0.00    +0.125 C 
ATOM     18  C   UNL     1      14.228   7.731   6.561  0.00  0.00    +0.113 C 
ATOM     19  C   UNL     1      12.729   7.887   3.078  0.00  0.00    +0.303 C 
ATOM     20  C   UNL     1      14.649   9.862   5.542  0.00  0.00    +0.100 C 
ATOM     31  H   UNL     1      12.337   5.940   3.739  0.00  0.00    +0.151 HD
ATOM     32  H   UNL     1      15.200   9.305   7.425  0.00  0.00    +0.122 HD
ENDROOT
BRANCH   5  10
ATOM     10  C   UNL     1      11.985   5.984   1.667  0.00  0.00    +0.074 C 
ATOM     11  C   UNL     1      10.922   4.902   1.879  0.00  0.00    +0.022 C 
ATOM     12  C   UNL     1      13.174   5.445   0.864  0.00  0.00    +0.022 C 
ATOM     13  C   UNL     1      11.503   3.619   2.476  0.00  0.00    +0.002 C 
ATOM     14  C   UNL     1      13.751   4.163   1.460  0.00  0.00    +0.002 C 
ATOM     15  C   UNL     1      12.677   3.097   1.652  0.00  0.00    +0.000 C 
ENDBRANCH   5  10
BRANCH  16  21
ATOM      2  O   UNL     1      11.531   8.476   7.025  0.00  0.00    -0.274 OA
ATOM      8  N   UNL     1      10.832   6.674   5.728  0.00  0.00    -0.301 N 
ATOM     21  C   UNL     1      11.750   7.602   6.190  0.00  0.00    +0.236 C 
ATOM     33  H   UNL     1      11.130   5.978   5.051  0.00  0.00    +0.150 HD
BRANCH   8  22
ATOM     22  C   UNL     1       9.463   6.619   6.186  0.00  0.00    +0.186 C 
BRANCH  22  24
ATOM      4  O   UNL     1       8.806   6.732   8.508  0.00  0.00    -0.249 OA
ATOM     24  C   UNL     1       9.356   6.098   7.612  0.00  0.00    +0.328 C 
BRANCH  24   3
ATOM      3  O   UNL     1       9.949   4.881   7.761  0.00  0.00    -0.467 OA
ATOM     29  C   UNL     1       9.532   4.123   8.902  0.00  0.00    +0.280 C 
ENDBRANCH  24   3
ENDBRANCH  22  24
BRANCH  22  23
ATOM     23  C   UNL     1       8.748   7.967   6.010  0.00  0.00    +0.070 C 
BRANCH  23  25
ATOM      9  N   UNL     1       8.763   7.949   2.219  0.00  0.00    -0.263 NA
ATOM     25  C   UNL     1       8.401   8.316   4.581  0.00  0.00    -0.027 A 
ATOM     26  C   UNL     1       7.445   9.284   4.291  0.00  0.00    +0.006 A 
ATOM     27  C   UNL     1       9.026   7.684   3.517  0.00  0.00    +0.114 A 
ATOM     28  C   UNL     1       7.149   9.585   2.966  0.00  0.00    +0.020 A 
ATOM     30  C   UNL     1       7.829   8.896   1.976  0.00  0.00    +0.111 A 
ENDBRANCH  23  25
ENDBRANCH  22  23
ENDBRANCH   8  22
ENDBRANCH  16  21
TORSDOF 7
ENDMDL
