MODEL 1
REMARK VINA RESULT:      -8.5      0.000      0.000
REMARK  Name = 11884002
REMARK  7 active torsions:
REMARK  status: ('A' for Active; 'I' for Inactive)
REMARK    1  A    between atoms: O_3  and  C_13
REMARK    2  A    between atoms: O_3  and  C_17
REMARK    3  A    between atoms: N_7  and  C_12
REMARK    4  A    between atoms: N_8  and  C_18
REMARK    5  A    between atoms: N_9  and  C_19
REMARK    6  A    between atoms: C_30  and  C_34
REMARK    7  A    between atoms: C_34  and  C_35
REMARK                            x       y       z     vdW  Elec       q    Type
REMARK                         _______ _______ _______ _____ _____    ______ ____
ROOT
ATOM      1  O   UNL     1     -16.070   2.497  24.159  0.00  0.00    -0.368 OA
ATOM      2  O   UNL     1     -17.826   4.773  25.225  0.00  0.00    -0.368 OA
ATOM     10  C   UNL     1     -16.419   4.719  24.910  0.00  0.00    +0.173 C 
ATOM     11  C   UNL     1     -15.932   3.342  25.314  0.00  0.00    +0.192 C 
ATOM     12  C   UNL     1     -16.220   4.748  23.412  0.00  0.00    +0.131 C 
ATOM     13  C   UNL     1     -16.903   2.959  26.406  0.00  0.00    +0.235 C 
ATOM     14  C   UNL     1     -16.449   3.297  23.028  0.00  0.00    +0.185 C 
ATOM     15  C   UNL     1     -18.195   3.569  25.912  0.00  0.00    +0.207 C 
ENDROOT
BRANCH  12   7
ATOM      4  O   UNL     1     -15.483   6.497  21.266  0.00  0.00    -0.252 OA
ATOM      7  N   UNL     1     -14.887   5.179  23.070  0.00  0.00    -0.292 N 
ATOM      8  N   UNL     1     -13.237   6.280  21.910  0.00  0.00    -0.269 N 
ATOM     16  C   UNL     1     -14.611   6.040  22.000  0.00  0.00    +0.304 C 
ATOM     36  H   UNL     1     -14.119   4.896  23.671  0.00  0.00    +0.151 HD
ATOM     37  H   UNL     1     -12.647   5.818  22.600  0.00  0.00    +0.156 HD
BRANCH   8  18
ATOM     18  C   UNL     1     -12.557   7.089  20.972  0.00  0.00    +0.035 A 
ATOM     21  C   UNL     1     -11.901   6.501  19.889  0.00  0.00    +0.024 A 
ATOM     22  C   UNL     1     -12.539   8.475  21.128  0.00  0.00    +0.024 A 
ATOM     28  C   UNL     1     -11.230   7.300  18.964  0.00  0.00    +0.013 A 
ATOM     29  C   UNL     1     -11.867   9.274  20.202  0.00  0.00    +0.013 A 
ATOM     30  C   UNL     1     -11.213   8.686  19.120  0.00  0.00    +0.017 A 
BRANCH  30  34
ATOM      6  O   UNL     1     -10.030   9.037  17.110  0.00  0.00    -0.292 OA
ATOM     34  C   UNL     1     -10.512   9.518  18.155  0.00  0.00    +0.160 C 
ATOM     35  C   UNL     1     -10.348  11.014  18.404  0.00  0.00    +0.091 C 
ENDBRANCH  30  34
ENDBRANCH   8  18
ENDBRANCH  12   7
BRANCH  13   3
ATOM      3  O   UNL     1     -17.012   1.567  26.600  0.00  0.00    -0.442 OA
BRANCH   3  17
ATOM      5  O   UNL     1     -17.758   0.289  28.344  0.00  0.00    -0.226 OA
ATOM      9  N   UNL     1     -15.927   1.730  28.570  0.00  0.00    -0.251 N 
ATOM     17  C   UNL     1     -16.968   1.114  27.902  0.00  0.00    +0.405 C 
ATOM     38  H   UNL     1     -15.397   2.383  28.004  0.00  0.00    +0.158 HD
BRANCH   9  19
ATOM     19  C   UNL     1     -15.530   1.555  29.915  0.00  0.00    +0.044 A 
ATOM     20  C   UNL     1     -15.366   2.643  30.786  0.00  0.00    +0.003 A 
ATOM     23  C   UNL     1     -15.302   0.250  30.354  0.00  0.00    +0.024 A 
ATOM     24  C   UNL     1     -14.967   2.406  32.124  0.00  0.00    -0.016 A 
ATOM     25  C   UNL     1     -15.592   3.963  30.361  0.00  0.00    +0.010 A 
ATOM     26  C   UNL     1     -14.908   0.016  31.669  0.00  0.00    +0.002 A 
ATOM     27  C   UNL     1     -14.741   1.086  32.549  0.00  0.00    +0.008 A 
ATOM     31  C   UNL     1     -14.803   3.494  32.995  0.00  0.00    +0.008 A 
ATOM     32  C   UNL     1     -15.424   5.032  31.242  0.00  0.00    +0.001 A 
ATOM     33  C   UNL     1     -15.031   4.799  32.556  0.00  0.00    +0.001 A 
ENDBRANCH   9  19
ENDBRANCH   3  17
ENDBRANCH  13   3
TORSDOF 6
ENDMDL
MODEL 2
REMARK VINA RESULT:      -8.0     16.629     19.165
REMARK  Name = 11884002
REMARK  7 active torsions:
REMARK  status: ('A' for Active; 'I' for Inactive)
REMARK    1  A    between atoms: O_3  and  C_13
REMARK    2  A    between atoms: O_3  and  C_17
REMARK    3  A    between atoms: N_7  and  C_12
REMARK    4  A    between atoms: N_8  and  C_18
REMARK    5  A    between atoms: N_9  and  C_19
REMARK    6  A    between atoms: C_30  and  C_34
REMARK    7  A    between atoms: C_34  and  C_35
REMARK                            x       y       z     vdW  Elec       q    Type
REMARK                         _______ _______ _______ _____ _____    ______ ____
ROOT
ATOM      1  O   UNL     1      -9.596  -9.413  15.332  0.00  0.00    -0.368 OA
ATOM      2  O   UNL     1     -10.396  -9.013  18.265  0.00  0.00    -0.368 OA
ATOM     10  C   UNL     1     -10.115  -8.066  17.213  0.00  0.00    +0.173 C 
ATOM     11  C   UNL     1      -8.987  -8.650  16.387  0.00  0.00    +0.192 C 
ATOM     12  C   UNL     1     -11.276  -8.002  16.248  0.00  0.00    +0.131 C 
ATOM     13  C   UNL     1      -8.279  -9.537  17.382  0.00  0.00    +0.235 C 
ATOM     14  C   UNL     1     -11.016  -9.202  15.353  0.00  0.00    +0.185 C 
ATOM     15  C   UNL     1      -9.427 -10.069  18.209  0.00  0.00    +0.207 C 
ENDROOT
BRANCH  12   7
ATOM      4  O   UNL     1     -13.218  -7.155  14.320  0.00  0.00    -0.252 OA
ATOM      7  N   UNL     1     -11.263  -6.772  15.495  0.00  0.00    -0.292 N 
ATOM      8  N   UNL     1     -11.981  -5.187  13.994  0.00  0.00    -0.269 N 
ATOM     16  C   UNL     1     -12.256  -6.432  14.567  0.00  0.00    +0.304 C 
ATOM     36  H   UNL     1     -10.535  -6.092  15.692  0.00  0.00    +0.151 HD
ATOM     37  H   UNL     1     -11.135  -4.716  14.310  0.00  0.00    +0.156 HD
BRANCH   8  18
ATOM     18  C   UNL     1     -12.735  -4.494  13.020  0.00  0.00    +0.035 A 
ATOM     21  C   UNL     1     -12.178  -4.222  11.769  0.00  0.00    +0.024 A 
ATOM     22  C   UNL     1     -14.036  -4.081  13.309  0.00  0.00    +0.024 A 
ATOM     28  C   UNL     1     -12.923  -3.538  10.809  0.00  0.00    +0.013 A 
ATOM     29  C   UNL     1     -14.780  -3.396  12.347  0.00  0.00    +0.013 A 
ATOM     30  C   UNL     1     -14.223  -3.125  11.098  0.00  0.00    +0.017 A 
BRANCH  30  34
ATOM      6  O   UNL     1     -14.782  -2.562   8.877  0.00  0.00    -0.292 OA
ATOM     34  C   UNL     1     -14.999  -2.411  10.095  0.00  0.00    +0.160 C 
ATOM     35  C   UNL     1     -16.105  -1.451  10.519  0.00  0.00    +0.091 C 
ENDBRANCH  30  34
ENDBRANCH   8  18
ENDBRANCH  12   7
BRANCH  13   3
ATOM      3  O   UNL     1      -7.532 -10.572  16.783  0.00  0.00    -0.442 OA
BRANCH   3  17
ATOM      5  O   UNL     1      -5.600 -10.343  17.986  0.00  0.00    -0.226 OA
ATOM      9  N   UNL     1      -5.574 -10.642  15.665  0.00  0.00    -0.251 N 
ATOM     17  C   UNL     1      -6.159 -10.503  16.909  0.00  0.00    +0.405 C 
ATOM     38  H   UNL     1      -6.234 -10.767  14.905  0.00  0.00    +0.158 HD
BRANCH   9  19
ATOM     19  C   UNL     1      -4.197 -10.631  15.344  0.00  0.00    +0.044 A 
ATOM     20  C   UNL     1      -3.748 -10.555  14.016  0.00  0.00    +0.003 A 
ATOM     23  C   UNL     1      -3.289 -10.702  16.401  0.00  0.00    +0.024 A 
ATOM     24  C   UNL     1      -2.357 -10.548  13.755  0.00  0.00    -0.016 A 
ATOM     25  C   UNL     1      -4.648 -10.483  12.940  0.00  0.00    +0.010 A 
ATOM     26  C   UNL     1      -1.921 -10.696  16.146  0.00  0.00    +0.002 A 
ATOM     27  C   UNL     1      -1.456 -10.619  14.831  0.00  0.00    +0.008 A 
ATOM     31  C   UNL     1      -1.907 -10.471  12.428  0.00  0.00    +0.008 A 
ATOM     32  C   UNL     1      -4.183 -10.407  11.627  0.00  0.00    +0.001 A 
ATOM     33  C   UNL     1      -2.815 -10.401  11.371  0.00  0.00    +0.001 A 
ENDBRANCH   9  19
ENDBRANCH   3  17
ENDBRANCH  13   3
TORSDOF 6
ENDMDL
MODEL 3
REMARK VINA RESULT:      -7.9     17.656     20.747
REMARK  Name = 11884002
REMARK  7 active torsions:
REMARK  status: ('A' for Active; 'I' for Inactive)
REMARK    1  A    between atoms: O_3  and  C_13
REMARK    2  A    between atoms: O_3  and  C_17
REMARK    3  A    between atoms: N_7  and  C_12
REMARK    4  A    between atoms: N_8  and  C_18
REMARK    5  A    between atoms: N_9  and  C_19
REMARK    6  A    between atoms: C_30  and  C_34
REMARK    7  A    between atoms: C_34  and  C_35
REMARK                            x       y       z     vdW  Elec       q    Type
REMARK                         _______ _______ _______ _____ _____    ______ ____
ROOT
ATOM      1  O   UNL     1      -6.304 -11.226  16.604  0.00  0.00    -0.368 OA
ATOM      2  O   UNL     1      -5.616 -11.519  19.577  0.00  0.00    -0.368 OA
ATOM     10  C   UNL     1      -6.092 -10.392  18.813  0.00  0.00    +0.173 C 
ATOM     11  C   UNL     1      -5.426 -10.470  17.454  0.00  0.00    +0.192 C 
ATOM     12  C   UNL     1      -7.562 -10.556  18.506  0.00  0.00    +0.131 C 
ATOM     13  C   UNL     1      -4.154 -11.226  17.756  0.00  0.00    +0.235 C 
ATOM     14  C   UNL     1      -7.538 -11.473  17.296  0.00  0.00    +0.185 C 
ATOM     15  C   UNL     1      -4.607 -12.202  18.818  0.00  0.00    +0.207 C 
ENDROOT
BRANCH  12   7
ATOM      4  O   UNL     1      -9.842 -10.126  16.825  0.00  0.00    -0.252 OA
ATOM      7  N   UNL     1      -8.175  -9.288  18.192  0.00  0.00    -0.292 N 
ATOM      8  N   UNL     1      -9.664  -7.822  17.237  0.00  0.00    -0.269 N 
ATOM     16  C   UNL     1      -9.294  -9.164  17.357  0.00  0.00    +0.304 C 
ATOM     36  H   UNL     1      -7.820  -8.453  18.648  0.00  0.00    +0.151 HD
ATOM     37  H   UNL     1      -9.099  -7.145  17.745  0.00  0.00    +0.156 HD
BRANCH   8  18
ATOM     18  C   UNL     1     -10.735  -7.281  16.489  0.00  0.00    +0.035 A 
ATOM     21  C   UNL     1     -12.030  -7.769  16.671  0.00  0.00    +0.024 A 
ATOM     22  C   UNL     1     -10.497  -6.261  15.567  0.00  0.00    +0.024 A 
ATOM     28  C   UNL     1     -13.085  -7.236  15.931  0.00  0.00    +0.013 A 
ATOM     29  C   UNL     1     -11.554  -5.729  14.827  0.00  0.00    +0.013 A 
ATOM     30  C   UNL     1     -12.847  -6.217  15.010  0.00  0.00    +0.017 A 
BRANCH  30  34
ATOM      6  O   UNL     1     -15.099  -6.140  14.310  0.00  0.00    -0.292 OA
ATOM     34  C   UNL     1     -13.949  -5.662  14.239  0.00  0.00    +0.160 C 
ATOM     35  C   UNL     1     -13.719  -4.470  13.316  0.00  0.00    +0.091 C 
ENDBRANCH  30  34
ENDBRANCH   8  18
ENDBRANCH  12   7
BRANCH  13   3
ATOM      3  O   UNL     1      -3.606 -11.879  16.634  0.00  0.00    -0.442 OA
BRANCH   3  17
ATOM      5  O   UNL     1      -2.131 -10.301  15.881  0.00  0.00    -0.226 OA
ATOM      9  N   UNL     1      -3.688 -11.310  14.453  0.00  0.00    -0.251 N 
ATOM     17  C   UNL     1      -3.050 -11.079  15.657  0.00  0.00    +0.405 C 
ATOM     38  H   UNL     1      -4.426 -12.003  14.498  0.00  0.00    +0.158 HD
BRANCH   9  19
ATOM     19  C   UNL     1      -3.431 -10.704  13.201  0.00  0.00    +0.044 A 
ATOM     20  C   UNL     1      -4.451 -10.101  12.449  0.00  0.00    +0.003 A 
ATOM     23  C   UNL     1      -2.117 -10.726  12.732  0.00  0.00    +0.024 A 
ATOM     24  C   UNL     1      -4.134  -9.510  11.202  0.00  0.00    -0.016 A 
ATOM     25  C   UNL     1      -5.779 -10.069  12.906  0.00  0.00    +0.010 A 
ATOM     26  C   UNL     1      -1.804 -10.146  11.506  0.00  0.00    +0.002 A 
ATOM     27  C   UNL     1      -2.806  -9.542  10.745  0.00  0.00    +0.008 A 
ATOM     31  C   UNL     1      -5.153  -8.907  10.449  0.00  0.00    +0.008 A 
ATOM     32  C   UNL     1      -6.779  -9.464  12.143  0.00  0.00    +0.001 A 
ATOM     33  C   UNL     1      -6.468  -8.884  10.918  0.00  0.00    +0.001 A 
ENDBRANCH   9  19
ENDBRANCH   3  17
ENDBRANCH  13   3
TORSDOF 6
ENDMDL
MODEL 4
REMARK VINA RESULT:      -7.8     17.824     21.522
REMARK  Name = 11884002
REMARK  7 active torsions:
REMARK  status: ('A' for Active; 'I' for Inactive)
REMARK    1  A    between atoms: O_3  and  C_13
REMARK    2  A    between atoms: O_3  and  C_17
REMARK    3  A    between atoms: N_7  and  C_12
REMARK    4  A    between atoms: N_8  and  C_18
REMARK    5  A    between atoms: N_9  and  C_19
REMARK    6  A    between atoms: C_30  and  C_34
REMARK    7  A    between atoms: C_34  and  C_35
REMARK                            x       y       z     vdW  Elec       q    Type
REMARK                         _______ _______ _______ _____ _____    ______ ____
ROOT
ATOM      1  O   UNL     1      -6.485 -12.098  17.370  0.00  0.00    -0.368 OA
ATOM      2  O   UNL     1      -4.992 -11.550  19.992  0.00  0.00    -0.368 OA
ATOM     10  C   UNL     1      -6.026 -10.812  19.309  0.00  0.00    +0.173 C 
ATOM     11  C   UNL     1      -5.753 -10.947  17.824  0.00  0.00    +0.192 C 
ATOM     12  C   UNL     1      -7.361 -11.493  19.495  0.00  0.00    +0.131 C 
ATOM     13  C   UNL     1      -4.262 -11.181  17.785  0.00  0.00    +0.235 C 
ATOM     14  C   UNL     1      -7.320 -12.579  18.435  0.00  0.00    +0.185 C 
ATOM     15  C   UNL     1      -4.038 -12.015  19.026  0.00  0.00    +0.207 C 
ENDROOT
BRANCH  12   7
ATOM      4  O   UNL     1     -10.126 -11.936  20.104  0.00  0.00    -0.252 OA
ATOM      7  N   UNL     1      -8.452 -10.577  19.267  0.00  0.00    -0.292 N 
ATOM      8  N   UNL     1     -10.615  -9.801  19.260  0.00  0.00    -0.269 N 
ATOM     16  C   UNL     1      -9.782 -10.873  19.595  0.00  0.00    +0.304 C 
ATOM     36  H   UNL     1      -8.239  -9.651  18.910  0.00  0.00    +0.151 HD
ATOM     37  H   UNL     1     -10.168  -8.989  18.841  0.00  0.00    +0.156 HD
BRANCH   8  18
ATOM     18  C   UNL     1     -12.015  -9.705  19.430  0.00  0.00    +0.035 A 
ATOM     21  C   UNL     1     -12.852  -9.662  18.314  0.00  0.00    +0.024 A 
ATOM     22  C   UNL     1     -12.560  -9.652  20.713  0.00  0.00    +0.024 A 
ATOM     28  C   UNL     1     -14.233  -9.566  18.483  0.00  0.00    +0.013 A 
ATOM     29  C   UNL     1     -13.942  -9.556  20.881  0.00  0.00    +0.013 A 
ATOM     30  C   UNL     1     -14.778  -9.513  19.766  0.00  0.00    +0.017 A 
BRANCH  30  34
ATOM      6  O   UNL     1     -16.998  -9.488  18.970  0.00  0.00    -0.292 OA
ATOM     34  C   UNL     1     -16.219  -9.413  19.940  0.00  0.00    +0.160 C 
ATOM     35  C   UNL     1     -16.813  -9.210  21.330  0.00  0.00    +0.091 C 
ENDBRANCH  30  34
ENDBRANCH   8  18
ENDBRANCH  12   7
BRANCH  13   3
ATOM      3  O   UNL     1      -3.825 -11.839  16.617  0.00  0.00    -0.442 OA
BRANCH   3  17
ATOM      5  O   UNL     1      -2.284 -10.301  15.916  0.00  0.00    -0.226 OA
ATOM      9  N   UNL     1      -3.795 -11.293  14.429  0.00  0.00    -0.251 N 
ATOM     17  C   UNL     1      -3.208 -11.062  15.658  0.00  0.00    +0.405 C 
ATOM     38  H   UNL     1      -4.550 -11.970  14.448  0.00  0.00    +0.158 HD
BRANCH   9  19
ATOM     19  C   UNL     1      -3.469 -10.707  13.184  0.00  0.00    +0.044 A 
ATOM     20  C   UNL     1      -4.439 -10.084  12.384  0.00  0.00    +0.003 A 
ATOM     23  C   UNL     1      -2.138 -10.772  12.772  0.00  0.00    +0.024 A 
ATOM     24  C   UNL     1      -4.053  -9.514  11.146  0.00  0.00    -0.016 A 
ATOM     25  C   UNL     1      -5.783 -10.010  12.784  0.00  0.00    +0.010 A 
ATOM     26  C   UNL     1      -1.758 -10.213  11.555  0.00  0.00    +0.002 A 
ATOM     27  C   UNL     1      -2.709  -9.588  10.746  0.00  0.00    +0.008 A 
ATOM     31  C   UNL     1      -5.023  -8.890  10.346  0.00  0.00    +0.008 A 
ATOM     32  C   UNL     1      -6.733  -9.385  11.975  0.00  0.00    +0.001 A 
ATOM     33  C   UNL     1      -6.354  -8.826  10.759  0.00  0.00    +0.001 A 
ENDBRANCH   9  19
ENDBRANCH   3  17
ENDBRANCH  13   3
TORSDOF 6
ENDMDL
MODEL 5
REMARK VINA RESULT:      -7.7     27.878     32.858
REMARK  Name = 11884002
REMARK  7 active torsions:
REMARK  status: ('A' for Active; 'I' for Inactive)
REMARK    1  A    between atoms: O_3  and  C_13
REMARK    2  A    between atoms: O_3  and  C_17
REMARK    3  A    between atoms: N_7  and  C_12
REMARK    4  A    between atoms: N_8  and  C_18
REMARK    5  A    between atoms: N_9  and  C_19
REMARK    6  A    between atoms: C_30  and  C_34
REMARK    7  A    between atoms: C_34  and  C_35
REMARK                            x       y       z     vdW  Elec       q    Type
REMARK                         _______ _______ _______ _____ _____    ______ ____
ROOT
ATOM      1  O   UNL     1      15.286   8.170  19.264  0.00  0.00    -0.368 OA
ATOM      2  O   UNL     1      14.744   7.200  22.122  0.00  0.00    -0.368 OA
ATOM     10  C   UNL     1      15.621   6.698  21.092  0.00  0.00    +0.173 C 
ATOM     11  C   UNL     1      14.899   6.883  19.773  0.00  0.00    +0.192 C 
ATOM     12  C   UNL     1      16.837   7.584  20.968  0.00  0.00    +0.131 C 
ATOM     13  C   UNL     1      13.447   6.859  20.188  0.00  0.00    +0.235 C 
ATOM     14  C   UNL     1      16.323   8.716  20.095  0.00  0.00    +0.185 C 
ATOM     15  C   UNL     1      13.487   7.557  21.528  0.00  0.00    +0.207 C 
ENDROOT
BRANCH  12   7
ATOM      4  O   UNL     1      19.117   6.434  22.266  0.00  0.00    -0.252 OA
ATOM      7  N   UNL     1      17.930   6.888  20.334  0.00  0.00    -0.292 N 
ATOM      8  N   UNL     1      19.912   5.737  20.171  0.00  0.00    -0.269 N 
ATOM     16  C   UNL     1      19.012   6.352  21.046  0.00  0.00    +0.304 C 
ATOM     36  H   UNL     1      17.881   6.721  19.334  0.00  0.00    +0.151 HD
ATOM     37  H   UNL     1      19.675   5.760  19.181  0.00  0.00    +0.156 HD
BRANCH   8  18
ATOM     18  C   UNL     1      21.124   5.083  20.491  0.00  0.00    +0.035 A 
ATOM     21  C   UNL     1      22.335   5.768  20.385  0.00  0.00    +0.024 A 
ATOM     22  C   UNL     1      21.109   3.753  20.913  0.00  0.00    +0.024 A 
ATOM     28  C   UNL     1      23.531   5.122  20.701  0.00  0.00    +0.013 A 
ATOM     29  C   UNL     1      22.305   3.108  21.228  0.00  0.00    +0.013 A 
ATOM     30  C   UNL     1      23.515   3.792  21.122  0.00  0.00    +0.017 A 
BRANCH  30  34
ATOM      6  O   UNL     1      25.765   3.757  21.830  0.00  0.00    -0.292 OA
ATOM     34  C   UNL     1      24.762   3.119  21.451  0.00  0.00    +0.160 C 
ATOM     35  C   UNL     1      24.871   1.602  21.337  0.00  0.00    +0.091 C 
ENDBRANCH  30  34
ENDBRANCH   8  18
ENDBRANCH  12   7
BRANCH  13   3
ATOM      3  O   UNL     1      12.590   7.509  19.276  0.00  0.00    -0.442 OA
BRANCH   3  17
ATOM      5  O   UNL     1      10.616   8.464  19.927  0.00  0.00    -0.226 OA
ATOM      9  N   UNL     1      12.642   9.632  20.033  0.00  0.00    -0.251 N 
ATOM     17  C   UNL     1      11.828   8.548  19.769  0.00  0.00    +0.405 C 
ATOM     38  H   UNL     1      13.622   9.479  19.826  0.00  0.00    +0.158 HD
BRANCH   9  19
ATOM     19  C   UNL     1      12.270  10.896  20.546  0.00  0.00    +0.044 A 
ATOM     20  C   UNL     1      12.635  12.091  19.906  0.00  0.00    +0.003 A 
ATOM     23  C   UNL     1      11.521  10.918  21.723  0.00  0.00    +0.024 A 
ATOM     24  C   UNL     1      12.234  13.328  20.466  0.00  0.00    -0.016 A 
ATOM     25  C   UNL     1      13.389  12.087  18.720  0.00  0.00    +0.010 A 
ATOM     26  C   UNL     1      11.126  12.133  22.275  0.00  0.00    +0.002 A 
ATOM     27  C   UNL     1      11.480  13.331  21.652  0.00  0.00    +0.008 A 
ATOM     31  C   UNL     1      12.599  14.522  19.827  0.00  0.00    +0.008 A 
ATOM     32  C   UNL     1      13.742  13.285  18.098  0.00  0.00    +0.001 A 
ATOM     33  C   UNL     1      13.348  14.500  18.650  0.00  0.00    +0.001 A 
ENDBRANCH   9  19
ENDBRANCH   3  17
ENDBRANCH  13   3
TORSDOF 6
ENDMDL
MODEL 6
REMARK VINA RESULT:      -7.6     26.790     29.034
REMARK  Name = 11884002
REMARK  7 active torsions:
REMARK  status: ('A' for Active; 'I' for Inactive)
REMARK    1  A    between atoms: O_3  and  C_13
REMARK    2  A    between atoms: O_3  and  C_17
REMARK    3  A    between atoms: N_7  and  C_12
REMARK    4  A    between atoms: N_8  and  C_18
REMARK    5  A    between atoms: N_9  and  C_19
REMARK    6  A    between atoms: C_30  and  C_34
REMARK    7  A    between atoms: C_34  and  C_35
REMARK                            x       y       z     vdW  Elec       q    Type
REMARK                         _______ _______ _______ _____ _____    ______ ____
ROOT
ATOM      1  O   UNL     1      13.540   9.423  20.171  0.00  0.00    -0.368 OA
ATOM      2  O   UNL     1      12.561   6.907  18.718  0.00  0.00    -0.368 OA
ATOM     10  C   UNL     1      12.420   8.308  18.403  0.00  0.00    +0.173 C 
ATOM     11  C   UNL     1      12.232   9.036  19.719  0.00  0.00    +0.192 C 
ATOM     12  C   UNL     1      13.724   8.854  17.870  0.00  0.00    +0.131 C 
ATOM     13  C   UNL     1      11.629   7.968  20.600  0.00  0.00    +0.235 C 
ATOM     14  C   UNL     1      14.502   9.133  19.145  0.00  0.00    +0.185 C 
ATOM     15  C   UNL     1      12.340   6.722  20.124  0.00  0.00    +0.207 C 
ENDROOT
BRANCH  12   7
ATOM      4  O   UNL     1      14.102   9.190  15.050  0.00  0.00    -0.252 OA
ATOM      7  N   UNL     1      13.513  10.062  17.110  0.00  0.00    -0.292 N 
ATOM      8  N   UNL     1      13.437  11.431  15.266  0.00  0.00    -0.269 N 
ATOM     16  C   UNL     1      13.722  10.142  15.726  0.00  0.00    +0.304 C 
ATOM     36  H   UNL     1      13.134  10.874  17.587  0.00  0.00    +0.151 HD
ATOM     37  H   UNL     1      13.133  12.108  15.962  0.00  0.00    +0.156 HD
BRANCH   8  18
ATOM     18  C   UNL     1      13.523  11.917  13.941  0.00  0.00    +0.035 A 
ATOM     21  C   UNL     1      12.358  12.178  13.217  0.00  0.00    +0.024 A 
ATOM     22  C   UNL     1      14.771  12.135  13.356  0.00  0.00    +0.024 A 
ATOM     28  C   UNL     1      12.443  12.657  11.910  0.00  0.00    +0.013 A 
ATOM     29  C   UNL     1      14.855  12.614  12.049  0.00  0.00    +0.013 A 
ATOM     30  C   UNL     1      13.691  12.874  11.326  0.00  0.00    +0.017 A 
BRANCH  30  34
ATOM      6  O   UNL     1      14.851  13.347   9.327  0.00  0.00    -0.292 OA
ATOM     34  C   UNL     1      13.778  13.374   9.962  0.00  0.00    +0.160 C 
ATOM     35  C   UNL     1      12.545  13.948   9.273  0.00  0.00    +0.091 C 
ENDBRANCH  30  34
ENDBRANCH   8  18
ENDBRANCH  12   7
BRANCH  13   3
ATOM      3  O   UNL     1      11.825   8.197  21.977  0.00  0.00    -0.442 OA
BRANCH   3  17
ATOM      5  O   UNL     1       9.828   9.034  22.716  0.00  0.00    -0.226 OA
ATOM      9  N   UNL     1      11.822  10.241  22.932  0.00  0.00    -0.251 N 
ATOM     17  C   UNL     1      11.037   9.165  22.566  0.00  0.00    +0.405 C 
ATOM     38  H   UNL     1      12.806  10.133  22.711  0.00  0.00    +0.158 HD
BRANCH   9  19
ATOM     19  C   UNL     1      11.418  11.440  23.562  0.00  0.00    +0.044 A 
ATOM     20  C   UNL     1      11.244  12.632  22.842  0.00  0.00    +0.003 A 
ATOM     23  C   UNL     1      11.196  11.400  24.940  0.00  0.00    +0.024 A 
ATOM     24  C   UNL     1      10.838  13.802  23.527  0.00  0.00    -0.016 A 
ATOM     25  C   UNL     1      11.463  12.689  21.456  0.00  0.00    +0.010 A 
ATOM     26  C   UNL     1      10.798  12.551  25.614  0.00  0.00    +0.002 A 
ATOM     27  C   UNL     1      10.619  13.745  24.914  0.00  0.00    +0.008 A 
ATOM     31  C   UNL     1      10.664  14.994  22.807  0.00  0.00    +0.008 A 
ATOM     32  C   UNL     1      11.285  13.884  20.756  0.00  0.00    +0.001 A 
ATOM     33  C   UNL     1      10.886  15.034  21.430  0.00  0.00    +0.001 A 
ENDBRANCH   9  19
ENDBRANCH   3  17
ENDBRANCH  13   3
TORSDOF 6
ENDMDL
MODEL 7
REMARK VINA RESULT:      -7.6     15.904     17.701
REMARK  Name = 11884002
REMARK  7 active torsions:
REMARK  status: ('A' for Active; 'I' for Inactive)
REMARK    1  A    between atoms: O_3  and  C_13
REMARK    2  A    between atoms: O_3  and  C_17
REMARK    3  A    between atoms: N_7  and  C_12
REMARK    4  A    between atoms: N_8  and  C_18
REMARK    5  A    between atoms: N_9  and  C_19
REMARK    6  A    between atoms: C_30  and  C_34
REMARK    7  A    between atoms: C_34  and  C_35
REMARK                            x       y       z     vdW  Elec       q    Type
REMARK                         _______ _______ _______ _____ _____    ______ ____
ROOT
ATOM      1  O   UNL     1      -9.669  -8.273  17.592  0.00  0.00    -0.368 OA
ATOM      2  O   UNL     1     -11.130 -10.555  16.156  0.00  0.00    -0.368 OA
ATOM     10  C   UNL     1     -11.481  -9.170  16.353  0.00  0.00    +0.173 C 
ATOM     11  C   UNL     1     -11.002  -8.789  17.740  0.00  0.00    +0.192 C 
ATOM     12  C   UNL     1     -10.666  -8.291  15.434  0.00  0.00    +0.131 C 
ATOM     13  C   UNL     1     -11.013 -10.113  18.464  0.00  0.00    +0.235 C 
ATOM     14  C   UNL     1      -9.358  -8.155  16.195  0.00  0.00    +0.185 C 
ATOM     15  C   UNL     1     -10.587 -11.075  17.378  0.00  0.00    +0.207 C 
ENDROOT
BRANCH  12   7
ATOM      4  O   UNL     1     -12.092  -7.416  13.108  0.00  0.00    -0.252 OA
ATOM      7  N   UNL     1     -11.297  -7.008  15.241  0.00  0.00    -0.292 N 
ATOM      8  N   UNL     1     -12.483  -5.359  14.167  0.00  0.00    -0.269 N 
ATOM     16  C   UNL     1     -11.978  -6.658  14.067  0.00  0.00    +0.304 C 
ATOM     36  H   UNL     1     -11.304  -6.351  16.015  0.00  0.00    +0.151 HD
ATOM     37  H   UNL     1     -12.297  -4.862  15.036  0.00  0.00    +0.156 HD
BRANCH   8  18
ATOM     18  C   UNL     1     -13.226  -4.640  13.202  0.00  0.00    +0.035 A 
ATOM     21  C   UNL     1     -14.616  -4.567  13.304  0.00  0.00    +0.024 A 
ATOM     22  C   UNL     1     -12.570  -4.006  12.147  0.00  0.00    +0.024 A 
ATOM     28  C   UNL     1     -15.348  -3.859  12.352  0.00  0.00    +0.013 A 
ATOM     29  C   UNL     1     -13.303  -3.298  11.194  0.00  0.00    +0.013 A 
ATOM     30  C   UNL     1     -14.692  -3.225  11.297  0.00  0.00    +0.017 A 
BRANCH  30  34
ATOM      6  O   UNL     1     -16.625  -2.113  10.528  0.00  0.00    -0.292 OA
ATOM     34  C   UNL     1     -15.457  -2.486  10.304  0.00  0.00    +0.160 C 
ATOM     35  C   UNL     1     -14.838  -2.150   8.951  0.00  0.00    +0.091 C 
ENDBRANCH  30  34
ENDBRANCH   8  18
ENDBRANCH  12   7
BRANCH  13   3
ATOM      3  O   UNL     1     -10.148 -10.153  19.577  0.00  0.00    -0.442 OA
BRANCH   3  17
ATOM      5  O   UNL     1      -9.127 -12.193  19.748  0.00  0.00    -0.226 OA
ATOM      9  N   UNL     1      -7.951 -10.280  19.086  0.00  0.00    -0.251 N 
ATOM     17  C   UNL     1      -9.060 -10.997  19.492  0.00  0.00    +0.405 C 
ATOM     38  H   UNL     1      -8.126  -9.294  18.928  0.00  0.00    +0.158 HD
BRANCH   9  19
ATOM     19  C   UNL     1      -6.636 -10.755  18.873  0.00  0.00    +0.044 A 
ATOM     20  C   UNL     1      -6.003 -10.644  17.626  0.00  0.00    +0.003 A 
ATOM     23  C   UNL     1      -5.983 -11.347  19.955  0.00  0.00    +0.024 A 
ATOM     24  C   UNL     1      -4.685 -11.138  17.472  0.00  0.00    -0.016 A 
ATOM     25  C   UNL     1      -6.646 -10.051  16.527  0.00  0.00    +0.010 A 
ATOM     26  C   UNL     1      -4.687 -11.834  19.804  0.00  0.00    +0.002 A 
ATOM     27  C   UNL     1      -4.042 -11.731  18.571  0.00  0.00    +0.008 A 
ATOM     31  C   UNL     1      -4.052 -11.027  16.224  0.00  0.00    +0.008 A 
ATOM     32  C   UNL     1      -6.000  -9.950  15.294  0.00  0.00    +0.001 A 
ATOM     33  C   UNL     1      -4.705 -10.436  15.143  0.00  0.00    +0.001 A 
ENDBRANCH   9  19
ENDBRANCH   3  17
ENDBRANCH  13   3
TORSDOF 6
ENDMDL
MODEL 8
REMARK VINA RESULT:      -7.5     28.829     34.097
REMARK  Name = 11884002
REMARK  7 active torsions:
REMARK  status: ('A' for Active; 'I' for Inactive)
REMARK    1  A    between atoms: O_3  and  C_13
REMARK    2  A    between atoms: O_3  and  C_17
REMARK    3  A    between atoms: N_7  and  C_12
REMARK    4  A    between atoms: N_8  and  C_18
REMARK    5  A    between atoms: N_9  and  C_19
REMARK    6  A    between atoms: C_30  and  C_34
REMARK    7  A    between atoms: C_34  and  C_35
REMARK                            x       y       z     vdW  Elec       q    Type
REMARK                         _______ _______ _______ _____ _____    ______ ____
ROOT
ATOM      1  O   UNL     1      15.010   9.183  18.747  0.00  0.00    -0.368 OA
ATOM      2  O   UNL     1      13.124   7.049  19.883  0.00  0.00    -0.368 OA
ATOM     10  C   UNL     1      14.391   6.940  19.202  0.00  0.00    +0.173 C 
ATOM     11  C   UNL     1      14.415   8.023  18.142  0.00  0.00    +0.192 C 
ATOM     12  C   UNL     1      15.517   7.321  20.135  0.00  0.00    +0.131 C 
ATOM     13  C   UNL     1      12.947   8.233  17.856  0.00  0.00    +0.235 C 
ATOM     14  C   UNL     1      15.506   8.837  20.049  0.00  0.00    +0.185 C 
ATOM     15  C   UNL     1      12.325   8.041  19.221  0.00  0.00    +0.207 C 
ENDROOT
BRANCH  12   7
ATOM      4  O   UNL     1      17.819   6.771  21.749  0.00  0.00    -0.252 OA
ATOM      7  N   UNL     1      16.775   6.778  19.685  0.00  0.00    -0.292 N 
ATOM      8  N   UNL     1      18.937   6.012  19.830  0.00  0.00    -0.269 N 
ATOM     16  C   UNL     1      17.856   6.538  20.544  0.00  0.00    +0.304 C 
ATOM     36  H   UNL     1      16.861   6.497  18.713  0.00  0.00    +0.151 HD
ATOM     37  H   UNL     1      18.803   5.882  18.829  0.00  0.00    +0.156 HD
BRANCH   8  18
ATOM     18  C   UNL     1      20.206   5.638  20.328  0.00  0.00    +0.035 A 
ATOM     21  C   UNL     1      20.488   4.294  20.578  0.00  0.00    +0.024 A 
ATOM     22  C   UNL     1      21.176   6.611  20.570  0.00  0.00    +0.024 A 
ATOM     28  C   UNL     1      21.740   3.925  21.070  0.00  0.00    +0.013 A 
ATOM     29  C   UNL     1      22.428   6.241  21.063  0.00  0.00    +0.013 A 
ATOM     30  C   UNL     1      22.709   4.898  21.313  0.00  0.00    +0.017 A 
BRANCH  30  34
ATOM      6  O   UNL     1      24.467   4.996  22.883  0.00  0.00    -0.292 OA
ATOM     34  C   UNL     1      24.015   4.512  21.826  0.00  0.00    +0.160 C 
ATOM     35  C   UNL     1      24.867   3.497  21.074  0.00  0.00    +0.091 C 
ENDBRANCH  30  34
ENDBRANCH   8  18
ENDBRANCH  12   7
BRANCH  13   3
ATOM      3  O   UNL     1      12.655   9.500  17.313  0.00  0.00    -0.442 OA
BRANCH   3  17
ATOM      5  O   UNL     1      12.818   8.792  15.144  0.00  0.00    -0.226 OA
ATOM      9  N   UNL     1      13.349  10.986  15.765  0.00  0.00    -0.251 N 
ATOM     17  C   UNL     1      12.936   9.684  15.974  0.00  0.00    +0.405 C 
ATOM     38  H   UNL     1      13.371  11.557  16.602  0.00  0.00    +0.158 HD
BRANCH   9  19
ATOM     19  C   UNL     1      13.733  11.592  14.546  0.00  0.00    +0.044 A 
ATOM     20  C   UNL     1      15.077  11.857  14.243  0.00  0.00    +0.003 A 
ATOM     23  C   UNL     1      12.720  11.924  13.645  0.00  0.00    +0.024 A 
ATOM     24  C   UNL     1      15.401  12.466  13.006  0.00  0.00    -0.016 A 
ATOM     25  C   UNL     1      16.109  11.529  15.138  0.00  0.00    +0.010 A 
ATOM     26  C   UNL     1      13.037  12.524  12.430  0.00  0.00    +0.002 A 
ATOM     27  C   UNL     1      14.369  12.794  12.112  0.00  0.00    +0.008 A 
ATOM     31  C   UNL     1      16.745  12.731  12.703  0.00  0.00    +0.008 A 
ATOM     32  C   UNL     1      17.440  11.800  14.818  0.00  0.00    +0.001 A 
ATOM     33  C   UNL     1      17.758  12.399  13.604  0.00  0.00    +0.001 A 
ENDBRANCH   9  19
ENDBRANCH   3  17
ENDBRANCH  13   3
TORSDOF 6
ENDMDL
MODEL 9
REMARK VINA RESULT:      -7.5      1.452      2.506
REMARK  Name = 11884002
REMARK  7 active torsions:
REMARK  status: ('A' for Active; 'I' for Inactive)
REMARK    1  A    between atoms: O_3  and  C_13
REMARK    2  A    between atoms: O_3  and  C_17
REMARK    3  A    between atoms: N_7  and  C_12
REMARK    4  A    between atoms: N_8  and  C_18
REMARK    5  A    between atoms: N_9  and  C_19
REMARK    6  A    between atoms: C_30  and  C_34
REMARK    7  A    between atoms: C_34  and  C_35
REMARK                            x       y       z     vdW  Elec       q    Type
REMARK                         _______ _______ _______ _____ _____    ______ ____
ROOT
ATOM      1  O   UNL     1     -16.120   3.611  25.319  0.00  0.00    -0.368 OA
ATOM      2  O   UNL     1     -18.947   4.124  24.248  0.00  0.00    -0.368 OA
ATOM     10  C   UNL     1     -17.791   4.982  24.346  0.00  0.00    +0.173 C 
ATOM     11  C   UNL     1     -17.087   4.624  25.639  0.00  0.00    +0.192 C 
ATOM     12  C   UNL     1     -16.787   4.625  23.275  0.00  0.00    +0.131 C 
ATOM     13  C   UNL     1     -18.212   4.077  26.484  0.00  0.00    +0.235 C 
ATOM     14  C   UNL     1     -16.064   3.441  23.894  0.00  0.00    +0.185 C 
ATOM     15  C   UNL     1     -19.062   3.362  25.458  0.00  0.00    +0.207 C 
ENDROOT
BRANCH  12   7
ATOM      4  O   UNL     1     -15.131   4.976  20.964  0.00  0.00    -0.252 OA
ATOM      7  N   UNL     1     -15.881   5.719  23.021  0.00  0.00    -0.292 N 
ATOM      8  N   UNL     1     -14.326   6.976  21.890  0.00  0.00    -0.269 N 
ATOM     16  C   UNL     1     -15.103   5.815  21.860  0.00  0.00    +0.304 C 
ATOM     36  H   UNL     1     -15.853   6.487  23.685  0.00  0.00    +0.151 HD
ATOM     37  H   UNL     1     -14.421   7.568  22.713  0.00  0.00    +0.156 HD
BRANCH   8  18
ATOM     18  C   UNL     1     -13.413   7.435  20.914  0.00  0.00    +0.035 A 
ATOM     21  C   UNL     1     -13.868   8.198  19.837  0.00  0.00    +0.024 A 
ATOM     22  C   UNL     1     -12.057   7.124  21.024  0.00  0.00    +0.024 A 
ATOM     28  C   UNL     1     -12.967   8.649  18.873  0.00  0.00    +0.013 A 
ATOM     29  C   UNL     1     -11.157   7.576  20.059  0.00  0.00    +0.013 A 
ATOM     30  C   UNL     1     -11.612   8.338  18.984  0.00  0.00    +0.017 A 
BRANCH  30  34
ATOM      6  O   UNL     1      -9.896   9.758  18.206  0.00  0.00    -0.292 OA
ATOM     34  C   UNL     1     -10.673   8.810  17.977  0.00  0.00    +0.160 C 
ATOM     35  C   UNL     1     -10.620   8.147  16.605  0.00  0.00    +0.091 C 
ENDBRANCH  30  34
ENDBRANCH   8  18
ENDBRANCH  12   7
BRANCH  13   3
ATOM      3  O   UNL     1     -17.778   3.214  27.510  0.00  0.00    -0.442 OA
BRANCH   3  17
ATOM      5  O   UNL     1     -18.770   3.995  29.417  0.00  0.00    -0.226 OA
ATOM      9  N   UNL     1     -16.442   3.878  29.201  0.00  0.00    -0.251 N 
ATOM     17  C   UNL     1     -17.752   3.729  28.789  0.00  0.00    +0.405 C 
ATOM     38  H   UNL     1     -15.754   3.592  28.514  0.00  0.00    +0.158 HD
BRANCH   9  19
ATOM     19  C   UNL     1     -15.968   4.371  30.439  0.00  0.00    +0.044 A 
ATOM     20  C   UNL     1     -15.462   3.517  31.430  0.00  0.00    +0.003 A 
ATOM     23  C   UNL     1     -16.023   5.750  30.646  0.00  0.00    +0.024 A 
ATOM     24  C   UNL     1     -15.002   4.068  32.650  0.00  0.00    -0.016 A 
ATOM     25  C   UNL     1     -15.399   2.127  31.238  0.00  0.00    +0.010 A 
ATOM     26  C   UNL     1     -15.572   6.293  31.845  0.00  0.00    +0.002 A 
ATOM     27  C   UNL     1     -15.064   5.458  32.842  0.00  0.00    +0.008 A 
ATOM     31  C   UNL     1     -14.495   3.214  33.642  0.00  0.00    +0.008 A 
ATOM     32  C   UNL     1     -14.892   1.293  32.236  0.00  0.00    +0.001 A 
ATOM     33  C   UNL     1     -14.440   1.835  33.435  0.00  0.00    +0.001 A 
ENDBRANCH   9  19
ENDBRANCH   3  17
ENDBRANCH  13   3
TORSDOF 6
ENDMDL
MODEL 10
REMARK VINA RESULT:      -7.5      2.129     12.009
REMARK  Name = 11884002
REMARK  7 active torsions:
REMARK  status: ('A' for Active; 'I' for Inactive)
REMARK    1  A    between atoms: O_3  and  C_13
REMARK    2  A    between atoms: O_3  and  C_17
REMARK    3  A    between atoms: N_7  and  C_12
REMARK    4  A    between atoms: N_8  and  C_18
REMARK    5  A    between atoms: N_9  and  C_19
REMARK    6  A    between atoms: C_30  and  C_34
REMARK    7  A    between atoms: C_34  and  C_35
REMARK                            x       y       z     vdW  Elec       q    Type
REMARK                         _______ _______ _______ _____ _____    ______ ____
ROOT
ATOM      1  O   UNL     1     -17.160   7.061  22.817  0.00  0.00    -0.368 OA
ATOM      2  O   UNL     1     -15.046   5.189  21.624  0.00  0.00    -0.368 OA
ATOM     10  C   UNL     1     -15.308   5.590  22.984  0.00  0.00    +0.173 C 
ATOM     11  C   UNL     1     -15.728   7.046  22.939  0.00  0.00    +0.192 C 
ATOM     12  C   UNL     1     -16.531   4.876  23.510  0.00  0.00    +0.131 C 
ATOM     13  C   UNL     1     -15.054   7.542  21.682  0.00  0.00    +0.235 C 
ATOM     14  C   UNL     1     -17.663   5.723  22.953  0.00  0.00    +0.185 C 
ATOM     15  C   UNL     1     -15.152   6.339  20.772  0.00  0.00    +0.207 C 
ENDROOT
BRANCH  12   7
ATOM      4  O   UNL     1     -15.734   2.710  25.208  0.00  0.00    -0.252 OA
ATOM      7  N   UNL     1     -16.548   4.860  24.952  0.00  0.00    -0.292 N 
ATOM      8  N   UNL     1     -16.265   4.028  27.075  0.00  0.00    -0.269 N 
ATOM     16  C   UNL     1     -16.139   3.755  25.710  0.00  0.00    +0.304 C 
ATOM     36  H   UNL     1     -16.807   5.710  25.442  0.00  0.00    +0.151 HD
ATOM     37  H   UNL     1     -16.622   4.948  27.326  0.00  0.00    +0.156 HD
BRANCH   8  18
ATOM     18  C   UNL     1     -15.959   3.178  28.162  0.00  0.00    +0.035 A 
ATOM     21  C   UNL     1     -16.336   1.834  28.125  0.00  0.00    +0.024 A 
ATOM     22  C   UNL     1     -15.281   3.681  29.273  0.00  0.00    +0.024 A 
ATOM     28  C   UNL     1     -16.034   0.996  29.198  0.00  0.00    +0.013 A 
ATOM     29  C   UNL     1     -14.980   2.842  30.346  0.00  0.00    +0.013 A 
ATOM     30  C   UNL     1     -15.357   1.500  30.308  0.00  0.00    +0.017 A 
BRANCH  30  34
ATOM      6  O   UNL     1     -15.063  -0.617  31.307  0.00  0.00    -0.292 OA
ATOM     34  C   UNL     1     -15.043   0.624  31.427  0.00  0.00    +0.160 C 
ATOM     35  C   UNL     1     -14.679   1.213  32.786  0.00  0.00    +0.091 C 
ENDBRANCH  30  34
ENDBRANCH   8  18
ENDBRANCH  12   7
BRANCH  13   3
ATOM      3  O   UNL     1     -15.670   8.681  21.125  0.00  0.00    -0.442 OA
BRANCH   3  17
ATOM      5  O   UNL     1     -15.516   9.356  18.945  0.00  0.00    -0.226 OA
ATOM      9  N   UNL     1     -13.795   9.756  20.481  0.00  0.00    -0.251 N 
ATOM     17  C   UNL     1     -15.024   9.283  20.064  0.00  0.00    +0.405 C 
ATOM     38  H   UNL     1     -13.591   9.584  21.459  0.00  0.00    +0.158 HD
BRANCH   9  19
ATOM     19  C   UNL     1     -12.818  10.434  19.716  0.00  0.00    +0.044 A 
ATOM     20  C   UNL     1     -11.949   9.750  18.852  0.00  0.00    +0.003 A 
ATOM     23  C   UNL     1     -12.743  11.821  19.851  0.00  0.00    +0.024 A 
ATOM     24  C   UNL     1     -10.990  10.482  18.111  0.00  0.00    -0.016 A 
ATOM     25  C   UNL     1     -12.010   8.354  18.704  0.00  0.00    +0.010 A 
ATOM     26  C   UNL     1     -11.801  12.542  19.124  0.00  0.00    +0.002 A 
ATOM     27  C   UNL     1     -10.929  11.878  18.259  0.00  0.00    +0.008 A 
ATOM     31  C   UNL     1     -10.121   9.798  17.247  0.00  0.00    +0.008 A 
ATOM     32  C   UNL     1     -11.138   7.691  17.840  0.00  0.00    +0.001 A 
ATOM     33  C   UNL     1     -10.196   8.411  17.112  0.00  0.00    +0.001 A 
ENDBRANCH   9  19
ENDBRANCH   3  17
ENDBRANCH  13   3
TORSDOF 6
ENDMDL
