MODEL 1
REMARK VINA RESULT:      -7.7      0.000      0.000
REMARK  Name = 7682261
REMARK  5 active torsions:
REMARK  status: ('A' for Active; 'I' for Inactive)
REMARK    1  A    between atoms: N_4  and  C_14
REMARK    2  A    between atoms: N_6  and  C_28
REMARK    3  A    between atoms: C_14  and  C_20
REMARK    4  A    between atoms: C_15  and  C_19
REMARK    5  A    between atoms: C_29  and  C_30
REMARK                            x       y       z     vdW  Elec       q    Type
REMARK                         _______ _______ _______ _____ _____    ______ ____
ROOT
ATOM      2  O   UNL     1      11.346   9.200  17.064  0.00  0.00    -0.268 OA
ATOM      4  N   UNL     1      12.168  10.154  21.889  0.00  0.00    -0.297 NA
ATOM      5  N   UNL     1      12.248   8.569  19.132  0.00  0.00    -0.311 N 
ATOM      7  C   UNL     1      10.767   8.202  21.195  0.00  0.00    +0.024 C 
ATOM      8  C   UNL     1      13.193   7.931  21.371  0.00  0.00    +0.051 C 
ATOM      9  C   UNL     1      11.858   7.232  21.616  0.00  0.00    +0.017 C 
ATOM     10  C   UNL     1      10.859   9.504  22.016  0.00  0.00    +0.090 C 
ATOM     11  C   UNL     1      13.259   9.226  22.217  0.00  0.00    +0.094 C 
ATOM     12  C   UNL     1      10.893   8.450  19.690  0.00  0.00    +0.130 C 
ATOM     13  C   UNL     1      13.393   8.242  19.885  0.00  0.00    +0.034 A 
ATOM     15  C   UNL     1      14.614   8.231  19.290  0.00  0.00    +0.002 A 
ATOM     16  C   UNL     1      12.314   8.920  17.772  0.00  0.00    +0.252 A 
ATOM     17  C   UNL     1      14.722   8.592  17.888  0.00  0.00    +0.015 A 
ATOM     18  C   UNL     1      13.661   8.933  17.157  0.00  0.00    +0.071 A 
ENDROOT
BRANCH  15  19
ATOM     19  C   UNL     1      15.840   7.874  20.035  0.00  0.00    -0.016 A 
ATOM     21  C   UNL     1      16.572   8.868  20.677  0.00  0.00    +0.010 A 
ATOM     22  C   UNL     1      16.255   6.547  20.088  0.00  0.00    +0.010 A 
ATOM     25  C   UNL     1      17.729   8.533  21.380  0.00  0.00    +0.024 A 
ATOM     26  C   UNL     1      17.413   6.211  20.791  0.00  0.00    +0.024 A 
ATOM     28  C   UNL     1      18.149   7.204  21.437  0.00  0.00    +0.033 A 
BRANCH  28   6
ATOM      3  O   UNL     1      20.949   6.679  20.460  0.00  0.00    -0.276 OA
ATOM      6  N   UNL     1      19.305   6.867  22.141  0.00  0.00    -0.286 N 
ATOM     29  C   UNL     1      20.590   6.630  21.633  0.00  0.00    +0.214 C 
ATOM     30  C   UNL     1      21.570   6.292  22.727  0.00  0.00    +0.109 C 
ATOM     31  H   UNL     1      19.192   6.784  23.150  0.00  0.00    +0.155 HD
ENDBRANCH  28   6
ENDBRANCH  15  19
BRANCH   4  14
ATOM     14  C   UNL     1      12.237  11.356  22.716  0.00  0.00    +0.126 C 
BRANCH  14  20
ATOM      1  S   UNL     1      12.385  13.066  20.555  0.00  0.00    -0.100 S 
ATOM     20  C   UNL     1      11.670  12.556  22.012  0.00  0.00    +0.004 A 
ATOM     23  C   UNL     1      10.613  13.327  22.396  0.00  0.00    +0.012 A 
ATOM     24  C   UNL     1      10.374  14.379  21.466  0.00  0.00    +0.008 A 
ATOM     27  C   UNL     1      11.266  14.354  20.416  0.00  0.00    +0.045 A 
ENDBRANCH  14  20
ENDBRANCH   4  14
TORSDOF 4
ENDMDL
MODEL 2
REMARK VINA RESULT:      -6.8      3.153      6.488
REMARK  Name = 7682261
REMARK  5 active torsions:
REMARK  status: ('A' for Active; 'I' for Inactive)
REMARK    1  A    between atoms: N_4  and  C_14
REMARK    2  A    between atoms: N_6  and  C_28
REMARK    3  A    between atoms: C_14  and  C_20
REMARK    4  A    between atoms: C_15  and  C_19
REMARK    5  A    between atoms: C_29  and  C_30
REMARK                            x       y       z     vdW  Elec       q    Type
REMARK                         _______ _______ _______ _____ _____    ______ ____
ROOT
ATOM      2  O   UNL     1      16.167   5.858  18.835  0.00  0.00    -0.268 OA
ATOM      4  N   UNL     1      14.748  10.410  17.373  0.00  0.00    -0.297 NA
ATOM      5  N   UNL     1      14.596   7.596  18.849  0.00  0.00    -0.311 N 
ATOM      7  C   UNL     1      13.440   8.388  16.700  0.00  0.00    +0.024 C 
ATOM      8  C   UNL     1      12.937   9.483  18.829  0.00  0.00    +0.051 C 
ATOM      9  C   UNL     1      12.306   8.775  17.634  0.00  0.00    +0.017 C 
ATOM     10  C   UNL     1      14.213   9.642  16.244  0.00  0.00    +0.090 C 
ATOM     11  C   UNL     1      13.694  10.742  18.341  0.00  0.00    +0.094 C 
ATOM     12  C   UNL     1      14.338   7.377  17.418  0.00  0.00    +0.130 C 
ATOM     13  C   UNL     1      13.876   8.548  19.598  0.00  0.00    +0.034 A 
ATOM     15  C   UNL     1      14.046   8.621  20.943  0.00  0.00    +0.002 A 
ATOM     16  C   UNL     1      15.523   6.718  19.438  0.00  0.00    +0.252 A 
ATOM     17  C   UNL     1      14.998   7.733  21.585  0.00  0.00    +0.015 A 
ATOM     18  C   UNL     1      15.714   6.841  20.901  0.00  0.00    +0.071 A 
ENDROOT
BRANCH  15  19
ATOM     19  C   UNL     1      13.297   9.590  21.772  0.00  0.00    -0.016 A 
ATOM     21  C   UNL     1      12.016   9.275  22.214  0.00  0.00    +0.010 A 
ATOM     22  C   UNL     1      13.879  10.810  22.103  0.00  0.00    +0.010 A 
ATOM     25  C   UNL     1      11.309  10.189  22.995  0.00  0.00    +0.024 A 
ATOM     26  C   UNL     1      13.172  11.725  22.884  0.00  0.00    +0.024 A 
ATOM     28  C   UNL     1      11.887  11.414  23.330  0.00  0.00    +0.033 A 
BRANCH  28   6
ATOM      3  O   UNL     1      12.510  12.549  26.049  0.00  0.00    -0.276 OA
ATOM      6  N   UNL     1      11.181  12.328  24.113  0.00  0.00    -0.286 N 
ATOM     29  C   UNL     1      11.518  12.824  25.380  0.00  0.00    +0.214 C 
ATOM     30  C   UNL     1      10.488  13.799  25.891  0.00  0.00    +0.109 C 
ATOM     31  H   UNL     1      10.315  12.673  23.704  0.00  0.00    +0.155 HD
ENDBRANCH  28   6
ENDBRANCH  15  19
BRANCH   4  14
ATOM     14  C   UNL     1      15.432  11.615  16.910  0.00  0.00    +0.126 C 
BRANCH  14  20
ATOM      1  S   UNL     1      15.412  14.112  18.086  0.00  0.00    -0.100 S 
ATOM     20  C   UNL     1      15.886  12.477  18.052  0.00  0.00    +0.004 A 
ATOM     23  C   UNL     1      16.661  12.116  19.114  0.00  0.00    +0.012 A 
ATOM     24  C   UNL     1      16.880  13.215  19.994  0.00  0.00    +0.008 A 
ATOM     27  C   UNL     1      16.256  14.362  19.554  0.00  0.00    +0.045 A 
ENDBRANCH  14  20
ENDBRANCH   4  14
TORSDOF 4
ENDMDL
MODEL 3
REMARK VINA RESULT:      -6.6      3.446      6.856
REMARK  Name = 7682261
REMARK  5 active torsions:
REMARK  status: ('A' for Active; 'I' for Inactive)
REMARK    1  A    between atoms: N_4  and  C_14
REMARK    2  A    between atoms: N_6  and  C_28
REMARK    3  A    between atoms: C_14  and  C_20
REMARK    4  A    between atoms: C_15  and  C_19
REMARK    5  A    between atoms: C_29  and  C_30
REMARK                            x       y       z     vdW  Elec       q    Type
REMARK                         _______ _______ _______ _____ _____    ______ ____
ROOT
ATOM      2  O   UNL     1      16.131   5.863  18.749  0.00  0.00    -0.268 OA
ATOM      4  N   UNL     1      14.781  10.448  17.332  0.00  0.00    -0.297 NA
ATOM      5  N   UNL     1      14.583   7.620  18.773  0.00  0.00    -0.311 N 
ATOM      7  C   UNL     1      13.451   8.452  16.627  0.00  0.00    +0.024 C 
ATOM      8  C   UNL     1      12.949   9.529  18.766  0.00  0.00    +0.051 C 
ATOM      9  C   UNL     1      12.316   8.843  17.558  0.00  0.00    +0.017 C 
ATOM     10  C   UNL     1      14.242   9.701  16.190  0.00  0.00    +0.090 C 
ATOM     11  C   UNL     1      13.725  10.784  18.296  0.00  0.00    +0.094 C 
ATOM     12  C   UNL     1      14.331   7.421  17.339  0.00  0.00    +0.130 C 
ATOM     13  C   UNL     1      13.871   8.573  19.529  0.00  0.00    +0.034 A 
ATOM     15  C   UNL     1      14.033   8.628  20.876  0.00  0.00    +0.002 A 
ATOM     16  C   UNL     1      15.495   6.723  19.357  0.00  0.00    +0.252 A 
ATOM     17  C   UNL     1      14.970   7.720  21.514  0.00  0.00    +0.015 A 
ATOM     18  C   UNL     1      15.678   6.827  20.823  0.00  0.00    +0.071 A 
ENDROOT
BRANCH  15  19
ATOM     19  C   UNL     1      13.292   9.597  21.711  0.00  0.00    -0.016 A 
ATOM     21  C   UNL     1      13.869  10.825  22.020  0.00  0.00    +0.010 A 
ATOM     22  C   UNL     1      12.023   9.274  22.183  0.00  0.00    +0.010 A 
ATOM     25  C   UNL     1      13.171  11.740  22.808  0.00  0.00    +0.024 A 
ATOM     26  C   UNL     1      11.325  10.189  22.972  0.00  0.00    +0.024 A 
ATOM     28  C   UNL     1      11.898  11.422  23.284  0.00  0.00    +0.033 A 
BRANCH  28   6
ATOM      3  O   UNL     1      12.496  12.494  26.033  0.00  0.00    -0.276 OA
ATOM      6  N   UNL     1      11.198  12.337  24.070  0.00  0.00    -0.286 N 
ATOM     29  C   UNL     1      11.523  12.802  25.352  0.00  0.00    +0.214 C 
ATOM     30  C   UNL     1      10.505  13.790  25.862  0.00  0.00    +0.109 C 
ATOM     31  H   UNL     1      10.347  12.707  23.653  0.00  0.00    +0.155 HD
ENDBRANCH  28   6
ENDBRANCH  15  19
BRANCH   4  14
ATOM     14  C   UNL     1      15.482  11.650  16.886  0.00  0.00    +0.126 C 
BRANCH  14  20
ATOM      1  S   UNL     1      16.278  11.552  14.245  0.00  0.00    -0.100 S 
ATOM     20  C   UNL     1      15.166  11.988  15.457  0.00  0.00    +0.004 A 
ATOM     23  C   UNL     1      14.060  12.624  14.975  0.00  0.00    +0.012 A 
ATOM     24  C   UNL     1      14.120  12.764  13.558  0.00  0.00    +0.008 A 
ATOM     27  C   UNL     1      15.273  12.224  13.033  0.00  0.00    +0.045 A 
ENDBRANCH  14  20
ENDBRANCH   4  14
TORSDOF 4
ENDMDL
MODEL 4
REMARK VINA RESULT:      -6.5      4.162      7.310
REMARK  Name = 7682261
REMARK  5 active torsions:
REMARK  status: ('A' for Active; 'I' for Inactive)
REMARK    1  A    between atoms: N_4  and  C_14
REMARK    2  A    between atoms: N_6  and  C_28
REMARK    3  A    between atoms: C_14  and  C_20
REMARK    4  A    between atoms: C_15  and  C_19
REMARK    5  A    between atoms: C_29  and  C_30
REMARK                            x       y       z     vdW  Elec       q    Type
REMARK                         _______ _______ _______ _____ _____    ______ ____
ROOT
ATOM      2  O   UNL     1      12.479  11.444  21.476  0.00  0.00    -0.268 OA
ATOM      4  N   UNL     1      14.402   7.609  18.936  0.00  0.00    -0.297 NA
ATOM      5  N   UNL     1      12.808  10.313  19.452  0.00  0.00    -0.311 N 
ATOM      7  C   UNL     1      11.926   7.933  19.078  0.00  0.00    +0.024 C 
ATOM      8  C   UNL     1      13.180   9.061  17.305  0.00  0.00    +0.051 C 
ATOM      9  C   UNL     1      11.868   8.348  17.618  0.00  0.00    +0.017 C 
ATOM     10  C   UNL     1      13.127   6.996  19.322  0.00  0.00    +0.090 C 
ATOM     11  C   UNL     1      14.363   8.092  17.548  0.00  0.00    +0.094 C 
ATOM     12  C   UNL     1      11.985   9.196  19.940  0.00  0.00    +0.130 C 
ATOM     13  C   UNL     1      13.337  10.332  18.146  0.00  0.00    +0.034 A 
ATOM     15  C   UNL     1      13.970  11.443  17.688  0.00  0.00    +0.002 A 
ATOM     16  C   UNL     1      12.934  11.402  20.333  0.00  0.00    +0.252 A 
ATOM     17  C   UNL     1      14.124  12.585  18.571  0.00  0.00    +0.015 A 
ATOM     18  C   UNL     1      13.659  12.587  19.820  0.00  0.00    +0.071 A 
ENDROOT
BRANCH  15  19
ATOM     19  C   UNL     1      14.523  11.516  16.319  0.00  0.00    -0.016 A 
ATOM     21  C   UNL     1      13.668  11.724  15.240  0.00  0.00    +0.010 A 
ATOM     22  C   UNL     1      15.892  11.374  16.118  0.00  0.00    +0.010 A 
ATOM     25  C   UNL     1      14.189  11.792  13.948  0.00  0.00    +0.024 A 
ATOM     26  C   UNL     1      16.413  11.442  14.825  0.00  0.00    +0.024 A 
ATOM     28  C   UNL     1      15.561  11.652  13.740  0.00  0.00    +0.033 A 
BRANCH  28   6
ATOM      3  O   UNL     1      16.779  13.966  12.247  0.00  0.00    -0.276 OA
ATOM      6  N   UNL     1      16.083  11.722  12.448  0.00  0.00    -0.286 N 
ATOM     29  C   UNL     1      16.639  12.832  11.798  0.00  0.00    +0.214 C 
ATOM     30  C   UNL     1      17.090  12.494  10.400  0.00  0.00    +0.109 C 
ATOM     31  H   UNL     1      16.050  10.852  11.919  0.00  0.00    +0.155 HD
ENDBRANCH  28   6
ENDBRANCH  15  19
BRANCH   4  14
ATOM     14  C   UNL     1      15.511   6.679  19.134  0.00  0.00    +0.126 C 
BRANCH  14  20
ATOM      1  S   UNL     1      18.022   6.392  20.242  0.00  0.00    -0.100 S 
ATOM     20  C   UNL     1      16.565   7.248  20.040  0.00  0.00    +0.004 A 
ATOM     23  C   UNL     1      16.515   8.408  20.755  0.00  0.00    +0.012 A 
ATOM     24  C   UNL     1      17.712   8.610  21.501  0.00  0.00    +0.008 A 
ATOM     27  C   UNL     1      18.617   7.588  21.313  0.00  0.00    +0.045 A 
ENDBRANCH  14  20
ENDBRANCH   4  14
TORSDOF 4
ENDMDL
MODEL 5
REMARK VINA RESULT:      -6.4     26.770     29.780
REMARK  Name = 7682261
REMARK  5 active torsions:
REMARK  status: ('A' for Active; 'I' for Inactive)
REMARK    1  A    between atoms: N_4  and  C_14
REMARK    2  A    between atoms: N_6  and  C_28
REMARK    3  A    between atoms: C_14  and  C_20
REMARK    4  A    between atoms: C_15  and  C_19
REMARK    5  A    between atoms: C_29  and  C_30
REMARK                            x       y       z     vdW  Elec       q    Type
REMARK                         _______ _______ _______ _____ _____    ______ ____
ROOT
ATOM      2  O   UNL     1      -0.785 -11.960  14.285  0.00  0.00    -0.268 OA
ATOM      4  N   UNL     1      -5.461 -12.040  12.558  0.00  0.00    -0.297 NA
ATOM      5  N   UNL     1      -3.053 -12.454  14.594  0.00  0.00    -0.311 N 
ATOM      7  C   UNL     1      -4.274 -14.166  13.125  0.00  0.00    +0.024 C 
ATOM      8  C   UNL     1      -5.495 -12.973  14.878  0.00  0.00    +0.051 C 
ATOM      9  C   UNL     1      -5.152 -14.363  14.349  0.00  0.00    +0.017 C 
ATOM     10  C   UNL     1      -5.022 -13.345  12.055  0.00  0.00    +0.090 C 
ATOM     11  C   UNL     1      -6.254 -12.180  13.787  0.00  0.00    +0.094 C 
ATOM     12  C   UNL     1      -2.968 -13.501  13.566  0.00  0.00    +0.130 C 
ATOM     13  C   UNL     1      -4.237 -12.220  15.322  0.00  0.00    +0.034 A 
ATOM     15  C   UNL     1      -4.233 -11.342  16.358  0.00  0.00    +0.002 A 
ATOM     16  C   UNL     1      -1.849 -11.784  14.877  0.00  0.00    +0.252 A 
ATOM     17  C   UNL     1      -3.010 -10.629  16.677  0.00  0.00    +0.015 A 
ATOM     18  C   UNL     1      -1.882 -10.808  15.990  0.00  0.00    +0.071 A 
ENDROOT
BRANCH  15  19
ATOM     19  C   UNL     1      -5.446 -11.081  17.162  0.00  0.00    -0.016 A 
ATOM     21  C   UNL     1      -5.740 -11.895  18.253  0.00  0.00    +0.010 A 
ATOM     22  C   UNL     1      -6.285 -10.024  16.823  0.00  0.00    +0.010 A 
ATOM     25  C   UNL     1      -6.884 -11.649  19.011  0.00  0.00    +0.024 A 
ATOM     26  C   UNL     1      -7.430  -9.779  17.583  0.00  0.00    +0.024 A 
ATOM     28  C   UNL     1      -7.729 -10.591  18.677  0.00  0.00    +0.033 A 
BRANCH  28   6
ATOM      3  O   UNL     1     -10.642 -10.744  17.929  0.00  0.00    -0.276 OA
ATOM      6  N   UNL     1      -8.873 -10.344  19.436  0.00  0.00    -0.286 N 
ATOM     29  C   UNL     1     -10.213 -10.428  19.034  0.00  0.00    +0.214 C 
ATOM     30  C   UNL     1     -11.156 -10.080  20.158  0.00  0.00    +0.109 C 
ATOM     31  H   UNL     1      -8.702 -10.067  20.401  0.00  0.00    +0.155 HD
ENDBRANCH  28   6
ENDBRANCH  15  19
BRANCH   4  14
ATOM     14  C   UNL     1      -6.207 -11.309  11.535  0.00  0.00    +0.126 C 
BRANCH  14  20
ATOM      1  S   UNL     1      -5.802  -9.983   9.149  0.00  0.00    -0.100 S 
ATOM     20  C   UNL     1      -5.316 -10.414  10.722  0.00  0.00    +0.004 A 
ATOM     23  C   UNL     1      -4.117  -9.875  11.086  0.00  0.00    +0.012 A 
ATOM     24  C   UNL     1      -3.569  -9.077  10.041  0.00  0.00    +0.008 A 
ATOM     27  C   UNL     1      -4.383  -9.049   8.930  0.00  0.00    +0.045 A 
ENDBRANCH  14  20
ENDBRANCH   4  14
TORSDOF 4
ENDMDL
MODEL 6
REMARK VINA RESULT:      -6.3     15.514     18.951
REMARK  Name = 7682261
REMARK  5 active torsions:
REMARK  status: ('A' for Active; 'I' for Inactive)
REMARK    1  A    between atoms: N_4  and  C_14
REMARK    2  A    between atoms: N_6  and  C_28
REMARK    3  A    between atoms: C_14  and  C_20
REMARK    4  A    between atoms: C_15  and  C_19
REMARK    5  A    between atoms: C_29  and  C_30
REMARK                            x       y       z     vdW  Elec       q    Type
REMARK                         _______ _______ _______ _____ _____    ______ ____
ROOT
ATOM      2  O   UNL     1      10.123   5.917   7.647  0.00  0.00    -0.268 OA
ATOM      4  N   UNL     1      11.060   9.201   4.014  0.00  0.00    -0.297 NA
ATOM      5  N   UNL     1      11.274   6.509   5.695  0.00  0.00    -0.311 N 
ATOM      7  C   UNL     1      12.854   8.529   5.620  0.00  0.00    +0.024 C 
ATOM      8  C   UNL     1      12.490   7.190   3.605  0.00  0.00    +0.051 C 
ATOM      9  C   UNL     1      13.567   7.738   4.537  0.00  0.00    +0.017 C 
ATOM     10  C   UNL     1      12.038   9.679   4.996  0.00  0.00    +0.090 C 
ATOM     11  C   UNL     1      11.698   8.367   2.986  0.00  0.00    +0.094 C 
ATOM     12  C   UNL     1      11.983   7.566   6.431  0.00  0.00    +0.130 C 
ATOM     13  C   UNL     1      11.551   6.231   4.342  0.00  0.00    +0.034 A 
ATOM     15  C   UNL     1      10.977   5.156   3.741  0.00  0.00    +0.002 A 
ATOM     16  C   UNL     1      10.389   5.728   6.460  0.00  0.00    +0.252 A 
ATOM     17  C   UNL     1      10.055   4.330   4.498  0.00  0.00    +0.015 A 
ATOM     18  C   UNL     1       9.752   4.584   5.770  0.00  0.00    +0.071 A 
ENDROOT
BRANCH  15  19
ATOM     19  C   UNL     1      11.255   4.814   2.329  0.00  0.00    -0.016 A 
ATOM     21  C   UNL     1      12.348   4.012   2.016  0.00  0.00    +0.010 A 
ATOM     22  C   UNL     1      10.422   5.296   1.325  0.00  0.00    +0.010 A 
ATOM     25  C   UNL     1      12.611   3.689   0.685  0.00  0.00    +0.024 A 
ATOM     26  C   UNL     1      10.685   4.973  -0.007  0.00  0.00    +0.024 A 
ATOM     28  C   UNL     1      11.779   4.169  -0.327  0.00  0.00    +0.033 A 
BRANCH  28   6
ATOM      3  O   UNL     1      10.304   2.351  -2.221  0.00  0.00    -0.276 OA
ATOM      6  N   UNL     1      12.040   3.845  -1.659  0.00  0.00    -0.286 N 
ATOM     29  C   UNL     1      11.317   2.985  -2.497  0.00  0.00    +0.214 C 
ATOM     30  C   UNL     1      11.929   2.903  -3.873  0.00  0.00    +0.109 C 
ATOM     31  H   UNL     1      12.860   4.293  -2.062  0.00  0.00    +0.155 HD
ENDBRANCH  28   6
ENDBRANCH  15  19
BRANCH   4  14
ATOM     14  C   UNL     1      10.338  10.318   3.408  0.00  0.00    +0.126 C 
BRANCH  14  20
ATOM      1  S   UNL     1       8.093  11.252   4.712  0.00  0.00    -0.100 S 
ATOM     20  C   UNL     1       8.855  10.204   3.609  0.00  0.00    +0.004 A 
ATOM     23  C   UNL     1       7.994   9.337   3.002  0.00  0.00    +0.012 A 
ATOM     24  C   UNL     1       6.657   9.533   3.454  0.00  0.00    +0.008 A 
ATOM     27  C   UNL     1       6.569  10.544   4.385  0.00  0.00    +0.045 A 
ENDBRANCH  14  20
ENDBRANCH   4  14
TORSDOF 4
ENDMDL
MODEL 7
REMARK VINA RESULT:      -6.3     16.376     20.157
REMARK  Name = 7682261
REMARK  5 active torsions:
REMARK  status: ('A' for Active; 'I' for Inactive)
REMARK    1  A    between atoms: N_4  and  C_14
REMARK    2  A    between atoms: N_6  and  C_28
REMARK    3  A    between atoms: C_14  and  C_20
REMARK    4  A    between atoms: C_15  and  C_19
REMARK    5  A    between atoms: C_29  and  C_30
REMARK                            x       y       z     vdW  Elec       q    Type
REMARK                         _______ _______ _______ _____ _____    ______ ____
ROOT
ATOM      2  O   UNL     1      11.920   9.134  -1.042  0.00  0.00    -0.268 OA
ATOM      4  N   UNL     1      13.211   4.488   0.227  0.00  0.00    -0.297 NA
ATOM      5  N   UNL     1      12.649   7.600   0.570  0.00  0.00    -0.311 N 
ATOM      7  C   UNL     1      14.877   6.350   0.333  0.00  0.00    +0.024 C 
ATOM      8  C   UNL     1      13.437   5.921   2.265  0.00  0.00    +0.051 C 
ATOM      9  C   UNL     1      14.850   6.325   1.852  0.00  0.00    +0.017 C 
ATOM     10  C   UNL     1      14.521   4.960  -0.232  0.00  0.00    +0.090 C 
ATOM     11  C   UNL     1      13.116   4.519   1.693  0.00  0.00    +0.094 C 
ATOM     12  C   UNL     1      13.920   7.441  -0.152  0.00  0.00    +0.130 C 
ATOM     13  C   UNL     1      12.404   6.950   1.796  0.00  0.00    +0.034 A 
ATOM     15  C   UNL     1      11.278   7.233   2.500  0.00  0.00    +0.002 A 
ATOM     16  C   UNL     1      11.749   8.527   0.015  0.00  0.00    +0.252 A 
ATOM     17  C   UNL     1      10.323   8.181   1.956  0.00  0.00    +0.015 A 
ATOM     18  C   UNL     1      10.513   8.792   0.787  0.00  0.00    +0.071 A 
ENDROOT
BRANCH  15  19
ATOM     19  C   UNL     1      10.989   6.591   3.800  0.00  0.00    -0.016 A 
ATOM     21  C   UNL     1      10.212   5.437   3.843  0.00  0.00    +0.010 A 
ATOM     22  C   UNL     1      11.496   7.144   4.972  0.00  0.00    +0.010 A 
ATOM     25  C   UNL     1       9.939   4.831   5.069  0.00  0.00    +0.024 A 
ATOM     26  C   UNL     1      11.223   6.537   6.199  0.00  0.00    +0.024 A 
ATOM     28  C   UNL     1      10.445   5.380   6.247  0.00  0.00    +0.033 A 
BRANCH  28   6
ATOM      3  O   UNL     1       8.977   6.423   8.661  0.00  0.00    -0.276 OA
ATOM      6  N   UNL     1      10.174   4.773   7.473  0.00  0.00    -0.286 N 
ATOM     29  C   UNL     1       9.484   5.309   8.570  0.00  0.00    +0.214 C 
ATOM     30  C   UNL     1       9.404   4.328   9.712  0.00  0.00    +0.109 C 
ATOM     31  H   UNL     1      10.525   3.823   7.575  0.00  0.00    +0.155 HD
ENDBRANCH  28   6
ENDBRANCH  15  19
BRANCH   4  14
ATOM     14  C   UNL     1      12.926   3.150  -0.288  0.00  0.00    +0.126 C 
BRANCH  14  20
ATOM      1  S   UNL     1      10.990   4.560  -1.660  0.00  0.00    -0.100 S 
ATOM     20  C   UNL     1      11.972   3.186  -1.447  0.00  0.00    +0.004 A 
ATOM     23  C   UNL     1      11.775   2.226  -2.396  0.00  0.00    +0.012 A 
ATOM     24  C   UNL     1      10.782   2.624  -3.337  0.00  0.00    +0.008 A 
ATOM     27  C   UNL     1      10.273   3.873  -3.055  0.00  0.00    +0.045 A 
ENDBRANCH  14  20
ENDBRANCH   4  14
TORSDOF 4
ENDMDL
MODEL 8
REMARK VINA RESULT:      -6.3     27.419     30.025
REMARK  Name = 7682261
REMARK  5 active torsions:
REMARK  status: ('A' for Active; 'I' for Inactive)
REMARK    1  A    between atoms: N_4  and  C_14
REMARK    2  A    between atoms: N_6  and  C_28
REMARK    3  A    between atoms: C_14  and  C_20
REMARK    4  A    between atoms: C_15  and  C_19
REMARK    5  A    between atoms: C_29  and  C_30
REMARK                            x       y       z     vdW  Elec       q    Type
REMARK                         _______ _______ _______ _____ _____    ______ ____
ROOT
ATOM      2  O   UNL     1      -2.132 -15.196  12.678  0.00  0.00    -0.268 OA
ATOM      4  N   UNL     1      -4.269 -10.908  14.057  0.00  0.00    -0.297 NA
ATOM      5  N   UNL     1      -2.753 -12.991  12.192  0.00  0.00    -0.311 N 
ATOM      7  C   UNL     1      -1.828 -11.003  13.524  0.00  0.00    +0.024 C 
ATOM      8  C   UNL     1      -3.432 -10.619  11.717  0.00  0.00    +0.051 C 
ATOM      9  C   UNL     1      -2.050 -10.232  12.235  0.00  0.00    +0.017 C 
ATOM     10  C   UNL     1      -2.915 -10.647  14.558  0.00  0.00    +0.090 C 
ATOM     11  C   UNL     1      -4.501 -10.237  12.771  0.00  0.00    +0.094 C 
ATOM     12  C   UNL     1      -1.800 -12.498  13.197  0.00  0.00    +0.130 C 
ATOM     13  C   UNL     1      -3.504 -12.112  11.386  0.00  0.00    +0.034 A 
ATOM     15  C   UNL     1      -4.266 -12.605  10.375  0.00  0.00    +0.002 A 
ATOM     16  C   UNL     1      -2.778 -14.385  12.014  0.00  0.00    +0.252 A 
ATOM     17  C   UNL     1      -4.321 -14.040  10.164  0.00  0.00    +0.015 A 
ATOM     18  C   UNL     1      -3.643 -14.898  10.927  0.00  0.00    +0.071 A 
ENDROOT
BRANCH  15  19
ATOM     19  C   UNL     1      -5.054 -11.720   9.491  0.00  0.00    -0.016 A 
ATOM     21  C   UNL     1      -6.406 -11.513   9.750  0.00  0.00    +0.010 A 
ATOM     22  C   UNL     1      -4.440 -11.100   8.408  0.00  0.00    +0.010 A 
ATOM     25  C   UNL     1      -7.151 -10.678   8.916  0.00  0.00    +0.024 A 
ATOM     26  C   UNL     1      -5.185 -10.265   7.573  0.00  0.00    +0.024 A 
ATOM     28  C   UNL     1      -6.540 -10.054   7.828  0.00  0.00    +0.033 A 
BRANCH  28   6
ATOM      3  O   UNL     1      -7.707  -7.325   8.337  0.00  0.00    -0.276 OA
ATOM      6  N   UNL     1      -7.283  -9.218   6.995  0.00  0.00    -0.286 N 
ATOM     29  C   UNL     1      -7.807  -7.950   7.286  0.00  0.00    +0.214 C 
ATOM     30  C   UNL     1      -8.554  -7.371   6.111  0.00  0.00    +0.109 C 
ATOM     31  H   UNL     1      -7.463  -9.582   6.062  0.00  0.00    +0.155 HD
ENDBRANCH  28   6
ENDBRANCH  15  19
BRANCH   4  14
ATOM     14  C   UNL     1      -5.275 -10.514  15.041  0.00  0.00    +0.126 C 
BRANCH  14  20
ATOM      1  S   UNL     1      -5.178 -12.892  16.440  0.00  0.00    -0.100 S 
ATOM     20  C   UNL     1      -5.065 -11.195  16.363  0.00  0.00    +0.004 A 
ATOM     23  C   UNL     1      -4.782 -10.616  17.565  0.00  0.00    +0.012 A 
ATOM     24  C   UNL     1      -4.653 -11.593  18.593  0.00  0.00    +0.008 A 
ATOM     27  C   UNL     1      -4.844 -12.872  18.118  0.00  0.00    +0.045 A 
ENDBRANCH  14  20
ENDBRANCH   4  14
TORSDOF 4
ENDMDL
MODEL 9
REMARK VINA RESULT:      -6.3     12.808     16.974
REMARK  Name = 7682261
REMARK  5 active torsions:
REMARK  status: ('A' for Active; 'I' for Inactive)
REMARK    1  A    between atoms: N_4  and  C_14
REMARK    2  A    between atoms: N_6  and  C_28
REMARK    3  A    between atoms: C_14  and  C_20
REMARK    4  A    between atoms: C_15  and  C_19
REMARK    5  A    between atoms: C_29  and  C_30
REMARK                            x       y       z     vdW  Elec       q    Type
REMARK                         _______ _______ _______ _____ _____    ______ ____
ROOT
ATOM      2  O   UNL     1      11.294   5.429   8.464  0.00  0.00    -0.268 OA
ATOM      4  N   UNL     1      12.002  10.190   7.164  0.00  0.00    -0.297 NA
ATOM      5  N   UNL     1      11.309   7.104   6.827  0.00  0.00    -0.311 N 
ATOM      7  C   UNL     1      13.451   8.382   6.224  0.00  0.00    +0.024 C 
ATOM      8  C   UNL     1      11.346   8.932   5.103  0.00  0.00    +0.051 C 
ATOM      9  C   UNL     1      12.797   8.528   4.860  0.00  0.00    +0.017 C 
ATOM     10  C   UNL     1      13.379   9.713   6.999  0.00  0.00    +0.090 C 
ATOM     11  C   UNL     1      11.309  10.276   5.872  0.00  0.00    +0.094 C 
ATOM     12  C   UNL     1      12.767   7.233   6.969  0.00  0.00    +0.130 C 
ATOM     13  C   UNL     1      10.587   7.845   5.871  0.00  0.00    +0.034 A 
ATOM     15  C   UNL     1       9.267   7.594   5.676  0.00  0.00    +0.002 A 
ATOM     16  C   UNL     1      10.709   6.115   7.626  0.00  0.00    +0.252 A 
ATOM     17  C   UNL     1       8.611   6.584   6.486  0.00  0.00    +0.015 A 
ATOM     18  C   UNL     1       9.261   5.885   7.416  0.00  0.00    +0.071 A 
ENDROOT
BRANCH  15  19
ATOM     19  C   UNL     1       8.474   8.333   4.670  0.00  0.00    -0.016 A 
ATOM     21  C   UNL     1       7.626   9.359   5.076  0.00  0.00    +0.010 A 
ATOM     22  C   UNL     1       8.579   7.996   3.324  0.00  0.00    +0.010 A 
ATOM     25  C   UNL     1       6.878  10.056   4.128  0.00  0.00    +0.024 A 
ATOM     26  C   UNL     1       7.830   8.693   2.375  0.00  0.00    +0.024 A 
ATOM     28  C   UNL     1       6.980   9.723   2.777  0.00  0.00    +0.033 A 
BRANCH  28   6
ATOM      3  O   UNL     1       4.012   9.759   2.268  0.00  0.00    -0.276 OA
ATOM      6  N   UNL     1       6.233  10.421   1.828  0.00  0.00    -0.286 N 
ATOM     29  C   UNL     1       4.845  10.399   1.633  0.00  0.00    +0.214 C 
ATOM     30  C   UNL     1       4.426  11.298   0.497  0.00  0.00    +0.109 C 
ATOM     31  H   UNL     1       6.772  11.018   1.203  0.00  0.00    +0.155 HD
ENDBRANCH  28   6
ENDBRANCH  15  19
BRANCH   4  14
ATOM     14  C   UNL     1      11.974  11.475   7.859  0.00  0.00    +0.126 C 
BRANCH  14  20
ATOM      1  S   UNL     1      11.426  12.219  10.460  0.00  0.00    -0.100 S 
ATOM     20  C   UNL     1      10.987  11.479   8.991  0.00  0.00    +0.004 A 
ATOM     23  C   UNL     1       9.731  10.949   9.006  0.00  0.00    +0.012 A 
ATOM     24  C   UNL     1       9.097  11.152  10.266  0.00  0.00    +0.008 A 
ATOM     27  C   UNL     1       9.908  11.830  11.149  0.00  0.00    +0.045 A 
ENDBRANCH  14  20
ENDBRANCH   4  14
TORSDOF 4
ENDMDL
MODEL 10
REMARK VINA RESULT:      -6.3     14.706     19.070
REMARK  Name = 7682261
REMARK  5 active torsions:
REMARK  status: ('A' for Active; 'I' for Inactive)
REMARK    1  A    between atoms: N_4  and  C_14
REMARK    2  A    between atoms: N_6  and  C_28
REMARK    3  A    between atoms: C_14  and  C_20
REMARK    4  A    between atoms: C_15  and  C_19
REMARK    5  A    between atoms: C_29  and  C_30
REMARK                            x       y       z     vdW  Elec       q    Type
REMARK                         _______ _______ _______ _____ _____    ______ ____
ROOT
ATOM      2  O   UNL     1      12.889   9.813   6.224  0.00  0.00    -0.268 OA
ATOM      4  N   UNL     1       9.881   5.925   5.393  0.00  0.00    -0.297 NA
ATOM      5  N   UNL     1      10.737   8.894   6.149  0.00  0.00    -0.311 N 
ATOM      7  C   UNL     1      10.048   6.946   7.670  0.00  0.00    +0.024 C 
ATOM      8  C   UNL     1       8.447   7.863   6.063  0.00  0.00    +0.051 C 
ATOM      9  C   UNL     1       8.655   7.536   7.539  0.00  0.00    +0.017 C 
ATOM     10  C   UNL     1      10.175   5.674   6.807  0.00  0.00    +0.090 C 
ATOM     11  C   UNL     1       8.569   6.566   5.227  0.00  0.00    +0.094 C 
ATOM     12  C   UNL     1      11.069   8.019   7.283  0.00  0.00    +0.130 C 
ATOM     13  C   UNL     1       9.448   8.917   5.580  0.00  0.00    +0.034 A 
ATOM     15  C   UNL     1       9.144   9.839   4.630  0.00  0.00    +0.002 A 
ATOM     16  C   UNL     1      11.753   9.780   5.751  0.00  0.00    +0.252 A 
ATOM     17  C   UNL     1      10.169  10.767   4.190  0.00  0.00    +0.015 A 
ATOM     18  C   UNL     1      11.405  10.752   4.689  0.00  0.00    +0.071 A 
ENDROOT
BRANCH  15  19
ATOM     19  C   UNL     1       7.799   9.913   4.020  0.00  0.00    -0.016 A 
ATOM     21  C   UNL     1       6.770  10.564   4.694  0.00  0.00    +0.010 A 
ATOM     22  C   UNL     1       7.572   9.332   2.776  0.00  0.00    +0.010 A 
ATOM     25  C   UNL     1       5.501  10.634   4.119  0.00  0.00    +0.024 A 
ATOM     26  C   UNL     1       6.302   9.403   2.201  0.00  0.00    +0.024 A 
ATOM     28  C   UNL     1       5.267  10.054   2.872  0.00  0.00    +0.033 A 
BRANCH  28   6
ATOM      3  O   UNL     1       4.165  11.944   0.803  0.00  0.00    -0.276 OA
ATOM      6  N   UNL     1       3.999  10.125   2.296  0.00  0.00    -0.286 N 
ATOM     29  C   UNL     1       3.536  11.032   1.332  0.00  0.00    +0.214 C 
ATOM     30  C   UNL     1       2.096  10.774   0.968  0.00  0.00    +0.109 C 
ATOM     31  H   UNL     1       3.333   9.428   2.622  0.00  0.00    +0.155 HD
ENDBRANCH  28   6
ENDBRANCH  15  19
BRANCH   4  14
ATOM     14  C   UNL     1       9.963   4.692   4.613  0.00  0.00    +0.126 C 
BRANCH  14  20
ATOM      1  S   UNL     1      11.809   6.260   3.291  0.00  0.00    -0.100 S 
ATOM     20  C   UNL     1      10.975   4.793   3.508  0.00  0.00    +0.004 A 
ATOM     23  C   UNL     1      11.335   3.827   2.615  0.00  0.00    +0.012 A 
ATOM     24  C   UNL     1      12.332   4.300   1.714  0.00  0.00    +0.008 A 
ATOM     27  C   UNL     1      12.681   5.608   1.970  0.00  0.00    +0.045 A 
ENDBRANCH  14  20
ENDBRANCH   4  14
TORSDOF 4
ENDMDL
