MODEL 1
REMARK VINA RESULT:      -6.9      0.000      0.000
REMARK  Name = 51136770
REMARK  6 active torsions:
REMARK  status: ('A' for Active; 'I' for Inactive)
REMARK    1  A    between atoms: O_4  and  C_18
REMARK    2  A    between atoms: C_8  and  C_13
REMARK    3  A    between atoms: C_9  and  C_14
REMARK    4  A    between atoms: C_13  and  C_15
REMARK    5  A    between atoms: C_14  and  C_18
REMARK    6  A    between atoms: C_16  and  C_22
REMARK                            x       y       z     vdW  Elec       q    Type
REMARK                         _______ _______ _______ _____ _____    ______ ____
ROOT
ATOM      3  O   UNL     1      16.756  11.945  21.619  0.00  0.00    -0.270 OA
ATOM      6  N   UNL     1      14.685  11.796  22.698  0.00  0.00    -0.297 N 
ATOM      8  C   UNL     1      12.206  11.661  22.583  0.00  0.00    +0.016 C 
ATOM      9  C   UNL     1      12.144  13.152  23.000  0.00  0.00    +0.006 C 
ATOM     10  C   UNL     1      13.420  13.907  22.590  0.00  0.00    +0.023 C 
ATOM     11  C   UNL     1      13.506  11.022  23.109  0.00  0.00    +0.112 C 
ATOM     12  C   UNL     1      14.670  13.200  23.104  0.00  0.00    +0.108 C 
ATOM     16  C   UNL     1      15.769  11.300  21.970  0.00  0.00    +0.247 C 
ENDROOT
BRANCH  16  22
ATOM      2  F   UNL     1      15.693   5.905  20.484  0.00  0.00    -0.205 F 
ATOM     22  C   UNL     1      15.749   9.885  21.580  0.00  0.00    +0.037 A 
ATOM     26  C   UNL     1      16.390   9.475  20.411  0.00  0.00    +0.016 A 
ATOM     27  C   UNL     1      15.090   8.951  22.379  0.00  0.00    +0.016 A 
ATOM     29  C   UNL     1      16.370   8.131  20.040  0.00  0.00    +0.039 A 
ATOM     30  C   UNL     1      15.071   7.606  22.008  0.00  0.00    +0.039 A 
ATOM     31  C   UNL     1      15.710   7.196  20.839  0.00  0.00    +0.123 A 
ENDBRANCH  16  22
BRANCH   8  13
ATOM     13  C   UNL     1      12.074  11.430  21.072  0.00  0.00    +0.061 C 
BRANCH  13  15
ATOM      1  F   UNL     1      14.294   7.213  16.638  0.00  0.00    -0.205 F 
ATOM      7  N   UNL     1      10.901   9.398  21.583  0.00  0.00    -0.287 NA
ATOM     15  C   UNL     1      11.748   9.981  20.801  0.00  0.00    +0.044 C 
ATOM     17  C   UNL     1      12.416   9.298  19.664  0.00  0.00    -0.001 A 
ATOM     19  C   UNL     1      12.401   7.897  19.672  0.00  0.00    -0.034 A 
ATOM     20  C   UNL     1      11.736   7.190  20.815  0.00  0.00    +0.059 C 
ATOM     21  C   UNL     1      10.539   8.008  21.283  0.00  0.00    +0.146 C 
ATOM     23  C   UNL     1      13.049   9.994  18.632  0.00  0.00    +0.013 A 
ATOM     24  C   UNL     1      13.048   7.195  18.651  0.00  0.00    +0.042 A 
ATOM     25  C   UNL     1      13.679   9.283  17.609  0.00  0.00    +0.039 A 
ATOM     28  C   UNL     1      13.681   7.888  17.619  0.00  0.00    +0.124 A 
ENDBRANCH  13  15
ENDBRANCH   8  13
BRANCH   9  14
ATOM     14  C   UNL     1      10.901  13.871  22.477  0.00  0.00    +0.124 C 
BRANCH  14  18
ATOM      5  O   UNL     1       9.395  15.165  23.891  0.00  0.00    -0.251 OA
ATOM     18  C   UNL     1       9.890  14.096  23.567  0.00  0.00    +0.305 C 
BRANCH  18   4
ATOM      4  O   UNL     1       9.590  12.914  24.164  0.00  0.00    -0.481 OA
ATOM     32  H   UNL     1       9.246  12.257  23.522  0.00  0.00    +0.295 HD
ENDBRANCH  18   4
ENDBRANCH  14  18
ENDBRANCH   9  14
TORSDOF 6
ENDMDL
MODEL 2
REMARK VINA RESULT:      -6.6     26.937     29.264
REMARK  Name = 51136770
REMARK  6 active torsions:
REMARK  status: ('A' for Active; 'I' for Inactive)
REMARK    1  A    between atoms: O_4  and  C_18
REMARK    2  A    between atoms: C_8  and  C_13
REMARK    3  A    between atoms: C_9  and  C_14
REMARK    4  A    between atoms: C_13  and  C_15
REMARK    5  A    between atoms: C_14  and  C_18
REMARK    6  A    between atoms: C_16  and  C_22
REMARK                            x       y       z     vdW  Elec       q    Type
REMARK                         _______ _______ _______ _____ _____    ______ ____
ROOT
ATOM      3  O   UNL     1      -1.067  -9.516  12.634  0.00  0.00    -0.270 OA
ATOM      6  N   UNL     1      -2.184 -11.128  13.910  0.00  0.00    -0.297 N 
ATOM      8  C   UNL     1      -4.184 -11.839  15.203  0.00  0.00    +0.016 C 
ATOM      9  C   UNL     1      -3.383 -11.583  16.506  0.00  0.00    +0.006 C 
ATOM     10  C   UNL     1      -2.285 -10.527  16.296  0.00  0.00    +0.023 C 
ATOM     11  C   UNL     1      -3.217 -12.164  14.049  0.00  0.00    +0.112 C 
ATOM     12  C   UNL     1      -1.391 -10.886  15.113  0.00  0.00    +0.108 C 
ATOM     16  C   UNL     1      -1.926 -10.387  12.753  0.00  0.00    +0.247 C 
ENDROOT
BRANCH  16  22
ATOM      2  F   UNL     1      -5.043 -11.419   8.221  0.00  0.00    -0.205 F 
ATOM     22  C   UNL     1      -2.743 -10.658  11.565  0.00  0.00    +0.037 A 
ATOM     26  C   UNL     1      -3.287 -11.927  11.366  0.00  0.00    +0.016 A 
ATOM     27  C   UNL     1      -2.977  -9.646  10.633  0.00  0.00    +0.016 A 
ATOM     29  C   UNL     1      -4.063 -12.184  10.237  0.00  0.00    +0.039 A 
ATOM     30  C   UNL     1      -3.754  -9.903   9.504  0.00  0.00    +0.039 A 
ATOM     31  C   UNL     1      -4.297 -11.172   9.305  0.00  0.00    +0.123 A 
ENDBRANCH  16  22
BRANCH   8  13
ATOM     13  C   UNL     1      -5.116 -10.685  14.808  0.00  0.00    +0.061 C 
BRANCH  13  15
ATOM      1  F   UNL     1      -7.618  -8.826   9.094  0.00  0.00    -0.205 F 
ATOM      7  N   UNL     1      -6.894 -12.255  14.429  0.00  0.00    -0.287 NA
ATOM     15  C   UNL     1      -6.266 -11.215  13.986  0.00  0.00    +0.044 C 
ATOM     17  C   UNL     1      -6.614 -10.528  12.717  0.00  0.00    -0.001 A 
ATOM     19  C   UNL     1      -7.400 -11.245  11.806  0.00  0.00    -0.034 A 
ATOM     20  C   UNL     1      -7.820 -12.641  12.159  0.00  0.00    +0.059 C 
ATOM     21  C   UNL     1      -8.050 -12.732  13.662  0.00  0.00    +0.146 C 
ATOM     23  C   UNL     1      -6.181  -9.235  12.414  0.00  0.00    +0.013 A 
ATOM     24  C   UNL     1      -7.728 -10.669  10.575  0.00  0.00    +0.042 A 
ATOM     25  C   UNL     1      -6.527  -8.663  11.189  0.00  0.00    +0.039 A 
ATOM     28  C   UNL     1      -7.296  -9.379  10.271  0.00  0.00    +0.124 A 
ENDBRANCH  13  15
ENDBRANCH   8  13
BRANCH   9  14
ATOM     14  C   UNL     1      -4.271 -11.209  17.692  0.00  0.00    +0.124 C 
BRANCH  14  18
ATOM      5  O   UNL     1      -3.378 -12.084  19.784  0.00  0.00    -0.251 OA
ATOM     18  C   UNL     1      -4.127 -12.188  18.824  0.00  0.00    +0.305 C 
BRANCH  18   4
ATOM      4  O   UNL     1      -4.966 -13.238  18.632  0.00  0.00    -0.481 OA
ATOM     32  H   UNL     1      -4.646 -14.049  19.082  0.00  0.00    +0.295 HD
ENDBRANCH  18   4
ENDBRANCH  14  18
ENDBRANCH   9  14
TORSDOF 6
ENDMDL
MODEL 3
REMARK VINA RESULT:      -6.5     26.530     29.323
REMARK  Name = 51136770
REMARK  6 active torsions:
REMARK  status: ('A' for Active; 'I' for Inactive)
REMARK    1  A    between atoms: O_4  and  C_18
REMARK    2  A    between atoms: C_8  and  C_13
REMARK    3  A    between atoms: C_9  and  C_14
REMARK    4  A    between atoms: C_13  and  C_15
REMARK    5  A    between atoms: C_14  and  C_18
REMARK    6  A    between atoms: C_16  and  C_22
REMARK                            x       y       z     vdW  Elec       q    Type
REMARK                         _______ _______ _______ _____ _____    ______ ____
ROOT
ATOM      3  O   UNL     1      -7.950 -11.433  18.785  0.00  0.00    -0.270 OA
ATOM      6  N   UNL     1      -6.272 -10.337  17.579  0.00  0.00    -0.297 N 
ATOM      8  C   UNL     1      -4.711 -10.266  15.647  0.00  0.00    +0.016 C 
ATOM      9  C   UNL     1      -3.559 -10.641  16.614  0.00  0.00    +0.006 C 
ATOM     10  C   UNL     1      -4.076 -11.425  17.832  0.00  0.00    +0.023 C 
ATOM     11  C   UNL     1      -5.832  -9.547  16.421  0.00  0.00    +0.112 C 
ATOM     12  C   UNL     1      -5.213 -10.680  18.526  0.00  0.00    +0.108 C 
ATOM     16  C   UNL     1      -7.579 -10.767  17.820  0.00  0.00    +0.247 C 
ENDROOT
BRANCH  16  22
ATOM      2  F   UNL     1     -11.530  -9.379  14.108  0.00  0.00    -0.205 F 
ATOM     22  C   UNL     1      -8.616 -10.404  16.847  0.00  0.00    +0.037 A 
ATOM     26  C   UNL     1      -9.333  -9.217  17.003  0.00  0.00    +0.016 A 
ATOM     27  C   UNL     1      -8.882 -11.243  15.765  0.00  0.00    +0.016 A 
ATOM     29  C   UNL     1     -10.318  -8.872  16.078  0.00  0.00    +0.039 A 
ATOM     30  C   UNL     1      -9.867 -10.897  14.840  0.00  0.00    +0.039 A 
ATOM     31  C   UNL     1     -10.585  -9.712  14.997  0.00  0.00    +0.123 A 
ENDBRANCH  16  22
BRANCH   8  13
ATOM     13  C   UNL     1      -5.282 -11.457  14.866  0.00  0.00    +0.061 C 
BRANCH  13  15
ATOM      1  F   UNL     1      -5.414  -7.574   9.643  0.00  0.00    -0.205 F 
ATOM      7  N   UNL     1      -3.823 -12.555  13.305  0.00  0.00    -0.287 NA
ATOM     15  C   UNL     1      -4.613 -11.553  13.516  0.00  0.00    +0.044 C 
ATOM     17  C   UNL     1      -4.884 -10.498  12.507  0.00  0.00    -0.001 A 
ATOM     19  C   UNL     1      -3.979 -10.395  11.442  0.00  0.00    -0.034 A 
ATOM     20  C   UNL     1      -2.808 -11.331  11.399  0.00  0.00    +0.059 C 
ATOM     21  C   UNL     1      -3.221 -12.681  11.973  0.00  0.00    +0.146 C 
ATOM     23  C   UNL     1      -5.972  -9.628  12.597  0.00  0.00    +0.013 A 
ATOM     24  C   UNL     1      -4.156  -9.396  10.481  0.00  0.00    +0.042 A 
ATOM     25  C   UNL     1      -6.149  -8.644  11.624  0.00  0.00    +0.039 A 
ATOM     28  C   UNL     1      -5.242  -8.526  10.569  0.00  0.00    +0.124 A 
ENDBRANCH  13  15
ENDBRANCH   8  13
BRANCH   9  14
ATOM     14  C   UNL     1      -2.423 -11.399  15.928  0.00  0.00    +0.124 C 
BRANCH  14  18
ATOM      5  O   UNL     1      -1.505  -9.910  14.231  0.00  0.00    -0.251 OA
ATOM     18  C   UNL     1      -1.418 -10.462  15.318  0.00  0.00    +0.305 C 
BRANCH  18   4
ATOM      4  O   UNL     1      -0.367 -10.304  16.163  0.00  0.00    -0.481 OA
ATOM     32  H   UNL     1       0.378  -9.829  15.735  0.00  0.00    +0.295 HD
ENDBRANCH  18   4
ENDBRANCH  14  18
ENDBRANCH   9  14
TORSDOF 6
ENDMDL
MODEL 4
REMARK VINA RESULT:      -6.5     16.956     20.811
REMARK  Name = 51136770
REMARK  6 active torsions:
REMARK  status: ('A' for Active; 'I' for Inactive)
REMARK    1  A    between atoms: O_4  and  C_18
REMARK    2  A    between atoms: C_8  and  C_13
REMARK    3  A    between atoms: C_9  and  C_14
REMARK    4  A    between atoms: C_13  and  C_15
REMARK    5  A    between atoms: C_14  and  C_18
REMARK    6  A    between atoms: C_16  and  C_22
REMARK                            x       y       z     vdW  Elec       q    Type
REMARK                         _______ _______ _______ _____ _____    ______ ____
ROOT
ATOM      3  O   UNL     1      10.372   4.115  -0.175  0.00  0.00    -0.270 OA
ATOM      6  N   UNL     1      12.556   3.884   0.631  0.00  0.00    -0.297 N 
ATOM      8  C   UNL     1      14.746   4.895   1.229  0.00  0.00    +0.016 C 
ATOM      9  C   UNL     1      15.330   4.309  -0.082  0.00  0.00    +0.006 C 
ATOM     10  C   UNL     1      14.241   4.119  -1.151  0.00  0.00    +0.023 C 
ATOM     11  C   UNL     1      13.553   4.042   1.699  0.00  0.00    +0.112 C 
ATOM     12  C   UNL     1      13.071   3.304  -0.608  0.00  0.00    +0.108 C 
ATOM     16  C   UNL     1      11.209   4.241   0.718  0.00  0.00    +0.247 C 
ENDROOT
BRANCH  16  22
ATOM      2  F   UNL     1       9.380   6.453   5.523  0.00  0.00    -0.205 F 
ATOM     22  C   UNL     1      10.728   4.821   1.978  0.00  0.00    +0.037 A 
ATOM     26  C   UNL     1      10.800   4.081   3.158  0.00  0.00    +0.016 A 
ATOM     27  C   UNL     1      10.202   6.113   1.995  0.00  0.00    +0.016 A 
ATOM     29  C   UNL     1      10.344   4.632   4.355  0.00  0.00    +0.039 A 
ATOM     30  C   UNL     1       9.746   6.664   3.193  0.00  0.00    +0.039 A 
ATOM     31  C   UNL     1       9.817   5.923   4.372  0.00  0.00    +0.123 A 
ENDBRANCH  16  22
BRANCH   8  13
ATOM     13  C   UNL     1      14.336   6.371   1.123  0.00  0.00    +0.061 C 
BRANCH  13  15
ATOM      1  F   UNL     1      13.508   7.831   7.412  0.00  0.00    -0.205 F 
ATOM      7  N   UNL     1      16.254   7.716   1.651  0.00  0.00    -0.287 NA
ATOM     15  C   UNL     1      15.152   7.199   2.086  0.00  0.00    +0.044 C 
ATOM     17  C   UNL     1      14.660   7.372   3.476  0.00  0.00    -0.001 A 
ATOM     19  C   UNL     1      15.594   7.798   4.429  0.00  0.00    -0.034 A 
ATOM     20  C   UNL     1      17.010   8.033   3.994  0.00  0.00    +0.059 C 
ATOM     21  C   UNL     1      17.016   8.571   2.569  0.00  0.00    +0.146 C 
ATOM     23  C   UNL     1      13.338   7.116   3.846  0.00  0.00    +0.013 A 
ATOM     24  C   UNL     1      15.203   7.941   5.763  0.00  0.00    +0.042 A 
ATOM     25  C   UNL     1      12.953   7.278   5.178  0.00  0.00    +0.039 A 
ATOM     28  C   UNL     1      13.883   7.686   6.134  0.00  0.00    +0.124 A 
ENDBRANCH  13  15
ENDBRANCH   8  13
BRANCH   9  14
ATOM     14  C   UNL     1      16.495   5.128  -0.639  0.00  0.00    +0.124 C 
BRANCH  14  18
ATOM      5  O   UNL     1      17.537   4.507  -2.753  0.00  0.00    -0.251 OA
ATOM     18  C   UNL     1      17.358   4.311  -1.560  0.00  0.00    +0.305 C 
BRANCH  18   4
ATOM      4  O   UNL     1      17.930   3.293  -0.868  0.00  0.00    -0.481 OA
ATOM     32  H   UNL     1      17.279   2.594  -0.641  0.00  0.00    +0.295 HD
ENDBRANCH  18   4
ENDBRANCH  14  18
ENDBRANCH   9  14
TORSDOF 6
ENDMDL
MODEL 5
REMARK VINA RESULT:      -6.5     27.342     29.424
REMARK  Name = 51136770
REMARK  6 active torsions:
REMARK  status: ('A' for Active; 'I' for Inactive)
REMARK    1  A    between atoms: O_4  and  C_18
REMARK    2  A    between atoms: C_8  and  C_13
REMARK    3  A    between atoms: C_9  and  C_14
REMARK    4  A    between atoms: C_13  and  C_15
REMARK    5  A    between atoms: C_14  and  C_18
REMARK    6  A    between atoms: C_16  and  C_22
REMARK                            x       y       z     vdW  Elec       q    Type
REMARK                         _______ _______ _______ _____ _____    ______ ____
ROOT
ATOM      3  O   UNL     1      -1.360 -10.018  12.377  0.00  0.00    -0.270 OA
ATOM      6  N   UNL     1      -2.719 -11.336  13.752  0.00  0.00    -0.297 N 
ATOM      8  C   UNL     1      -4.679 -11.554  15.264  0.00  0.00    +0.016 C 
ATOM      9  C   UNL     1      -3.700 -11.579  16.465  0.00  0.00    +0.006 C 
ATOM     10  C   UNL     1      -2.390 -10.841  16.143  0.00  0.00    +0.023 C 
ATOM     11  C   UNL     1      -3.969 -12.068  13.998  0.00  0.00    +0.112 C 
ATOM     12  C   UNL     1      -1.762 -11.367  14.856  0.00  0.00    +0.108 C 
ATOM     16  C   UNL     1      -2.403 -10.636  12.585  0.00  0.00    +0.247 C 
ENDROOT
BRANCH  16  22
ATOM      2  F   UNL     1      -6.160 -10.599   8.437  0.00  0.00    -0.205 F 
ATOM     22  C   UNL     1      -3.388 -10.627  11.498  0.00  0.00    +0.037 A 
ATOM     26  C   UNL     1      -4.294  -9.571  11.386  0.00  0.00    +0.016 A 
ATOM     27  C   UNL     1      -3.418 -11.672  10.574  0.00  0.00    +0.016 A 
ATOM     29  C   UNL     1      -5.230  -9.563  10.353  0.00  0.00    +0.039 A 
ATOM     30  C   UNL     1      -4.355 -11.663   9.541  0.00  0.00    +0.039 A 
ATOM     31  C   UNL     1      -5.261 -10.609   9.430  0.00  0.00    +0.123 A 
ENDBRANCH  16  22
BRANCH   8  13
ATOM     13  C   UNL     1      -5.307 -10.179  15.000  0.00  0.00    +0.061 C 
BRANCH  13  15
ATOM      1  F   UNL     1     -10.867  -8.278  17.799  0.00  0.00    -0.205 F 
ATOM      7  N   UNL     1      -7.000 -10.936  13.473  0.00  0.00    -0.287 NA
ATOM     15  C   UNL     1      -6.752 -10.344  14.595  0.00  0.00    +0.044 C 
ATOM     17  C   UNL     1      -7.811  -9.816  15.492  0.00  0.00    -0.001 A 
ATOM     19  C   UNL     1      -9.081  -9.633  14.931  0.00  0.00    -0.034 A 
ATOM     20  C   UNL     1      -9.282  -9.962  13.482  0.00  0.00    +0.059 C 
ATOM     21  C   UNL     1      -8.405 -11.151  13.109  0.00  0.00    +0.146 C 
ATOM     23  C   UNL     1      -7.576  -9.496  16.831  0.00  0.00    +0.013 A 
ATOM     24  C   UNL     1     -10.111  -9.101  15.712  0.00  0.00    +0.042 A 
ATOM     25  C   UNL     1      -8.615  -8.980  17.607  0.00  0.00    +0.039 A 
ATOM     28  C   UNL     1      -9.878  -8.780  17.050  0.00  0.00    +0.124 A 
ENDBRANCH  13  15
ENDBRANCH   8  13
BRANCH   9  14
ATOM     14  C   UNL     1      -4.319 -11.040  17.755  0.00  0.00    +0.124 C 
BRANCH  14  18
ATOM      5  O   UNL     1      -3.441 -12.100  19.766  0.00  0.00    -0.251 OA
ATOM     18  C   UNL     1      -4.263 -12.055  18.863  0.00  0.00    +0.305 C 
BRANCH  18   4
ATOM      4  O   UNL     1      -5.281 -12.943  18.723  0.00  0.00    -0.481 OA
ATOM     32  H   UNL     1      -5.085 -13.796  19.166  0.00  0.00    +0.295 HD
ENDBRANCH  18   4
ENDBRANCH  14  18
ENDBRANCH   9  14
TORSDOF 6
ENDMDL
MODEL 6
REMARK VINA RESULT:      -6.4      2.463      4.974
REMARK  Name = 51136770
REMARK  6 active torsions:
REMARK  status: ('A' for Active; 'I' for Inactive)
REMARK    1  A    between atoms: O_4  and  C_18
REMARK    2  A    between atoms: C_8  and  C_13
REMARK    3  A    between atoms: C_9  and  C_14
REMARK    4  A    between atoms: C_13  and  C_15
REMARK    5  A    between atoms: C_14  and  C_18
REMARK    6  A    between atoms: C_16  and  C_22
REMARK                            x       y       z     vdW  Elec       q    Type
REMARK                         _______ _______ _______ _____ _____    ______ ____
ROOT
ATOM      3  O   UNL     1      12.162   6.447  21.327  0.00  0.00    -0.270 OA
ATOM      6  N   UNL     1      12.468   8.740  20.979  0.00  0.00    -0.297 N 
ATOM      8  C   UNL     1      13.369  10.928  21.739  0.00  0.00    +0.016 C 
ATOM      9  C   UNL     1      11.929  11.337  22.142  0.00  0.00    +0.006 C 
ATOM     10  C   UNL     1      11.064  10.109  22.470  0.00  0.00    +0.023 C 
ATOM     11  C   UNL     1      13.321   9.879  20.613  0.00  0.00    +0.112 C 
ATOM     12  C   UNL     1      11.095   9.091  21.334  0.00  0.00    +0.108 C 
ATOM     16  C   UNL     1      12.870   7.403  21.016  0.00  0.00    +0.247 C 
ENDROOT
BRANCH  16  22
ATOM      2  F   UNL     1      18.159   6.204  19.632  0.00  0.00    -0.205 F 
ATOM     22  C   UNL     1      14.257   7.089  20.653  0.00  0.00    +0.037 A 
ATOM     26  C   UNL     1      15.215   6.907  21.651  0.00  0.00    +0.016 A 
ATOM     27  C   UNL     1      14.618   6.971  19.310  0.00  0.00    +0.016 A 
ATOM     29  C   UNL     1      16.532   6.609  21.306  0.00  0.00    +0.039 A 
ATOM     30  C   UNL     1      15.936   6.673  18.966  0.00  0.00    +0.039 A 
ATOM     31  C   UNL     1      16.893   6.492  19.963  0.00  0.00    +0.123 A 
ENDBRANCH  16  22
BRANCH   8  13
ATOM     13  C   UNL     1      14.221  10.415  22.908  0.00  0.00    +0.061 C 
BRANCH  13  15
ATOM      1  F   UNL     1      20.050  11.101  20.095  0.00  0.00    -0.205 F 
ATOM      7  N   UNL     1      15.204  12.264  24.084  0.00  0.00    -0.287 NA
ATOM     15  C   UNL     1      15.363  11.368  23.166  0.00  0.00    +0.044 C 
ATOM     17  C   UNL     1      16.600  11.236  22.356  0.00  0.00    -0.001 A 
ATOM     19  C   UNL     1      17.464  12.340  22.339  0.00  0.00    -0.034 A 
ATOM     20  C   UNL     1      17.082  13.565  23.114  0.00  0.00    +0.059 C 
ATOM     21  C   UNL     1      16.337  13.150  24.376  0.00  0.00    +0.146 C 
ATOM     23  C   UNL     1      16.906  10.086  21.625  0.00  0.00    +0.013 A 
ATOM     24  C   UNL     1      18.625  12.294  21.563  0.00  0.00    +0.042 A 
ATOM     25  C   UNL     1      18.077  10.045  20.866  0.00  0.00    +0.039 A 
ATOM     28  C   UNL     1      18.933  11.146  20.832  0.00  0.00    +0.124 A 
ENDBRANCH  13  15
ENDBRANCH   8  13
BRANCH   9  14
ATOM     14  C   UNL     1      11.889  12.347  23.289  0.00  0.00    +0.124 C 
BRANCH  14  18
ATOM      5  O   UNL     1      11.255  11.202  25.345  0.00  0.00    -0.251 OA
ATOM     18  C   UNL     1      10.964  11.903  24.387  0.00  0.00    +0.305 C 
BRANCH  18   4
ATOM      4  O   UNL     1       9.720  12.402  24.167  0.00  0.00    -0.481 OA
ATOM     32  H   UNL     1       9.303  12.006  23.373  0.00  0.00    +0.295 HD
ENDBRANCH  18   4
ENDBRANCH  14  18
ENDBRANCH   9  14
TORSDOF 6
ENDMDL
MODEL 7
REMARK VINA RESULT:      -6.4     28.993     31.539
REMARK  Name = 51136770
REMARK  6 active torsions:
REMARK  status: ('A' for Active; 'I' for Inactive)
REMARK    1  A    between atoms: O_4  and  C_18
REMARK    2  A    between atoms: C_8  and  C_13
REMARK    3  A    between atoms: C_9  and  C_14
REMARK    4  A    between atoms: C_13  and  C_15
REMARK    5  A    between atoms: C_14  and  C_18
REMARK    6  A    between atoms: C_16  and  C_22
REMARK                            x       y       z     vdW  Elec       q    Type
REMARK                         _______ _______ _______ _____ _____    ______ ____
ROOT
ATOM      3  O   UNL     1     -16.887   6.507  28.663  0.00  0.00    -0.270 OA
ATOM      6  N   UNL     1     -16.644   4.556  29.931  0.00  0.00    -0.297 N 
ATOM      8  C   UNL     1     -15.234   3.064  31.331  0.00  0.00    +0.016 C 
ATOM      9  C   UNL     1     -15.108   2.108  30.117  0.00  0.00    +0.006 C 
ATOM     10  C   UNL     1     -15.271   2.861  28.786  0.00  0.00    +0.023 C 
ATOM     11  C   UNL     1     -16.540   3.874  31.228  0.00  0.00    +0.112 C 
ATOM     12  C   UNL     1     -16.560   3.677  28.766  0.00  0.00    +0.108 C 
ATOM     16  C   UNL     1     -16.804   5.932  29.746  0.00  0.00    +0.247 C 
ENDROOT
BRANCH  16  22
ATOM      2  F   UNL     1     -17.106   9.176  34.296  0.00  0.00    -0.205 F 
ATOM     22  C   UNL     1     -16.884   6.783  30.939  0.00  0.00    +0.037 A 
ATOM     26  C   UNL     1     -17.701   6.412  32.007  0.00  0.00    +0.016 A 
ATOM     27  C   UNL     1     -16.141   7.962  31.006  0.00  0.00    +0.016 A 
ATOM     29  C   UNL     1     -17.777   7.221  33.140  0.00  0.00    +0.039 A 
ATOM     30  C   UNL     1     -16.216   8.770  32.140  0.00  0.00    +0.039 A 
ATOM     31  C   UNL     1     -17.034   8.400  33.207  0.00  0.00    +0.123 A 
ENDBRANCH  16  22
BRANCH   8  13
ATOM     13  C   UNL     1     -14.036   4.006  31.509  0.00  0.00    +0.061 C 
BRANCH  13  15
ATOM      1  F   UNL     1     -12.541   9.896  33.842  0.00  0.00    -0.205 F 
ATOM      7  N   UNL     1     -14.418   3.795  33.871  0.00  0.00    -0.287 NA
ATOM     15  C   UNL     1     -14.030   4.568  32.910  0.00  0.00    +0.044 C 
ATOM     17  C   UNL     1     -13.591   5.971  33.116  0.00  0.00    -0.001 A 
ATOM     19  C   UNL     1     -13.957   6.577  34.325  0.00  0.00    -0.034 A 
ATOM     20  C   UNL     1     -14.765   5.786  35.311  0.00  0.00    +0.059 C 
ATOM     21  C   UNL     1     -14.354   4.321  35.239  0.00  0.00    +0.146 C 
ATOM     23  C   UNL     1     -12.861   6.682  32.161  0.00  0.00    +0.013 A 
ATOM     24  C   UNL     1     -13.609   7.909  34.562  0.00  0.00    +0.042 A 
ATOM     25  C   UNL     1     -12.505   8.008  32.414  0.00  0.00    +0.039 A 
ATOM     28  C   UNL     1     -12.880   8.621  33.610  0.00  0.00    +0.124 A 
ENDBRANCH  13  15
ENDBRANCH   8  13
BRANCH   9  14
ATOM     14  C   UNL     1     -13.812   1.297  30.122  0.00  0.00    +0.124 C 
BRANCH  14  18
ATOM      5  O   UNL     1     -15.171  -0.726  30.150  0.00  0.00    -0.251 OA
ATOM     18  C   UNL     1     -14.082  -0.180  30.051  0.00  0.00    +0.305 C 
BRANCH  18   4
ATOM      4  O   UNL     1     -12.916  -0.849  29.857  0.00  0.00    -0.481 OA
ATOM     32  H   UNL     1     -12.833  -1.178  28.936  0.00  0.00    +0.295 HD
ENDBRANCH  18   4
ENDBRANCH  14  18
ENDBRANCH   9  14
TORSDOF 6
ENDMDL
MODEL 8
REMARK VINA RESULT:      -6.4     27.011     29.428
REMARK  Name = 51136770
REMARK  6 active torsions:
REMARK  status: ('A' for Active; 'I' for Inactive)
REMARK    1  A    between atoms: O_4  and  C_18
REMARK    2  A    between atoms: C_8  and  C_13
REMARK    3  A    between atoms: C_9  and  C_14
REMARK    4  A    between atoms: C_13  and  C_15
REMARK    5  A    between atoms: C_14  and  C_18
REMARK    6  A    between atoms: C_16  and  C_22
REMARK                            x       y       z     vdW  Elec       q    Type
REMARK                         _______ _______ _______ _____ _____    ______ ____
ROOT
ATOM      3  O   UNL     1      -8.587 -10.611  12.391  0.00  0.00    -0.270 OA
ATOM      6  N   UNL     1      -7.587  -9.998  14.415  0.00  0.00    -0.297 N 
ATOM      8  C   UNL     1      -6.143 -10.563  16.357  0.00  0.00    +0.016 C 
ATOM      9  C   UNL     1      -7.425 -10.720  17.214  0.00  0.00    +0.006 C 
ATOM     10  C   UNL     1      -8.640 -11.100  16.351  0.00  0.00    +0.023 C 
ATOM     11  C   UNL     1      -6.408  -9.592  15.192  0.00  0.00    +0.112 C 
ATOM     12  C   UNL     1      -8.819 -10.125  15.190  0.00  0.00    +0.108 C 
ATOM     16  C   UNL     1      -7.604 -10.266  13.044  0.00  0.00    +0.247 C 
ENDROOT
BRANCH  16  22
ATOM      2  F   UNL     1      -2.811  -9.741  10.203  0.00  0.00    -0.205 F 
ATOM     22  C   UNL     1      -6.348 -10.128  12.298  0.00  0.00    +0.037 A 
ATOM     26  C   UNL     1      -6.057  -8.936  11.634  0.00  0.00    +0.016 A 
ATOM     27  C   UNL     1      -5.442 -11.189  12.255  0.00  0.00    +0.016 A 
ATOM     29  C   UNL     1      -4.863  -8.806  10.926  0.00  0.00    +0.039 A 
ATOM     30  C   UNL     1      -4.248 -11.058  11.547  0.00  0.00    +0.039 A 
ATOM     31  C   UNL     1      -3.958  -9.867  10.883  0.00  0.00    +0.123 A 
ENDBRANCH  16  22
BRANCH   8  13
ATOM     13  C   UNL     1      -5.581 -11.889  15.828  0.00  0.00    +0.061 C 
BRANCH  13  15
ATOM      1  F   UNL     1      -1.288 -15.261  12.284  0.00  0.00    -0.205 F 
ATOM      7  N   UNL     1      -3.475 -10.863  16.359  0.00  0.00    -0.287 NA
ATOM     15  C   UNL     1      -4.080 -11.793  15.696  0.00  0.00    +0.044 C 
ATOM     17  C   UNL     1      -3.377 -12.756  14.811  0.00  0.00    -0.001 A 
ATOM     19  C   UNL     1      -2.080 -12.413  14.408  0.00  0.00    -0.034 A 
ATOM     20  C   UNL     1      -1.502 -11.110  14.875  0.00  0.00    +0.059 C 
ATOM     21  C   UNL     1      -2.011 -10.808  16.278  0.00  0.00    +0.146 C 
ATOM     23  C   UNL     1      -3.962 -13.948  14.376  0.00  0.00    +0.013 A 
ATOM     24  C   UNL     1      -1.381 -13.259  13.543  0.00  0.00    +0.042 A 
ATOM     25  C   UNL     1      -3.248 -14.793  13.525  0.00  0.00    +0.039 A 
ATOM     28  C   UNL     1      -1.963 -14.449  13.107  0.00  0.00    +0.124 A 
ENDBRANCH  13  15
ENDBRANCH   8  13
BRANCH   9  14
ATOM     14  C   UNL     1      -7.257 -11.706  18.371  0.00  0.00    +0.124 C 
BRANCH  14  18
ATOM      5  O   UNL     1      -6.246 -10.787  20.389  0.00  0.00    -0.251 OA
ATOM     18  C   UNL     1      -7.232 -11.003  19.700  0.00  0.00    +0.305 C 
BRANCH  18   4
ATOM      4  O   UNL     1      -8.491 -10.629  20.044  0.00  0.00    -0.481 OA
ATOM     32  H   UNL     1      -8.632  -9.666  19.921  0.00  0.00    +0.295 HD
ENDBRANCH  18   4
ENDBRANCH  14  18
ENDBRANCH   9  14
TORSDOF 6
ENDMDL
MODEL 9
REMARK VINA RESULT:      -6.3     14.958     18.187
REMARK  Name = 51136770
REMARK  6 active torsions:
REMARK  status: ('A' for Active; 'I' for Inactive)
REMARK    1  A    between atoms: O_4  and  C_18
REMARK    2  A    between atoms: C_8  and  C_13
REMARK    3  A    between atoms: C_9  and  C_14
REMARK    4  A    between atoms: C_13  and  C_15
REMARK    5  A    between atoms: C_14  and  C_18
REMARK    6  A    between atoms: C_16  and  C_22
REMARK                            x       y       z     vdW  Elec       q    Type
REMARK                         _______ _______ _______ _____ _____    ______ ____
ROOT
ATOM      3  O   UNL     1      15.396   6.898   4.546  0.00  0.00    -0.270 OA
ATOM      6  N   UNL     1      13.575   7.081   3.088  0.00  0.00    -0.297 N 
ATOM      8  C   UNL     1      11.267   6.428   2.438  0.00  0.00    +0.016 C 
ATOM      9  C   UNL     1      11.875   5.538   1.323  0.00  0.00    +0.006 C 
ATOM     10  C   UNL     1      13.298   5.078   1.681  0.00  0.00    +0.023 C 
ATOM     11  C   UNL     1      12.231   7.582   2.771  0.00  0.00    +0.112 C 
ATOM     12  C   UNL     1      14.188   6.264   2.042  0.00  0.00    +0.108 C 
ATOM     16  C   UNL     1      14.273   7.320   4.274  0.00  0.00    +0.247 C 
ENDROOT
BRANCH  16  22
ATOM      2  F   UNL     1      11.807  10.466   8.191  0.00  0.00    -0.205 F 
ATOM     22  C   UNL     1      13.626   8.145   5.301  0.00  0.00    +0.037 A 
ATOM     26  C   UNL     1      12.851   7.543   6.293  0.00  0.00    +0.016 A 
ATOM     27  C   UNL     1      13.787   9.531   5.286  0.00  0.00    +0.016 A 
ATOM     29  C   UNL     1      12.237   8.328   7.269  0.00  0.00    +0.039 A 
ATOM     30  C   UNL     1      13.172  10.315   6.262  0.00  0.00    +0.039 A 
ATOM     31  C   UNL     1      12.397   9.713   7.253  0.00  0.00    +0.123 A 
ENDBRANCH  16  22
BRANCH   8  13
ATOM     13  C   UNL     1      10.894   5.661   3.714  0.00  0.00    +0.061 C 
BRANCH  13  15
ATOM      1  F   UNL     1       8.981   5.490   9.933  0.00  0.00    -0.205 F 
ATOM      7  N   UNL     1       9.123   7.280   3.808  0.00  0.00    -0.287 NA
ATOM     15  C   UNL     1       9.813   6.404   4.461  0.00  0.00    +0.044 C 
ATOM     17  C   UNL     1       9.602   6.103   5.899  0.00  0.00    -0.001 A 
ATOM     19  C   UNL     1       8.888   7.050   6.644  0.00  0.00    -0.034 A 
ATOM     20  C   UNL     1       8.405   8.292   5.957  0.00  0.00    +0.059 C 
ATOM     21  C   UNL     1       8.033   7.958   4.518  0.00  0.00    +0.146 C 
ATOM     23  C   UNL     1      10.092   4.946   6.508  0.00  0.00    +0.013 A 
ATOM     24  C   UNL     1       8.690   6.844   8.013  0.00  0.00    +0.042 A 
ATOM     25  C   UNL     1       9.875   4.742   7.872  0.00  0.00    +0.039 A 
ATOM     28  C   UNL     1       9.178   5.690   8.623  0.00  0.00    +0.124 A 
ENDBRANCH  13  15
ENDBRANCH   8  13
BRANCH   9  14
ATOM     14  C   UNL     1      10.995   4.340   0.965  0.00  0.00    +0.124 C 
BRANCH  14  18
ATOM      5  O   UNL     1      11.839   3.492  -1.158  0.00  0.00    -0.251 OA
ATOM     18  C   UNL     1      10.984   4.084  -0.516  0.00  0.00    +0.305 C 
BRANCH  18   4
ATOM      4  O   UNL     1       9.860   4.614  -1.064  0.00  0.00    -0.481 OA
ATOM     32  H   UNL     1       9.111   4.617  -0.430  0.00  0.00    +0.295 HD
ENDBRANCH  18   4
ENDBRANCH  14  18
ENDBRANCH   9  14
TORSDOF 6
ENDMDL
MODEL 10
REMARK VINA RESULT:      -6.2     14.625     17.504
REMARK  Name = 51136770
REMARK  6 active torsions:
REMARK  status: ('A' for Active; 'I' for Inactive)
REMARK    1  A    between atoms: O_4  and  C_18
REMARK    2  A    between atoms: C_8  and  C_13
REMARK    3  A    between atoms: C_9  and  C_14
REMARK    4  A    between atoms: C_13  and  C_15
REMARK    5  A    between atoms: C_14  and  C_18
REMARK    6  A    between atoms: C_16  and  C_22
REMARK                            x       y       z     vdW  Elec       q    Type
REMARK                         _______ _______ _______ _____ _____    ______ ____
ROOT
ATOM      3  O   UNL     1      17.241  -3.882  29.099  0.00  0.00    -0.270 OA
ATOM      6  N   UNL     1      17.716  -5.885  27.988  0.00  0.00    -0.297 N 
ATOM      8  C   UNL     1      17.339  -7.423  26.072  0.00  0.00    +0.016 C 
ATOM      9  C   UNL     1      16.494  -8.322  27.011  0.00  0.00    +0.006 C 
ATOM     10  C   UNL     1      15.875  -7.512  28.162  0.00  0.00    +0.023 C 
ATOM     11  C   UNL     1      18.366  -6.624  26.896  0.00  0.00    +0.112 C 
ATOM     12  C   UNL     1      16.937  -6.711  28.908  0.00  0.00    +0.108 C 
ATOM     16  C   UNL     1      17.787  -4.505  28.190  0.00  0.00    +0.247 C 
ENDROOT
BRANCH  16  22
ATOM      2  F   UNL     1      20.809  -1.468  24.589  0.00  0.00    -0.205 F 
ATOM     22  C   UNL     1      18.579  -3.709  27.245  0.00  0.00    +0.037 A 
ATOM     26  C   UNL     1      18.120  -2.459  26.830  0.00  0.00    +0.016 A 
ATOM     27  C   UNL     1      19.793  -4.202  26.764  0.00  0.00    +0.016 A 
ATOM     29  C   UNL     1      18.873  -1.703  25.933  0.00  0.00    +0.039 A 
ATOM     30  C   UNL     1      20.545  -3.445  25.866  0.00  0.00    +0.039 A 
ATOM     31  C   UNL     1      20.086  -2.196  25.451  0.00  0.00    +0.123 A 
ENDBRANCH  16  22
BRANCH   8  13
ATOM     13  C   UNL     1      16.505  -6.476  25.199  0.00  0.00    +0.061 C 
BRANCH  13  15
ATOM      1  F   UNL     1      17.170  -0.676  22.322  0.00  0.00    -0.205 F 
ATOM      7  N   UNL     1      18.079  -6.895  23.433  0.00  0.00    -0.287 NA
ATOM     15  C   UNL     1      17.320  -6.023  24.012  0.00  0.00    +0.044 C 
ATOM     17  C   UNL     1      17.221  -4.607  23.575  0.00  0.00    -0.001 A 
ATOM     19  C   UNL     1      18.246  -4.127  22.750  0.00  0.00    -0.034 A 
ATOM     20  C   UNL     1      19.367  -5.053  22.381  0.00  0.00    +0.059 C 
ATOM     21  C   UNL     1      18.824  -6.470  22.243  0.00  0.00    +0.146 C 
ATOM     23  C   UNL     1      16.173  -3.769  23.963  0.00  0.00    +0.013 A 
ATOM     24  C   UNL     1      18.231  -2.792  22.337  0.00  0.00    +0.042 A 
ATOM     25  C   UNL     1      16.159  -2.441  23.532  0.00  0.00    +0.039 A 
ATOM     28  C   UNL     1      17.186  -1.953  22.724  0.00  0.00    +0.124 A 
ENDBRANCH  13  15
ENDBRANCH   8  13
BRANCH   9  14
ATOM     14  C   UNL     1      15.419  -9.118  26.272  0.00  0.00    +0.124 C 
BRANCH  14  18
ATOM      5  O   UNL     1      15.625 -10.861  24.580  0.00  0.00    -0.251 OA
ATOM     18  C   UNL     1      15.984 -10.356  25.634  0.00  0.00    +0.305 C 
BRANCH  18   4
ATOM      4  O   UNL     1      16.980 -10.857  26.410  0.00  0.00    -0.481 OA
ATOM     32  H   UNL     1      17.596 -11.420  25.895  0.00  0.00    +0.295 HD
ENDBRANCH  18   4
ENDBRANCH  14  18
ENDBRANCH   9  14
TORSDOF 6
ENDMDL
