MODEL 1
REMARK VINA RESULT:      -8.3      0.000      0.000
REMARK  Name = 25314270
REMARK  6 active torsions:
REMARK  status: ('A' for Active; 'I' for Inactive)
REMARK    1  A    between atoms: O_3  and  C_11
REMARK    2  A    between atoms: N_7  and  C_10
REMARK    3  A    between atoms: N_8  and  C_12
REMARK    4  A    between atoms: N_8  and  C_20
REMARK    5  A    between atoms: C_20  and  C_22
REMARK    6  A    between atoms: C_21  and  C_23
REMARK                            x       y       z     vdW  Elec       q    Type
REMARK                         _______ _______ _______ _____ _____    ______ ____
ROOT
ATOM      1  O   UNL     1      13.140   9.149  18.977  0.00  0.00    -0.343 OA
ATOM      2  O   UNL     1      11.492   7.759  18.119  0.00  0.00    -0.347 OA
ATOM     10  C   UNL     1      11.481   8.254  20.486  0.00  0.00    +0.143 C 
ATOM     11  C   UNL     1      12.379   7.026  20.768  0.00  0.00    +0.156 C 
ATOM     12  C   UNL     1      13.772   7.102  20.097  0.00  0.00    +0.116 C 
ATOM     13  C   UNL     1      13.744   7.870  18.756  0.00  0.00    +0.166 C 
ATOM     14  C   UNL     1      11.751   8.804  19.073  0.00  0.00    +0.270 C 
ATOM     15  C   UNL     1      12.790   7.289  17.727  0.00  0.00    +0.196 C 
ENDROOT
BRANCH  10   7
ATOM      4  O   UNL     1      12.367  13.737  23.469  0.00  0.00    -0.276 OA
ATOM      7  N   UNL     1      11.709   9.301  21.482  0.00  0.00    -0.290 NA
ATOM      9  N   UNL     1      11.511  11.611  23.077  0.00  0.00    -0.299 N 
ATOM     16  C   UNL     1      10.647   9.345  22.484  0.00  0.00    +0.104 C 
ATOM     17  C   UNL     1      11.945  10.608  20.849  0.00  0.00    +0.104 C 
ATOM     18  C   UNL     1      11.039  10.322  23.594  0.00  0.00    +0.123 C 
ATOM     19  C   UNL     1      11.395  11.804  21.636  0.00  0.00    +0.123 C 
ATOM     21  C   UNL     1      11.968  12.649  23.890  0.00  0.00    +0.213 C 
ATOM     23  C   UNL     1      11.962  12.379  25.375  0.00  0.00    +0.109 C 
ENDBRANCH  10   7
BRANCH  11   3
ATOM      3  O   UNL     1      11.695   5.867  20.270  0.00  0.00    -0.388 OA
ATOM     31  H   UNL     1      12.210   5.519  19.521  0.00  0.00    +0.210 HD
ENDBRANCH  11   3
BRANCH  12   8
ATOM      8  N   UNL     1      14.735   7.765  20.983  0.00  0.00    -0.305 NA
ATOM     30  H   UNL     1      14.280   8.512  21.509  0.00  0.00    +0.123 HD
BRANCH   8  20
ATOM     20  C   UNL     1      15.833   8.326  20.215  0.00  0.00    +0.116 C 
BRANCH  20  22
ATOM      5  O   UNL     1      19.267   4.789  19.782  0.00  0.00    -0.453 OA
ATOM      6  O   UNL     1      20.707   5.821  21.416  0.00  0.00    -0.453 OA
ATOM     22  C   UNL     1      17.148   7.680  20.563  0.00  0.00    -0.030 A 
ATOM     24  C   UNL     1      17.523   6.491  19.934  0.00  0.00    +0.054 A 
ATOM     25  C   UNL     1      17.987   8.282  21.516  0.00  0.00    +0.009 A 
ATOM     26  C   UNL     1      18.738   5.937  20.284  0.00  0.00    +0.167 A 
ATOM     27  C   UNL     1      19.212   7.702  21.852  0.00  0.00    +0.050 A 
ATOM     28  C   UNL     1      19.560   6.527  21.218  0.00  0.00    +0.166 A 
ATOM     29  C   UNL     1      20.515   4.722  20.502  0.00  0.00    +0.466 C 
ENDBRANCH  20  22
ENDBRANCH   8  20
ENDBRANCH  12   8
TORSDOF 5
ENDMDL
MODEL 2
REMARK VINA RESULT:      -8.1      2.524      4.487
REMARK  Name = 25314270
REMARK  6 active torsions:
REMARK  status: ('A' for Active; 'I' for Inactive)
REMARK    1  A    between atoms: O_3  and  C_11
REMARK    2  A    between atoms: N_7  and  C_10
REMARK    3  A    between atoms: N_8  and  C_12
REMARK    4  A    between atoms: N_8  and  C_20
REMARK    5  A    between atoms: C_20  and  C_22
REMARK    6  A    between atoms: C_21  and  C_23
REMARK                            x       y       z     vdW  Elec       q    Type
REMARK                         _______ _______ _______ _____ _____    ______ ____
ROOT
ATOM      1  O   UNL     1      11.893   7.232  19.551  0.00  0.00    -0.343 OA
ATOM      2  O   UNL     1      10.451   8.209  21.083  0.00  0.00    -0.347 OA
ATOM     10  C   UNL     1      12.350   9.483  20.297  0.00  0.00    +0.143 C 
ATOM     11  C   UNL     1      13.221   8.938  21.454  0.00  0.00    +0.156 C 
ATOM     12  C   UNL     1      13.413   7.402  21.423  0.00  0.00    +0.116 C 
ATOM     13  C   UNL     1      12.193   6.662  20.830  0.00  0.00    +0.166 C 
ATOM     14  C   UNL     1      11.258   8.464  19.921  0.00  0.00    +0.270 C 
ATOM     15  C   UNL     1      10.889   6.929  21.562  0.00  0.00    +0.196 C 
ENDROOT
BRANCH  10   7
ATOM      4  O   UNL     1      14.750   9.934  14.484  0.00  0.00    -0.276 OA
ATOM      7  N   UNL     1      13.174   9.786  19.127  0.00  0.00    -0.290 NA
ATOM      9  N   UNL     1      14.089  10.629  16.603  0.00  0.00    -0.299 N 
ATOM     16  C   UNL     1      13.278  11.224  18.888  0.00  0.00    +0.104 C 
ATOM     17  C   UNL     1      12.723   9.046  17.940  0.00  0.00    +0.104 C 
ATOM     18  C   UNL     1      14.301  11.479  17.779  0.00  0.00    +0.123 C 
ATOM     19  C   UNL     1      12.885   9.806  16.617  0.00  0.00    +0.123 C 
ATOM     21  C   UNL     1      14.917  10.643  15.480  0.00  0.00    +0.213 C 
ATOM     23  C   UNL     1      16.084  11.598  15.530  0.00  0.00    +0.109 C 
ENDBRANCH  10   7
BRANCH  11   3
ATOM      3  O   UNL     1      12.574   9.292  22.685  0.00  0.00    -0.388 OA
ATOM     31  H   UNL     1      13.069  10.034  23.076  0.00  0.00    +0.210 HD
ENDBRANCH  11   3
BRANCH  12   8
ATOM      8  N   UNL     1      14.594   7.047  20.627  0.00  0.00    -0.305 NA
ATOM     30  H   UNL     1      14.888   6.092  20.831  0.00  0.00    +0.123 HD
BRANCH   8  20
ATOM     20  C   UNL     1      15.692   7.954  20.912  0.00  0.00    +0.116 C 
BRANCH  20  22
ATOM      5  O   UNL     1      20.411   7.181  22.187  0.00  0.00    -0.453 OA
ATOM      6  O   UNL     1      20.722   5.507  20.481  0.00  0.00    -0.453 OA
ATOM     22  C   UNL     1      17.030   7.278  20.767  0.00  0.00    -0.030 A 
ATOM     24  C   UNL     1      18.078   7.624  21.623  0.00  0.00    +0.054 A 
ATOM     25  C   UNL     1      17.211   6.302  19.772  0.00  0.00    +0.009 A 
ATOM     26  C   UNL     1      19.284   6.976  21.453  0.00  0.00    +0.167 A 
ATOM     27  C   UNL     1      18.442   5.660  19.621  0.00  0.00    +0.050 A 
ATOM     28  C   UNL     1      19.462   6.020  20.478  0.00  0.00    +0.166 A 
ATOM     29  C   UNL     1      21.318   6.246  21.567  0.00  0.00    +0.466 C 
ENDBRANCH  20  22
ENDBRANCH   8  20
ENDBRANCH  12   8
TORSDOF 5
ENDMDL
MODEL 3
REMARK VINA RESULT:      -7.5     26.795     29.495
REMARK  Name = 25314270
REMARK  6 active torsions:
REMARK  status: ('A' for Active; 'I' for Inactive)
REMARK    1  A    between atoms: O_3  and  C_11
REMARK    2  A    between atoms: N_7  and  C_10
REMARK    3  A    between atoms: N_8  and  C_12
REMARK    4  A    between atoms: N_8  and  C_20
REMARK    5  A    between atoms: C_20  and  C_22
REMARK    6  A    between atoms: C_21  and  C_23
REMARK                            x       y       z     vdW  Elec       q    Type
REMARK                         _______ _______ _______ _____ _____    ______ ____
ROOT
ATOM      1  O   UNL     1      -4.675  -9.836  16.831  0.00  0.00    -0.343 OA
ATOM      2  O   UNL     1      -3.848 -11.617  18.067  0.00  0.00    -0.347 OA
ATOM     10  C   UNL     1      -4.026 -11.849  15.667  0.00  0.00    +0.143 C 
ATOM     11  C   UNL     1      -5.462 -12.410  15.807  0.00  0.00    +0.156 C 
ATOM     12  C   UNL     1      -6.465 -11.413  16.437  0.00  0.00    +0.116 C 
ATOM     13  C   UNL     1      -5.797 -10.466  17.460  0.00  0.00    +0.166 C 
ATOM     14  C   UNL     1      -3.707 -10.894  16.832  0.00  0.00    +0.270 C 
ATOM     15  C   UNL     1      -5.104 -11.180  18.608  0.00  0.00    +0.196 C 
ENDROOT
BRANCH  10   7
ATOM      4  O   UNL     1      -1.749  -9.001  10.524  0.00  0.00    -0.276 OA
ATOM      7  N   UNL     1      -3.866 -11.152  14.391  0.00  0.00    -0.290 NA
ATOM      9  N   UNL     1      -3.097 -10.414  11.786  0.00  0.00    -0.299 N 
ATOM     16  C   UNL     1      -4.424 -11.915  13.277  0.00  0.00    +0.104 C 
ATOM     17  C   UNL     1      -2.468 -10.757  14.162  0.00  0.00    +0.104 C 
ATOM     18  C   UNL     1      -4.397 -11.053  12.012  0.00  0.00    +0.123 C 
ATOM     19  C   UNL     1      -2.025 -10.805  12.694  0.00  0.00    +0.123 C 
ATOM     21  C   UNL     1      -2.836  -9.545  10.726  0.00  0.00    +0.213 C 
ATOM     23  C   UNL     1      -3.991  -9.277   9.791  0.00  0.00    +0.109 C 
ENDBRANCH  10   7
BRANCH  11   3
ATOM      3  O   UNL     1      -5.391 -13.576  16.641  0.00  0.00    -0.388 OA
ATOM     31  H   UNL     1      -6.302 -13.840  16.857  0.00  0.00    +0.210 HD
ENDBRANCH  11   3
BRANCH  12   8
ATOM      8  N   UNL     1      -7.096 -10.592  15.398  0.00  0.00    -0.305 NA
ATOM     30  H   UNL     1      -6.893  -9.604  15.552  0.00  0.00    +0.123 HD
BRANCH   8  20
ATOM     20  C   UNL     1      -8.535 -10.788  15.399  0.00  0.00    +0.116 C 
BRANCH  20  22
ATOM      5  O   UNL     1     -11.552  -7.017  14.316  0.00  0.00    -0.453 OA
ATOM      6  O   UNL     1     -11.343  -6.062  16.519  0.00  0.00    -0.453 OA
ATOM     22  C   UNL     1      -9.274  -9.519  15.733  0.00  0.00    -0.030 A 
ATOM     24  C   UNL     1     -10.075  -8.908  14.767  0.00  0.00    +0.054 A 
ATOM     25  C   UNL     1      -9.151  -8.962  17.018  0.00  0.00    +0.009 A 
ATOM     26  C   UNL     1     -10.734  -7.748  15.120  0.00  0.00    +0.167 A 
ATOM     27  C   UNL     1      -9.829  -7.787  17.352  0.00  0.00    +0.050 A 
ATOM     28  C   UNL     1     -10.614  -7.202  16.379  0.00  0.00    +0.166 A 
ATOM     29  C   UNL     1     -11.935  -5.950  15.208  0.00  0.00    +0.466 C 
ENDBRANCH  20  22
ENDBRANCH   8  20
ENDBRANCH  12   8
TORSDOF 5
ENDMDL
MODEL 4
REMARK VINA RESULT:      -7.5      1.934      6.827
REMARK  Name = 25314270
REMARK  6 active torsions:
REMARK  status: ('A' for Active; 'I' for Inactive)
REMARK    1  A    between atoms: O_3  and  C_11
REMARK    2  A    between atoms: N_7  and  C_10
REMARK    3  A    between atoms: N_8  and  C_12
REMARK    4  A    between atoms: N_8  and  C_20
REMARK    5  A    between atoms: C_20  and  C_22
REMARK    6  A    between atoms: C_21  and  C_23
REMARK                            x       y       z     vdW  Elec       q    Type
REMARK                         _______ _______ _______ _____ _____    ______ ____
ROOT
ATOM      1  O   UNL     1      12.277   7.975  22.349  0.00  0.00    -0.343 OA
ATOM      2  O   UNL     1      11.294   6.379  20.981  0.00  0.00    -0.347 OA
ATOM     10  C   UNL     1      13.268   7.530  20.193  0.00  0.00    +0.143 C 
ATOM     11  C   UNL     1      12.394   8.631  19.547  0.00  0.00    +0.156 C 
ATOM     12  C   UNL     1      11.541   9.430  20.563  0.00  0.00    +0.116 C 
ATOM     13  C   UNL     1      11.109   8.575  21.777  0.00  0.00    +0.166 C 
ATOM     14  C   UNL     1      12.553   6.923  21.413  0.00  0.00    +0.270 C 
ATOM     15  C   UNL     1      10.313   7.335  21.411  0.00  0.00    +0.196 C 
ENDROOT
BRANCH  10   7
ATOM      4  O   UNL     1      19.300   8.285  21.864  0.00  0.00    -0.276 OA
ATOM      7  N   UNL     1      14.568   8.070  20.592  0.00  0.00    -0.290 NA
ATOM      9  N   UNL     1      17.305   8.706  20.747  0.00  0.00    -0.299 N 
ATOM     16  C   UNL     1      15.108   8.991  19.595  0.00  0.00    +0.104 C 
ATOM     17  C   UNL     1      15.513   7.001  20.946  0.00  0.00    +0.104 C 
ATOM     18  C   UNL     1      16.364   9.662  20.155  0.00  0.00    +0.123 C 
ATOM     19  C   UNL     1      16.973   7.296  20.580  0.00  0.00    +0.123 C 
ATOM     21  C   UNL     1      18.501   9.078  21.363  0.00  0.00    +0.213 C 
ATOM     23  C   UNL     1      18.792  10.558  21.402  0.00  0.00    +0.109 C 
ENDBRANCH  10   7
BRANCH  11   3
ATOM      3  O   UNL     1      11.511   7.991  18.614  0.00  0.00    -0.388 OA
ATOM     31  H   UNL     1      11.845   8.174  17.719  0.00  0.00    +0.210 HD
ENDBRANCH  11   3
BRANCH  12   8
ATOM      8  N   UNL     1      12.288  10.589  21.064  0.00  0.00    -0.305 NA
ATOM     30  H   UNL     1      13.043  10.288  21.680  0.00  0.00    +0.123 HD
BRANCH   8  20
ATOM     20  C   UNL     1      11.408  11.487  21.792  0.00  0.00    +0.116 C 
BRANCH  20  22
ATOM      5  O   UNL     1      14.983  11.596  25.213  0.00  0.00    -0.453 OA
ATOM      6  O   UNL     1      13.572  12.704  26.822  0.00  0.00    -0.453 OA
ATOM     22  C   UNL     1      11.956  11.827  23.153  0.00  0.00    -0.030 A 
ATOM     24  C   UNL     1      13.276  11.501  23.469  0.00  0.00    +0.054 A 
ATOM     25  C   UNL     1      11.132  12.472  24.091  0.00  0.00    +0.009 A 
ATOM     26  C   UNL     1      13.734  11.834  24.728  0.00  0.00    +0.167 A 
ATOM     27  C   UNL     1      11.620  12.799  25.359  0.00  0.00    +0.050 A 
ATOM     28  C   UNL     1      12.928  12.466  25.648  0.00  0.00    +0.166 A 
ATOM     29  C   UNL     1      14.874  12.150  26.540  0.00  0.00    +0.466 C 
ENDBRANCH  20  22
ENDBRANCH   8  20
ENDBRANCH  12   8
TORSDOF 5
ENDMDL
MODEL 5
REMARK VINA RESULT:      -7.3     14.567     17.799
REMARK  Name = 25314270
REMARK  6 active torsions:
REMARK  status: ('A' for Active; 'I' for Inactive)
REMARK    1  A    between atoms: O_3  and  C_11
REMARK    2  A    between atoms: N_7  and  C_10
REMARK    3  A    between atoms: N_8  and  C_12
REMARK    4  A    between atoms: N_8  and  C_20
REMARK    5  A    between atoms: C_20  and  C_22
REMARK    6  A    between atoms: C_21  and  C_23
REMARK                            x       y       z     vdW  Elec       q    Type
REMARK                         _______ _______ _______ _____ _____    ______ ____
ROOT
ATOM      1  O   UNL     1      10.033   8.132   5.210  0.00  0.00    -0.343 OA
ATOM      2  O   UNL     1       9.067   8.415   7.300  0.00  0.00    -0.347 OA
ATOM     10  C   UNL     1      11.422   7.885   7.169  0.00  0.00    +0.143 C 
ATOM     11  C   UNL     1      11.106   6.371   7.221  0.00  0.00    +0.156 C 
ATOM     12  C   UNL     1      10.261   5.867   6.025  0.00  0.00    +0.116 C 
ATOM     13  C   UNL     1       9.287   6.942   5.491  0.00  0.00    +0.166 C 
ATOM     14  C   UNL     1      10.255   8.656   6.526  0.00  0.00    +0.270 C 
ATOM     15  C   UNL     1       8.312   7.468   6.529  0.00  0.00    +0.196 C 
ENDROOT
BRANCH  10   7
ATOM      4  O   UNL     1      16.640  10.397   4.676  0.00  0.00    -0.276 OA
ATOM      7  N   UNL     1      12.655   8.130   6.421  0.00  0.00    -0.290 NA
ATOM      9  N   UNL     1      15.289   8.795   5.683  0.00  0.00    -0.299 N 
ATOM     16  C   UNL     1      13.722   7.208   6.806  0.00  0.00    +0.104 C 
ATOM     17  C   UNL     1      13.068   9.539   6.504  0.00  0.00    +0.104 C 
ATOM     18  C   UNL     1      14.911   7.389   5.861  0.00  0.00    +0.123 C 
ATOM     19  C   UNL     1      14.586   9.757   6.524  0.00  0.00    +0.123 C 
ATOM     21  C   UNL     1      16.312   9.219   4.835  0.00  0.00    +0.213 C 
ATOM     23  C   UNL     1      17.037   8.133   4.078  0.00  0.00    +0.109 C 
ENDBRANCH  10   7
BRANCH  11   3
ATOM      3  O   UNL     1      10.376   6.123   8.432  0.00  0.00    -0.388 OA
ATOM     31  H   UNL     1      11.025   5.973   9.141  0.00  0.00    +0.210 HD
ENDBRANCH  11   3
BRANCH  12   8
ATOM      8  N   UNL     1      11.131   5.449   4.920  0.00  0.00    -0.305 NA
ATOM     30  H   UNL     1      11.356   6.245   4.322  0.00  0.00    +0.123 HD
BRANCH   8  20
ATOM     20  C   UNL     1      10.483   4.423   4.122  0.00  0.00    +0.116 C 
BRANCH  20  22
ATOM      5  O   UNL     1      13.256   3.113   0.238  0.00  0.00    -0.453 OA
ATOM      6  O   UNL     1      12.089   4.608  -1.250  0.00  0.00    -0.453 OA
ATOM     22  C   UNL     1      10.889   4.499   2.674  0.00  0.00    -0.030 A 
ATOM     24  C   UNL     1      11.935   3.702   2.205  0.00  0.00    +0.054 A 
ATOM     25  C   UNL     1      10.208   5.371   1.807  0.00  0.00    +0.009 A 
ATOM     26  C   UNL     1      12.270   3.805   0.870  0.00  0.00    +0.167 A 
ATOM     27  C   UNL     1      10.566   5.456   0.459  0.00  0.00    +0.050 A 
ATOM     28  C   UNL     1      11.603   4.659   0.020  0.00  0.00    +0.166 A 
ATOM     29  C   UNL     1      13.135   3.625  -1.105  0.00  0.00    +0.466 C 
ENDBRANCH  20  22
ENDBRANCH   8  20
ENDBRANCH  12   8
TORSDOF 5
ENDMDL
MODEL 6
REMARK VINA RESULT:      -7.2      2.041      5.642
REMARK  Name = 25314270
REMARK  6 active torsions:
REMARK  status: ('A' for Active; 'I' for Inactive)
REMARK    1  A    between atoms: O_3  and  C_11
REMARK    2  A    between atoms: N_7  and  C_10
REMARK    3  A    between atoms: N_8  and  C_12
REMARK    4  A    between atoms: N_8  and  C_20
REMARK    5  A    between atoms: C_20  and  C_22
REMARK    6  A    between atoms: C_21  and  C_23
REMARK                            x       y       z     vdW  Elec       q    Type
REMARK                         _______ _______ _______ _____ _____    ______ ____
ROOT
ATOM      1  O   UNL     1      12.324  11.447  25.359  0.00  0.00    -0.343 OA
ATOM      2  O   UNL     1      10.873  13.254  25.250  0.00  0.00    -0.347 OA
ATOM     10  C   UNL     1      11.486  12.130  23.200  0.00  0.00    +0.143 C 
ATOM     11  C   UNL     1      12.694  13.080  23.016  0.00  0.00    +0.156 C 
ATOM     12  C   UNL     1      13.746  12.982  24.147  0.00  0.00    +0.116 C 
ATOM     13  C   UNL     1      13.116  12.630  25.515  0.00  0.00    +0.166 C 
ATOM     14  C   UNL     1      11.160  11.959  24.694  0.00  0.00    +0.270 C 
ATOM     15  C   UNL     1      12.055  13.611  25.982  0.00  0.00    +0.196 C 
ENDROOT
BRANCH  10   7
ATOM      4  O   UNL     1      11.312   6.086  21.414  0.00  0.00    -0.276 OA
ATOM      7  N   UNL     1      11.758  10.826  22.595  0.00  0.00    -0.290 NA
ATOM      9  N   UNL     1      11.547   8.390  21.202  0.00  0.00    -0.299 N 
ATOM     16  C   UNL     1      11.718  10.880  21.135  0.00  0.00    +0.104 C 
ATOM     17  C   UNL     1      10.884   9.781  23.147  0.00  0.00    +0.104 C 
ATOM     18  C   UNL     1      12.196   9.542  20.567  0.00  0.00    +0.123 C 
ATOM     19  C   UNL     1      10.476   8.697  22.142  0.00  0.00    +0.123 C 
ATOM     21  C   UNL     1      11.849   7.064  20.888  0.00  0.00    +0.213 C 
ATOM     23  C   UNL     1      12.910   6.858  19.836  0.00  0.00    +0.109 C 
ENDBRANCH  10   7
BRANCH  11   3
ATOM      3  O   UNL     1      12.186  14.422  22.979  0.00  0.00    -0.388 OA
ATOM     31  H   UNL     1      11.267  14.382  22.663  0.00  0.00    +0.210 HD
ENDBRANCH  11   3
BRANCH  12   8
ATOM      8  N   UNL     1      14.750  11.961  23.830  0.00  0.00    -0.305 NA
ATOM     30  H   UNL     1      15.587  12.094  24.399  0.00  0.00    +0.123 HD
BRANCH   8  20
ATOM     20  C   UNL     1      15.114  12.024  22.425  0.00  0.00    +0.116 C 
BRANCH  20  22
ATOM      5  O   UNL     1      15.858   7.197  21.626  0.00  0.00    -0.453 OA
ATOM      6  O   UNL     1      18.129   7.545  20.901  0.00  0.00    -0.453 OA
ATOM     22  C   UNL     1      15.953  10.844  22.010  0.00  0.00    -0.030 A 
ATOM     24  C   UNL     1      15.408   9.559  22.047  0.00  0.00    +0.054 A 
ATOM     25  C   UNL     1      17.278  11.047  21.588  0.00  0.00    +0.009 A 
ATOM     26  C   UNL     1      16.213   8.510  21.655  0.00  0.00    +0.167 A 
ATOM     27  C   UNL     1      18.074   9.968  21.196  0.00  0.00    +0.050 A 
ATOM     28  C   UNL     1      17.511   8.709  21.241  0.00  0.00    +0.166 A 
ATOM     29  C   UNL     1      17.076   6.591  21.146  0.00  0.00    +0.466 C 
ENDBRANCH  20  22
ENDBRANCH   8  20
ENDBRANCH  12   8
TORSDOF 5
ENDMDL
MODEL 7
REMARK VINA RESULT:      -7.2     27.156     29.749
REMARK  Name = 25314270
REMARK  6 active torsions:
REMARK  status: ('A' for Active; 'I' for Inactive)
REMARK    1  A    between atoms: O_3  and  C_11
REMARK    2  A    between atoms: N_7  and  C_10
REMARK    3  A    between atoms: N_8  and  C_12
REMARK    4  A    between atoms: N_8  and  C_20
REMARK    5  A    between atoms: C_20  and  C_22
REMARK    6  A    between atoms: C_21  and  C_23
REMARK                            x       y       z     vdW  Elec       q    Type
REMARK                         _______ _______ _______ _____ _____    ______ ____
ROOT
ATOM      1  O   UNL     1      -4.782 -10.301  17.986  0.00  0.00    -0.343 OA
ATOM      2  O   UNL     1      -4.412 -12.239  19.207  0.00  0.00    -0.347 OA
ATOM     10  C   UNL     1      -4.590 -12.395  16.801  0.00  0.00    +0.143 C 
ATOM     11  C   UNL     1      -6.118 -12.612  16.906  0.00  0.00    +0.156 C 
ATOM     12  C   UNL     1      -6.878 -11.419  17.536  0.00  0.00    +0.116 C 
ATOM     13  C   UNL     1      -6.031 -10.663  18.585  0.00  0.00    +0.166 C 
ATOM     14  C   UNL     1      -4.083 -11.553  17.986  0.00  0.00    +0.270 C 
ATOM     15  C   UNL     1      -5.545 -11.530  19.733  0.00  0.00    +0.196 C 
ENDROOT
BRANCH  10   7
ATOM      4  O   UNL     1      -1.596  -9.970  11.810  0.00  0.00    -0.276 OA
ATOM      7  N   UNL     1      -4.247 -11.739  15.539  0.00  0.00    -0.290 NA
ATOM      9  N   UNL     1      -3.222 -11.145  12.986  0.00  0.00    -0.299 N 
ATOM     16  C   UNL     1      -4.855 -12.408  14.391  0.00  0.00    +0.104 C 
ATOM     17  C   UNL     1      -2.793 -11.573  15.393  0.00  0.00    +0.104 C 
ATOM     18  C   UNL     1      -4.619 -11.568  13.134  0.00  0.00    +0.123 C 
ATOM     19  C   UNL     1      -2.281 -11.698  13.952  0.00  0.00    +0.123 C 
ATOM     21  C   UNL     1      -2.766 -10.333  11.946  0.00  0.00    +0.213 C 
ATOM     23  C   UNL     1      -3.808  -9.889  10.948  0.00  0.00    +0.109 C 
ENDBRANCH  10   7
BRANCH  11   3
ATOM      3  O   UNL     1      -6.335 -13.772  17.723  0.00  0.00    -0.388 OA
ATOM     31  H   UNL     1      -5.467 -14.177  17.897  0.00  0.00    +0.210 HD
ENDBRANCH  11   3
BRANCH  12   8
ATOM      8  N   UNL     1      -7.282 -10.461  16.499  0.00  0.00    -0.305 NA
ATOM     30  H   UNL     1      -6.484 -10.211  15.914  0.00  0.00    +0.123 HD
BRANCH   8  20
ATOM     20  C   UNL     1      -7.826  -9.257  17.103  0.00  0.00    +0.116 C 
BRANCH  20  22
ATOM      5  O   UNL     1     -11.580  -6.114  16.384  0.00  0.00    -0.453 OA
ATOM      6  O   UNL     1     -12.255  -7.201  14.341  0.00  0.00    -0.453 OA
ATOM     22  C   UNL     1      -9.011  -8.733  16.336  0.00  0.00    -0.030 A 
ATOM     24  C   UNL     1      -9.708  -7.620  16.814  0.00  0.00    +0.054 A 
ATOM     25  C   UNL     1      -9.405  -9.368  15.146  0.00  0.00    +0.009 A 
ATOM     26  C   UNL     1     -10.786  -7.175  16.077  0.00  0.00    +0.167 A 
ATOM     27  C   UNL     1     -10.501  -8.897  14.418  0.00  0.00    +0.050 A 
ATOM     28  C   UNL     1     -11.172  -7.796  14.910  0.00  0.00    +0.166 A 
ATOM     29  C   UNL     1     -12.508  -6.135  15.280  0.00  0.00    +0.466 C 
ENDBRANCH  20  22
ENDBRANCH   8  20
ENDBRANCH  12   8
TORSDOF 5
ENDMDL
MODEL 8
REMARK VINA RESULT:      -7.2     14.248     16.775
REMARK  Name = 25314270
REMARK  6 active torsions:
REMARK  status: ('A' for Active; 'I' for Inactive)
REMARK    1  A    between atoms: O_3  and  C_11
REMARK    2  A    between atoms: N_7  and  C_10
REMARK    3  A    between atoms: N_8  and  C_12
REMARK    4  A    between atoms: N_8  and  C_20
REMARK    5  A    between atoms: C_20  and  C_22
REMARK    6  A    between atoms: C_21  and  C_23
REMARK                            x       y       z     vdW  Elec       q    Type
REMARK                         _______ _______ _______ _____ _____    ______ ____
ROOT
ATOM      1  O   UNL     1       8.823   6.168   6.837  0.00  0.00    -0.343 OA
ATOM      2  O   UNL     1       9.895   5.342   8.721  0.00  0.00    -0.347 OA
ATOM     10  C   UNL     1      10.649   7.436   7.779  0.00  0.00    +0.143 C 
ATOM     11  C   UNL     1      11.655   6.689   6.871  0.00  0.00    +0.156 C 
ATOM     12  C   UNL     1      10.989   5.726   5.858  0.00  0.00    +0.116 C 
ATOM     13  C   UNL     1       9.680   5.107   6.400  0.00  0.00    +0.166 C 
ATOM     14  C   UNL     1       9.432   6.543   8.081  0.00  0.00    +0.270 C 
ATOM     15  C   UNL     1       9.847   4.337   7.698  0.00  0.00    +0.196 C 
ENDROOT
BRANCH  10   7
ATOM      4  O   UNL     1       8.257  13.145   6.580  0.00  0.00    -0.276 OA
ATOM      7  N   UNL     1      10.211   8.682   7.149  0.00  0.00    -0.290 NA
ATOM      9  N   UNL     1       9.780  11.389   6.513  0.00  0.00    -0.299 N 
ATOM     16  C   UNL     1      11.330   9.433   6.584  0.00  0.00    +0.104 C 
ATOM     17  C   UNL     1       9.391   9.491   8.063  0.00  0.00    +0.104 C 
ATOM     18  C   UNL     1      10.788  10.617   5.779  0.00  0.00    +0.123 C 
ATOM     19  C   UNL     1       9.567  11.006   7.903  0.00  0.00    +0.123 C 
ATOM     21  C   UNL     1       9.106  12.487   5.976  0.00  0.00    +0.213 C 
ATOM     23  C   UNL     1       9.467  12.855   4.557  0.00  0.00    +0.109 C 
ENDBRANCH  10   7
BRANCH  11   3
ATOM      3  O   UNL     1      12.523   5.927   7.722  0.00  0.00    -0.388 OA
ATOM     31  H   UNL     1      13.433   6.233   7.566  0.00  0.00    +0.210 HD
ENDBRANCH  11   3
BRANCH  12   8
ATOM      8  N   UNL     1      10.679   6.427   4.607  0.00  0.00    -0.305 NA
ATOM     30  H   UNL     1       9.924   7.098   4.752  0.00  0.00    +0.123 HD
BRANCH   8  20
ATOM     20  C   UNL     1      10.285   5.482   3.577  0.00  0.00    +0.116 C 
BRANCH  20  22
ATOM      5  O   UNL     1      14.656   6.032   1.322  0.00  0.00    -0.453 OA
ATOM      6  O   UNL     1      14.758   3.707   0.694  0.00  0.00    -0.453 OA
ATOM     22  C   UNL     1      11.470   4.971   2.801  0.00  0.00    -0.030 A 
ATOM     24  C   UNL     1      12.501   5.848   2.455  0.00  0.00    +0.054 A 
ATOM     25  C   UNL     1      11.529   3.616   2.435  0.00  0.00    +0.009 A 
ATOM     26  C   UNL     1      13.567   5.334   1.746  0.00  0.00    +0.167 A 
ATOM     27  C   UNL     1      12.620   3.120   1.717  0.00  0.00    +0.050 A 
ATOM     28  C   UNL     1      13.626   4.006   1.386  0.00  0.00    +0.166 A 
ATOM     29  C   UNL     1      15.407   4.995   0.657  0.00  0.00    +0.466 C 
ENDBRANCH  20  22
ENDBRANCH   8  20
ENDBRANCH  12   8
TORSDOF 5
ENDMDL
MODEL 9
REMARK VINA RESULT:      -7.1     26.081     29.117
REMARK  Name = 25314270
REMARK  6 active torsions:
REMARK  status: ('A' for Active; 'I' for Inactive)
REMARK    1  A    between atoms: O_3  and  C_11
REMARK    2  A    between atoms: N_7  and  C_10
REMARK    3  A    between atoms: N_8  and  C_12
REMARK    4  A    between atoms: N_8  and  C_20
REMARK    5  A    between atoms: C_20  and  C_22
REMARK    6  A    between atoms: C_21  and  C_23
REMARK                            x       y       z     vdW  Elec       q    Type
REMARK                         _______ _______ _______ _____ _____    ______ ____
ROOT
ATOM      1  O   UNL     1      -7.855  -8.717  17.064  0.00  0.00    -0.343 OA
ATOM      2  O   UNL     1      -9.084 -10.204  18.353  0.00  0.00    -0.347 OA
ATOM     10  C   UNL     1      -7.375 -11.076  16.881  0.00  0.00    +0.143 C 
ATOM     11  C   UNL     1      -8.403 -11.211  15.733  0.00  0.00    +0.156 C 
ATOM     12  C   UNL     1      -9.019  -9.864  15.283  0.00  0.00    +0.116 C 
ATOM     13  C   UNL     1      -9.138  -8.848  16.442  0.00  0.00    +0.166 C 
ATOM     14  C   UNL     1      -7.773  -9.929  17.827  0.00  0.00    +0.270 C 
ATOM     15  C   UNL     1      -9.964  -9.341  17.617  0.00  0.00    +0.196 C 
ENDROOT
BRANCH  10   7
ATOM      4  O   UNL     1      -1.162 -10.294  16.143  0.00  0.00    -0.276 OA
ATOM      7  N   UNL     1      -6.033 -10.841  16.348  0.00  0.00    -0.290 NA
ATOM      9  N   UNL     1      -3.308 -11.060  15.678  0.00  0.00    -0.299 N 
ATOM     16  C   UNL     1      -5.658 -11.839  15.349  0.00  0.00    +0.104 C 
ATOM     17  C   UNL     1      -5.038 -10.715  17.424  0.00  0.00    +0.104 C 
ATOM     18  C   UNL     1      -4.335 -11.429  14.698  0.00  0.00    +0.123 C 
ATOM     19  C   UNL     1      -3.653 -11.277  17.078  0.00  0.00    +0.123 C 
ATOM     21  C   UNL     1      -2.035 -10.608  15.330  0.00  0.00    +0.213 C 
ATOM     23  C   UNL     1      -1.750 -10.506  13.851  0.00  0.00    +0.109 C 
ENDBRANCH  10   7
BRANCH  11   3
ATOM      3  O   UNL     1      -9.460 -12.064  16.197  0.00  0.00    -0.388 OA
ATOM     31  H   UNL     1      -9.614 -12.741  15.515  0.00  0.00    +0.210 HD
ENDBRANCH  11   3
BRANCH  12   8
ATOM      8  N   UNL     1      -8.208  -9.255  14.223  0.00  0.00    -0.305 NA
ATOM     30  H   UNL     1      -8.328  -8.242  14.219  0.00  0.00    +0.123 HD
BRANCH   8  20
ATOM     20  C   UNL     1      -8.586  -9.784  12.924  0.00  0.00    +0.116 C 
BRANCH  20  22
ATOM      5  O   UNL     1      -3.915  -9.552  11.304  0.00  0.00    -0.453 OA
ATOM      6  O   UNL     1      -4.586  -8.788   9.119  0.00  0.00    -0.453 OA
ATOM     22  C   UNL     1      -7.538  -9.506  11.879  0.00  0.00    -0.030 A 
ATOM     24  C   UNL     1      -6.189  -9.694  12.183  0.00  0.00    +0.054 A 
ATOM     25  C   UNL     1      -7.930  -9.059  10.605  0.00  0.00    +0.009 A 
ATOM     26  C   UNL     1      -5.265  -9.428  11.192  0.00  0.00    +0.167 A 
ATOM     27  C   UNL     1      -6.975  -8.797   9.619  0.00  0.00    +0.050 A 
ATOM     28  C   UNL     1      -5.648  -8.991   9.944  0.00  0.00    +0.166 A 
ATOM     29  C   UNL     1      -3.490  -9.146   9.987  0.00  0.00    +0.466 C 
ENDBRANCH  20  22
ENDBRANCH   8  20
ENDBRANCH  12   8
TORSDOF 5
ENDMDL
MODEL 10
REMARK VINA RESULT:      -7.1     27.708     30.388
REMARK  Name = 25314270
REMARK  6 active torsions:
REMARK  status: ('A' for Active; 'I' for Inactive)
REMARK    1  A    between atoms: O_3  and  C_11
REMARK    2  A    between atoms: N_7  and  C_10
REMARK    3  A    between atoms: N_8  and  C_12
REMARK    4  A    between atoms: N_8  and  C_20
REMARK    5  A    between atoms: C_20  and  C_22
REMARK    6  A    between atoms: C_21  and  C_23
REMARK                            x       y       z     vdW  Elec       q    Type
REMARK                         _______ _______ _______ _____ _____    ______ ____
ROOT
ATOM      1  O   UNL     1     -10.736 -12.936  18.149  0.00  0.00    -0.343 OA
ATOM      2  O   UNL     1     -12.224 -11.647  19.376  0.00  0.00    -0.347 OA
ATOM     10  C   UNL     1     -10.304 -10.571  18.374  0.00  0.00    +0.143 C 
ATOM     11  C   UNL     1      -9.467 -10.830  19.649  0.00  0.00    +0.156 C 
ATOM     12  C   UNL     1      -9.272 -12.331  19.976  0.00  0.00    +0.116 C 
ATOM     13  C   UNL     1     -10.474 -13.197  19.533  0.00  0.00    +0.166 C 
ATOM     14  C   UNL     1     -11.383 -11.657  18.209  0.00  0.00    +0.270 C 
ATOM     15  C   UNL     1     -11.799 -12.781  20.146  0.00  0.00    +0.196 C 
ENDROOT
BRANCH  10   7
ATOM      4  O   UNL     1      -8.005 -10.045  12.527  0.00  0.00    -0.276 OA
ATOM      7  N   UNL     1      -9.445 -10.536  17.190  0.00  0.00    -0.290 NA
ATOM      9  N   UNL     1      -8.111  -9.770  14.833  0.00  0.00    -0.299 N 
ATOM     16  C   UNL     1      -8.401  -9.521  17.301  0.00  0.00    +0.104 C 
ATOM     17  C   UNL     1     -10.232 -10.407  15.954  0.00  0.00    +0.104 C 
ATOM     18  C   UNL     1      -7.429  -9.665  16.128  0.00  0.00    +0.123 C 
ATOM     19  C   UNL     1      -9.556  -9.578  14.855  0.00  0.00    +0.123 C 
ATOM     21  C   UNL     1      -7.445  -9.955  13.621  0.00  0.00    +0.213 C 
ATOM     23  C   UNL     1      -5.940 -10.051  13.701  0.00  0.00    +0.109 C 
ENDBRANCH  10   7
BRANCH  11   3
ATOM      3  O   UNL     1     -10.150 -10.209  20.748  0.00  0.00    -0.388 OA
ATOM     31  H   UNL     1     -10.446 -10.915  21.349  0.00  0.00    +0.210 HD
ENDBRANCH  11   3
BRANCH  12   8
ATOM      8  N   UNL     1      -8.068 -12.849  19.316  0.00  0.00    -0.305 NA
ATOM     30  H   UNL     1      -7.877 -13.804  19.621  0.00  0.00    +0.123 HD
BRANCH   8  20
ATOM     20  C   UNL     1      -6.920 -12.013  19.621  0.00  0.00    +0.116 C 
BRANCH  20  22
ATOM      5  O   UNL     1      -5.023 -13.692  15.370  0.00  0.00    -0.453 OA
ATOM      6  O   UNL     1      -3.302 -12.004  15.334  0.00  0.00    -0.453 OA
ATOM     22  C   UNL     1      -5.931 -11.982  18.486  0.00  0.00    -0.030 A 
ATOM     24  C   UNL     1      -6.020 -12.929  17.464  0.00  0.00    +0.054 A 
ATOM     25  C   UNL     1      -4.927 -10.999  18.466  0.00  0.00    +0.009 A 
ATOM     26  C   UNL     1      -5.093 -12.859  16.444  0.00  0.00    +0.167 A 
ATOM     27  C   UNL     1      -4.000 -10.950  17.422  0.00  0.00    +0.050 A 
ATOM     28  C   UNL     1      -4.110 -11.896  16.424  0.00  0.00    +0.166 A 
ATOM     29  C   UNL     1      -3.887 -13.144  14.670  0.00  0.00    +0.466 C 
ENDBRANCH  20  22
ENDBRANCH   8  20
ENDBRANCH  12   8
TORSDOF 5
ENDMDL
