MODEL 1
REMARK VINA RESULT:      -7.7      0.000      0.000
REMARK  Name = 40778210
REMARK  10 active torsions:
REMARK  status: ('A' for Active; 'I' for Inactive)
REMARK    1  A    between atoms: O_2  and  C_11
REMARK    2  A    between atoms: O_3  and  C_12
REMARK    3  A    between atoms: O_5  and  C_23
REMARK    4  A    between atoms: O_5  and  C_31
REMARK    5  A    between atoms: N_8  and  C_21
REMARK    6  A    between atoms: N_9  and  C_15
REMARK    7  A    between atoms: C_10  and  C_14
REMARK    8  A    between atoms: C_13  and  C_15
REMARK    9  A    between atoms: C_14  and  C_16
REMARK   10  A    between atoms: C_22  and  C_25
REMARK                            x       y       z     vdW  Elec       q    Type
REMARK                         _______ _______ _______ _____ _____    ______ ____
ROOT
ATOM      1  O   UNL     1      13.063   8.827  21.579  0.00  0.00    -0.366 OA
ATOM     10  C   UNL     1      12.238  10.003  21.743  0.00  0.00    +0.159 C 
ATOM     11  C   UNL     1      10.850   9.505  22.130  0.00  0.00    +0.175 C 
ATOM     12  C   UNL     1      10.809   8.142  21.468  0.00  0.00    +0.176 C 
ATOM     13  C   UNL     1      12.232   7.657  21.683  0.00  0.00    +0.167 C 
ENDROOT
BRANCH  11   2
ATOM      2  O   UNL     1      10.808   9.368  23.549  0.00  0.00    -0.387 OA
ATOM     35  H   UNL     1      10.298   8.566  23.749  0.00  0.00    +0.210 HD
ENDBRANCH  11   2
BRANCH  12   3
ATOM      3  O   UNL     1       9.859   7.271  22.043  0.00  0.00    -0.387 OA
ATOM     36  H   UNL     1       8.982   7.673  21.919  0.00  0.00    +0.210 HD
ENDBRANCH  12   3
BRANCH  10  14
ATOM     14  C   UNL     1      12.252  10.768  20.426  0.00  0.00    +0.130 C 
BRANCH  14  16
ATOM      4  O   UNL     1      14.020  12.113  21.265  0.00  0.00    -0.276 OA
ATOM      7  N   UNL     1      14.138  11.514  19.023  0.00  0.00    -0.298 N 
ATOM      8  N   UNL     1      15.331  11.735  16.395  0.00  0.00    -0.324 N 
ATOM     16  C   UNL     1      13.547  11.529  20.287  0.00  0.00    +0.218 C 
ATOM     17  C   UNL     1      15.391  12.233  18.805  0.00  0.00    +0.126 C 
ATOM     18  C   UNL     1      13.576  10.819  17.863  0.00  0.00    +0.126 C 
ATOM     19  C   UNL     1      15.485  12.800  17.390  0.00  0.00    +0.124 C 
ATOM     20  C   UNL     1      14.622  10.515  16.789  0.00  0.00    +0.124 C 
BRANCH   8  21
ATOM     21  C   UNL     1      15.878  11.868  15.121  0.00  0.00    +0.072 A 
ATOM     23  C   UNL     1      15.076  11.740  13.987  0.00  0.00    +0.141 A 
ATOM     24  C   UNL     1      17.241  12.132  14.985  0.00  0.00    +0.027 A 
ATOM     26  C   UNL     1      15.637  11.875  12.716  0.00  0.00    +0.047 A 
ATOM     27  C   UNL     1      17.802  12.267  13.714  0.00  0.00    +0.002 A 
ATOM     28  C   UNL     1      17.000  12.138  12.581  0.00  0.00    +0.004 A 
BRANCH  23   5
ATOM      5  O   UNL     1      13.742  11.482  14.097  0.00  0.00    -0.493 OA
ATOM     31  C   UNL     1      12.849  12.416  13.496  0.00  0.00    +0.277 C 
ENDBRANCH  23   5
ENDBRANCH   8  21
ENDBRANCH  14  16
ENDBRANCH  10  14
BRANCH  13  15
ATOM     15  C   UNL     1      12.676   6.623  20.663  0.00  0.00    +0.138 C 
BRANCH  15   9
ATOM      6  O   UNL     1      14.622   7.384  18.695  0.00  0.00    -0.270 OA
ATOM      9  N   UNL     1      14.114   6.403  20.733  0.00  0.00    -0.309 N 
ATOM     22  C   UNL     1      14.965   6.812  19.726  0.00  0.00    +0.244 C 
ATOM     37  H   UNL     1      14.471   5.988  21.586  0.00  0.00    +0.149 HD
BRANCH  22  25
ATOM     25  C   UNL     1      16.401   6.491  19.935  0.00  0.00    +0.037 A 
ATOM     29  C   UNL     1      17.054   6.931  21.086  0.00  0.00    +0.013 A 
ATOM     30  C   UNL     1      17.095   5.748  18.980  0.00  0.00    +0.013 A 
ATOM     32  C   UNL     1      18.401   6.628  21.283  0.00  0.00    +0.001 A 
ATOM     33  C   UNL     1      18.441   5.444  19.176  0.00  0.00    +0.001 A 
ATOM     34  C   UNL     1      19.096   5.884  20.328  0.00  0.00    +0.000 A 
ENDBRANCH  22  25
ENDBRANCH  15   9
ENDBRANCH  13  15
TORSDOF 9
ENDMDL
MODEL 2
REMARK VINA RESULT:      -7.7     30.151     32.411
REMARK  Name = 40778210
REMARK  10 active torsions:
REMARK  status: ('A' for Active; 'I' for Inactive)
REMARK    1  A    between atoms: O_2  and  C_11
REMARK    2  A    between atoms: O_3  and  C_12
REMARK    3  A    between atoms: O_5  and  C_23
REMARK    4  A    between atoms: O_5  and  C_31
REMARK    5  A    between atoms: N_8  and  C_21
REMARK    6  A    between atoms: N_9  and  C_15
REMARK    7  A    between atoms: C_10  and  C_14
REMARK    8  A    between atoms: C_13  and  C_15
REMARK    9  A    between atoms: C_14  and  C_16
REMARK   10  A    between atoms: C_22  and  C_25
REMARK                            x       y       z     vdW  Elec       q    Type
REMARK                         _______ _______ _______ _____ _____    ______ ____
ROOT
ATOM      1  O   UNL     1     -15.402   1.302  31.851  0.00  0.00    -0.366 OA
ATOM     10  C   UNL     1     -15.325   1.232  30.408  0.00  0.00    +0.159 C 
ATOM     11  C   UNL     1     -13.979   1.835  30.019  0.00  0.00    +0.175 C 
ATOM     12  C   UNL     1     -13.736   2.816  31.147  0.00  0.00    +0.176 C 
ATOM     13  C   UNL     1     -14.273   2.046  32.342  0.00  0.00    +0.167 C 
ENDROOT
BRANCH  11   2
ATOM      2  O   UNL     1     -13.004   0.794  30.048  0.00  0.00    -0.387 OA
ATOM     35  H   UNL     1     -13.455  -0.035  29.817  0.00  0.00    +0.210 HD
ENDBRANCH  11   2
BRANCH  12   3
ATOM      3  O   UNL     1     -12.376   3.159  31.306  0.00  0.00    -0.387 OA
ATOM     36  H   UNL     1     -11.915   2.909  30.487  0.00  0.00    +0.210 HD
ENDBRANCH  12   3
BRANCH  10  14
ATOM     14  C   UNL     1     -16.509   2.003  29.841  0.00  0.00    +0.130 C 
BRANCH  14  16
ATOM      4  O   UNL     1     -17.438   0.254  28.532  0.00  0.00    -0.276 OA
ATOM      7  N   UNL     1     -16.765   2.164  27.393  0.00  0.00    -0.298 N 
ATOM      8  N   UNL     1     -16.226   3.599  24.938  0.00  0.00    -0.324 N 
ATOM     16  C   UNL     1     -16.948   1.385  28.536  0.00  0.00    +0.218 C 
ATOM     17  C   UNL     1     -17.158   1.633  26.089  0.00  0.00    +0.126 C 
ATOM     18  C   UNL     1     -16.183   3.508  27.400  0.00  0.00    +0.126 C 
ATOM     19  C   UNL     1     -16.246   2.134  24.971  0.00  0.00    +0.124 C 
ATOM     20  C   UNL     1     -16.563   4.325  26.165  0.00  0.00    +0.124 C 
BRANCH   8  21
ATOM     21  C   UNL     1     -15.928   4.279  23.759  0.00  0.00    +0.072 A 
ATOM     23  C   UNL     1     -16.920   4.519  22.808  0.00  0.00    +0.141 A 
ATOM     24  C   UNL     1     -14.624   4.721  23.534  0.00  0.00    +0.027 A 
ATOM     26  C   UNL     1     -16.608   5.201  21.631  0.00  0.00    +0.047 A 
ATOM     27  C   UNL     1     -14.313   5.404  22.358  0.00  0.00    +0.002 A 
ATOM     28  C   UNL     1     -15.304   5.643  21.407  0.00  0.00    +0.004 A 
BRANCH  23   5
ATOM      5  O   UNL     1     -18.200   4.095  23.008  0.00  0.00    -0.493 OA
ATOM     31  C   UNL     1     -18.956   3.749  21.850  0.00  0.00    +0.277 C 
ENDBRANCH  23   5
ENDBRANCH   8  21
ENDBRANCH  14  16
ENDBRANCH  10  14
BRANCH  13  15
ATOM     15  C   UNL     1     -14.710   2.941  33.488  0.00  0.00    +0.138 C 
BRANCH  15   9
ATOM      6  O   UNL     1     -14.887   5.073  35.402  0.00  0.00    -0.270 OA
ATOM      9  N   UNL     1     -14.132   4.272  33.363  0.00  0.00    -0.309 N 
ATOM     22  C   UNL     1     -14.276   5.227  34.347  0.00  0.00    +0.244 C 
ATOM     37  H   UNL     1     -13.564   4.446  32.541  0.00  0.00    +0.149 HD
BRANCH  22  25
ATOM     25  C   UNL     1     -13.650   6.543  34.057  0.00  0.00    +0.037 A 
ATOM     29  C   UNL     1     -13.236   7.365  35.104  0.00  0.00    +0.013 A 
ATOM     30  C   UNL     1     -13.475   6.955  32.735  0.00  0.00    +0.013 A 
ATOM     32  C   UNL     1     -12.646   8.600  34.831  0.00  0.00    +0.001 A 
ATOM     33  C   UNL     1     -12.885   8.188  32.462  0.00  0.00    +0.001 A 
ATOM     34  C   UNL     1     -12.470   9.012  33.509  0.00  0.00    +0.000 A 
ENDBRANCH  22  25
ENDBRANCH  15   9
ENDBRANCH  13  15
TORSDOF 9
ENDMDL
MODEL 3
REMARK VINA RESULT:      -7.5     27.683     32.463
REMARK  Name = 40778210
REMARK  10 active torsions:
REMARK  status: ('A' for Active; 'I' for Inactive)
REMARK    1  A    between atoms: O_2  and  C_11
REMARK    2  A    between atoms: O_3  and  C_12
REMARK    3  A    between atoms: O_5  and  C_23
REMARK    4  A    between atoms: O_5  and  C_31
REMARK    5  A    between atoms: N_8  and  C_21
REMARK    6  A    between atoms: N_9  and  C_15
REMARK    7  A    between atoms: C_10  and  C_14
REMARK    8  A    between atoms: C_13  and  C_15
REMARK    9  A    between atoms: C_14  and  C_16
REMARK   10  A    between atoms: C_22  and  C_25
REMARK                            x       y       z     vdW  Elec       q    Type
REMARK                         _______ _______ _______ _____ _____    ______ ____
ROOT
ATOM      1  O   UNL     1     -16.487   2.409  23.884  0.00  0.00    -0.366 OA
ATOM     10  C   UNL     1     -17.866   2.058  23.630  0.00  0.00    +0.159 C 
ATOM     11  C   UNL     1     -18.354   2.996  22.531  0.00  0.00    +0.175 C 
ATOM     12  C   UNL     1     -17.492   4.222  22.758  0.00  0.00    +0.176 C 
ATOM     13  C   UNL     1     -16.161   3.592  23.133  0.00  0.00    +0.167 C 
ENDROOT
BRANCH  11   2
ATOM      2  O   UNL     1     -18.047   2.400  21.272  0.00  0.00    -0.387 OA
ATOM     35  H   UNL     1     -18.050   3.108  20.607  0.00  0.00    +0.210 HD
ENDBRANCH  11   2
BRANCH  12   3
ATOM      3  O   UNL     1     -17.386   5.048  21.619  0.00  0.00    -0.387 OA
ATOM     36  H   UNL     1     -16.787   4.606  20.993  0.00  0.00    +0.210 HD
ENDBRANCH  12   3
BRANCH  10  14
ATOM     14  C   UNL     1     -18.635   2.218  24.935  0.00  0.00    +0.130 C 
BRANCH  14  16
ATOM      4  O   UNL     1     -18.413   0.039  25.852  0.00  0.00    -0.276 OA
ATOM      7  N   UNL     1     -17.331   1.760  26.978  0.00  0.00    -0.298 N 
ATOM      8  N   UNL     1     -15.867   2.777  29.258  0.00  0.00    -0.324 N 
ATOM     16  C   UNL     1     -18.123   1.233  25.957  0.00  0.00    +0.218 C 
ATOM     17  C   UNL     1     -16.802   0.872  28.011  0.00  0.00    +0.126 C 
ATOM     18  C   UNL     1     -16.987   3.179  27.100  0.00  0.00    +0.126 C 
ATOM     19  C   UNL     1     -16.694   1.572  29.364  0.00  0.00    +0.124 C 
ATOM     20  C   UNL     1     -15.735   3.414  27.946  0.00  0.00    +0.124 C 
BRANCH   8  21
ATOM     21  C   UNL     1     -15.196   3.278  30.371  0.00  0.00    +0.072 A 
ATOM     23  C   UNL     1     -13.959   2.757  30.749  0.00  0.00    +0.141 A 
ATOM     24  C   UNL     1     -15.774   4.311  31.110  0.00  0.00    +0.027 A 
ATOM     26  C   UNL     1     -13.299   3.269  31.867  0.00  0.00    +0.047 A 
ATOM     27  C   UNL     1     -15.113   4.823  32.228  0.00  0.00    +0.002 A 
ATOM     28  C   UNL     1     -13.876   4.302  32.606  0.00  0.00    +0.004 A 
BRANCH  23   5
ATOM      5  O   UNL     1     -13.378   1.748  30.042  0.00  0.00    -0.493 OA
ATOM     31  C   UNL     1     -13.582   0.420  30.520  0.00  0.00    +0.277 C 
ENDBRANCH  23   5
ENDBRANCH   8  21
ENDBRANCH  14  16
ENDBRANCH  10  14
BRANCH  13  15
ATOM     15  C   UNL     1     -15.279   4.502  23.969  0.00  0.00    +0.138 C 
BRANCH  15   9
ATOM      6  O   UNL     1     -15.588   7.201  23.043  0.00  0.00    -0.270 OA
ATOM      9  N   UNL     1     -14.349   5.245  23.129  0.00  0.00    -0.309 N 
ATOM     22  C   UNL     1     -14.596   6.546  22.740  0.00  0.00    +0.244 C 
ATOM     37  H   UNL     1     -13.479   4.781  22.891  0.00  0.00    +0.149 HD
BRANCH  22  25
ATOM     25  C   UNL     1     -13.563   7.155  21.862  0.00  0.00    +0.037 A 
ATOM     29  C   UNL     1     -13.532   8.537  21.677  0.00  0.00    +0.013 A 
ATOM     30  C   UNL     1     -12.624   6.345  21.223  0.00  0.00    +0.013 A 
ATOM     32  C   UNL     1     -12.561   9.109  20.854  0.00  0.00    +0.001 A 
ATOM     33  C   UNL     1     -11.653   6.917  20.402  0.00  0.00    +0.001 A 
ATOM     34  C   UNL     1     -11.621   8.299  20.217  0.00  0.00    +0.000 A 
ENDBRANCH  22  25
ENDBRANCH  15   9
ENDBRANCH  13  15
TORSDOF 9
ENDMDL
MODEL 4
REMARK VINA RESULT:      -7.4     12.730     16.329
REMARK  Name = 40778210
REMARK  10 active torsions:
REMARK  status: ('A' for Active; 'I' for Inactive)
REMARK    1  A    between atoms: O_2  and  C_11
REMARK    2  A    between atoms: O_3  and  C_12
REMARK    3  A    between atoms: O_5  and  C_23
REMARK    4  A    between atoms: O_5  and  C_31
REMARK    5  A    between atoms: N_8  and  C_21
REMARK    6  A    between atoms: N_9  and  C_15
REMARK    7  A    between atoms: C_10  and  C_14
REMARK    8  A    between atoms: C_13  and  C_15
REMARK    9  A    between atoms: C_14  and  C_16
REMARK   10  A    between atoms: C_22  and  C_25
REMARK                            x       y       z     vdW  Elec       q    Type
REMARK                         _______ _______ _______ _____ _____    ______ ____
ROOT
ATOM      1  O   UNL     1      11.136   6.825   7.288  0.00  0.00    -0.366 OA
ATOM     10  C   UNL     1      10.145   6.297   8.198  0.00  0.00    +0.159 C 
ATOM     11  C   UNL     1       9.758   4.922   7.663  0.00  0.00    +0.175 C 
ATOM     12  C   UNL     1       9.997   5.085   6.175  0.00  0.00    +0.176 C 
ATOM     13  C   UNL     1      11.254   5.939   6.161  0.00  0.00    +0.167 C 
ENDROOT
BRANCH  11   2
ATOM      2  O   UNL     1      10.664   3.964   8.209  0.00  0.00    -0.387 OA
ATOM     35  H   UNL     1      10.132   3.259   8.614  0.00  0.00    +0.210 HD
ENDBRANCH  11   2
BRANCH  12   3
ATOM      3  O   UNL     1      10.181   3.859   5.502  0.00  0.00    -0.387 OA
ATOM     36  H   UNL     1       9.341   3.637   5.066  0.00  0.00    +0.210 HD
ENDBRANCH  12   3
BRANCH  10  14
ATOM     14  C   UNL     1       8.977   7.273   8.233  0.00  0.00    +0.130 C 
BRANCH  14  16
ATOM      4  O   UNL     1      10.111   9.356   8.127  0.00  0.00    -0.276 OA
ATOM      7  N   UNL     1       8.836   8.767   6.276  0.00  0.00    -0.298 N 
ATOM      8  N   UNL     1       7.618   9.397   3.726  0.00  0.00    -0.324 N 
ATOM     16  C   UNL     1       9.364   8.562   7.551  0.00  0.00    +0.218 C 
ATOM     17  C   UNL     1       9.158   9.995   5.552  0.00  0.00    +0.126 C 
ATOM     18  C   UNL     1       7.949   7.822   5.594  0.00  0.00    +0.126 C 
ATOM     19  C   UNL     1       8.002  10.455   4.666  0.00  0.00    +0.124 C 
ATOM     20  C   UNL     1       7.938   8.011   4.076  0.00  0.00    +0.124 C 
BRANCH   8  21
ATOM     21  C   UNL     1       6.999   9.709   2.519  0.00  0.00    +0.072 A 
ATOM     23  C   UNL     1       5.666  10.116   2.488  0.00  0.00    +0.141 A 
ATOM     24  C   UNL     1       7.726   9.611   1.332  0.00  0.00    +0.027 A 
ATOM     26  C   UNL     1       5.058  10.426   1.271  0.00  0.00    +0.047 A 
ATOM     27  C   UNL     1       7.118   9.920   0.114  0.00  0.00    +0.002 A 
ATOM     28  C   UNL     1       5.784  10.327   0.084  0.00  0.00    +0.004 A 
BRANCH  23   5
ATOM      5  O   UNL     1       4.938  10.219   3.636  0.00  0.00    -0.493 OA
ATOM     31  C   UNL     1       4.522  11.525   4.026  0.00  0.00    +0.277 C 
ENDBRANCH  23   5
ENDBRANCH   8  21
ENDBRANCH  14  16
ENDBRANCH  10  14
BRANCH  13  15
ATOM     15  C   UNL     1      11.416   6.749   4.887  0.00  0.00    +0.138 C 
BRANCH  15   9
ATOM      6  O   UNL     1      10.021   6.174   2.445  0.00  0.00    -0.270 OA
ATOM      9  N   UNL     1      11.889   5.913   3.792  0.00  0.00    -0.309 N 
ATOM     22  C   UNL     1      11.135   5.702   2.656  0.00  0.00    +0.244 C 
ATOM     37  H   UNL     1      12.828   5.540   3.876  0.00  0.00    +0.149 HD
BRANCH  22  25
ATOM     25  C   UNL     1      11.746   4.804   1.642  0.00  0.00    +0.037 A 
ATOM     29  C   UNL     1      12.884   4.064   1.961  0.00  0.00    +0.013 A 
ATOM     30  C   UNL     1      11.180   4.700   0.371  0.00  0.00    +0.013 A 
ATOM     32  C   UNL     1      13.456   3.219   1.010  0.00  0.00    +0.001 A 
ATOM     33  C   UNL     1      11.751   3.855  -0.579  0.00  0.00    +0.001 A 
ATOM     34  C   UNL     1      12.890   3.114  -0.261  0.00  0.00    +0.000 A 
ENDBRANCH  22  25
ENDBRANCH  15   9
ENDBRANCH  13  15
TORSDOF 9
ENDMDL
MODEL 5
REMARK VINA RESULT:      -7.4      4.352      8.561
REMARK  Name = 40778210
REMARK  10 active torsions:
REMARK  status: ('A' for Active; 'I' for Inactive)
REMARK    1  A    between atoms: O_2  and  C_11
REMARK    2  A    between atoms: O_3  and  C_12
REMARK    3  A    between atoms: O_5  and  C_23
REMARK    4  A    between atoms: O_5  and  C_31
REMARK    5  A    between atoms: N_8  and  C_21
REMARK    6  A    between atoms: N_9  and  C_15
REMARK    7  A    between atoms: C_10  and  C_14
REMARK    8  A    between atoms: C_13  and  C_15
REMARK    9  A    between atoms: C_14  and  C_16
REMARK   10  A    between atoms: C_22  and  C_25
REMARK                            x       y       z     vdW  Elec       q    Type
REMARK                         _______ _______ _______ _____ _____    ______ ____
ROOT
ATOM      1  O   UNL     1      12.751   8.218  19.670  0.00  0.00    -0.366 OA
ATOM     10  C   UNL     1      13.079   7.004  20.385  0.00  0.00    +0.159 C 
ATOM     11  C   UNL     1      12.035   6.859  21.488  0.00  0.00    +0.175 C 
ATOM     12  C   UNL     1      11.664   8.303  21.762  0.00  0.00    +0.176 C 
ATOM     13  C   UNL     1      11.685   8.893  20.362  0.00  0.00    +0.167 C 
ENDROOT
BRANCH  11   2
ATOM      2  O   UNL     1      10.919   6.153  20.950  0.00  0.00    -0.387 OA
ATOM     35  H   UNL     1      11.138   5.918  20.033  0.00  0.00    +0.210 HD
ENDBRANCH  11   2
BRANCH  12   3
ATOM      3  O   UNL     1      10.403   8.447  22.378  0.00  0.00    -0.387 OA
ATOM     36  H   UNL     1       9.797   8.824  21.718  0.00  0.00    +0.210 HD
ENDBRANCH  12   3
BRANCH  10  14
ATOM     14  C   UNL     1      14.496   7.149  20.922  0.00  0.00    +0.130 C 
BRANCH  14  16
ATOM      4  O   UNL     1      15.077   6.157  18.845  0.00  0.00    -0.276 OA
ATOM      7  N   UNL     1      16.829   6.655  20.288  0.00  0.00    -0.298 N 
ATOM      8  N   UNL     1      19.619   6.502  21.044  0.00  0.00    -0.324 N 
ATOM     16  C   UNL     1      15.484   6.605  19.919  0.00  0.00    +0.218 C 
ATOM     17  C   UNL     1      17.847   6.142  19.374  0.00  0.00    +0.126 C 
ATOM     18  C   UNL     1      17.309   7.189  21.565  0.00  0.00    +0.126 C 
ATOM     19  C   UNL     1      19.028   5.528  20.122  0.00  0.00    +0.124 C 
ATOM     20  C   UNL     1      18.780   7.607  21.516  0.00  0.00    +0.124 C 
BRANCH   8  21
ATOM     21  C   UNL     1      20.953   6.398  21.430  0.00  0.00    +0.072 A 
ATOM     23  C   UNL     1      21.296   6.299  22.778  0.00  0.00    +0.141 A 
ATOM     24  C   UNL     1      21.949   6.395  20.453  0.00  0.00    +0.027 A 
ATOM     26  C   UNL     1      22.637   6.195  23.150  0.00  0.00    +0.047 A 
ATOM     27  C   UNL     1      23.290   6.291  20.826  0.00  0.00    +0.002 A 
ATOM     28  C   UNL     1      23.634   6.192  22.174  0.00  0.00    +0.004 A 
BRANCH  23   5
ATOM      5  O   UNL     1      20.339   6.301  23.747  0.00  0.00    -0.493 OA
ATOM     31  C   UNL     1      20.495   7.236  24.812  0.00  0.00    +0.277 C 
ENDBRANCH  23   5
ENDBRANCH   8  21
ENDBRANCH  14  16
ENDBRANCH  10  14
BRANCH  13  15
ATOM     15  C   UNL     1      11.933  10.391  20.344  0.00  0.00    +0.138 C 
BRANCH  15   9
ATOM      6  O   UNL     1      11.391  13.165  20.843  0.00  0.00    -0.270 OA
ATOM      9  N   UNL     1      11.591  10.993  21.625  0.00  0.00    -0.309 N 
ATOM     22  C   UNL     1      11.348  12.345  21.756  0.00  0.00    +0.244 C 
ATOM     37  H   UNL     1      11.481  10.361  22.411  0.00  0.00    +0.149 HD
BRANCH  22  25
ATOM     25  C   UNL     1      11.038  12.807  23.134  0.00  0.00    +0.037 A 
ATOM     29  C   UNL     1      11.122  11.917  24.204  0.00  0.00    +0.013 A 
ATOM     30  C   UNL     1      10.664  14.133  23.357  0.00  0.00    +0.013 A 
ATOM     32  C   UNL     1      10.834  12.352  25.497  0.00  0.00    +0.001 A 
ATOM     33  C   UNL     1      10.376  14.568  24.649  0.00  0.00    +0.001 A 
ATOM     34  C   UNL     1      10.460  13.678  25.721  0.00  0.00    +0.000 A 
ENDBRANCH  22  25
ENDBRANCH  15   9
ENDBRANCH  13  15
TORSDOF 9
ENDMDL
MODEL 6
REMARK VINA RESULT:      -7.0     26.000     29.736
REMARK  Name = 40778210
REMARK  10 active torsions:
REMARK  status: ('A' for Active; 'I' for Inactive)
REMARK    1  A    between atoms: O_2  and  C_11
REMARK    2  A    between atoms: O_3  and  C_12
REMARK    3  A    between atoms: O_5  and  C_23
REMARK    4  A    between atoms: O_5  and  C_31
REMARK    5  A    between atoms: N_8  and  C_21
REMARK    6  A    between atoms: N_9  and  C_15
REMARK    7  A    between atoms: C_10  and  C_14
REMARK    8  A    between atoms: C_13  and  C_15
REMARK    9  A    between atoms: C_14  and  C_16
REMARK   10  A    between atoms: C_22  and  C_25
REMARK                            x       y       z     vdW  Elec       q    Type
REMARK                         _______ _______ _______ _____ _____    ______ ____
ROOT
ATOM      1  O   UNL     1     -16.886   5.394  24.307  0.00  0.00    -0.366 OA
ATOM     10  C   UNL     1     -16.029   5.087  23.183  0.00  0.00    +0.159 C 
ATOM     11  C   UNL     1     -15.752   3.589  23.249  0.00  0.00    +0.175 C 
ATOM     12  C   UNL     1     -15.859   3.315  24.736  0.00  0.00    +0.176 C 
ATOM     13  C   UNL     1     -17.013   4.221  25.131  0.00  0.00    +0.167 C 
ENDROOT
BRANCH  11   2
ATOM      2  O   UNL     1     -16.794   2.915  22.545  0.00  0.00    -0.387 OA
ATOM     35  H   UNL     1     -16.400   2.528  21.745  0.00  0.00    +0.210 HD
ENDBRANCH  11   2
BRANCH  12   3
ATOM      3  O   UNL     1     -16.122   1.961  25.036  0.00  0.00    -0.387 OA
ATOM     36  H   UNL     1     -16.610   1.585  24.285  0.00  0.00    +0.210 HD
ENDBRANCH  12   3
BRANCH  10  14
ATOM     14  C   UNL     1     -14.770   5.933  23.314  0.00  0.00    +0.130 C 
BRANCH  14  16
ATOM      4  O   UNL     1     -15.963   7.979  23.160  0.00  0.00    -0.276 OA
ATOM      7  N   UNL     1     -14.116   7.743  21.771  0.00  0.00    -0.298 N 
ATOM      8  N   UNL     1     -12.451   8.648  19.583  0.00  0.00    -0.324 N 
ATOM     16  C   UNL     1     -15.013   7.310  22.748  0.00  0.00    +0.218 C 
ATOM     17  C   UNL     1     -14.288   9.063  21.169  0.00  0.00    +0.126 C 
ATOM     18  C   UNL     1     -12.988   6.946  21.283  0.00  0.00    +0.126 C 
ATOM     19  C   UNL     1     -13.845   9.085  19.708  0.00  0.00    +0.124 C 
ATOM     20  C   UNL     1     -11.894   7.800  20.640  0.00  0.00    +0.124 C 
BRANCH   8  21
ATOM     21  C   UNL     1     -11.671   9.060  18.506  0.00  0.00    +0.072 A 
ATOM     23  C   UNL     1     -11.066  10.317  18.507  0.00  0.00    +0.141 A 
ATOM     24  C   UNL     1     -11.497   8.203  17.419  0.00  0.00    +0.027 A 
ATOM     26  C   UNL     1     -10.286  10.717  17.420  0.00  0.00    +0.047 A 
ATOM     27  C   UNL     1     -10.717   8.603  16.333  0.00  0.00    +0.002 A 
ATOM     28  C   UNL     1     -10.113   9.860  16.334  0.00  0.00    +0.004 A 
BRANCH  23   5
ATOM      5  O   UNL     1     -11.224  11.170  19.558  0.00  0.00    -0.493 OA
ATOM     31  C   UNL     1     -11.996  12.346  19.328  0.00  0.00    +0.277 C 
ENDBRANCH  23   5
ENDBRANCH   8  21
ENDBRANCH  14  16
ENDBRANCH  10  14
BRANCH  13  15
ATOM     15  C   UNL     1     -16.991   4.621  26.595  0.00  0.00    +0.138 C 
BRANCH  15   9
ATOM      6  O   UNL     1     -17.613   3.492  29.160  0.00  0.00    -0.270 OA
ATOM      9  N   UNL     1     -16.156   3.715  27.372  0.00  0.00    -0.309 N 
ATOM     22  C   UNL     1     -16.553   3.228  28.600  0.00  0.00    +0.244 C 
ATOM     37  H   UNL     1     -15.291   3.409  26.940  0.00  0.00    +0.149 HD
BRANCH  22  25
ATOM     25  C   UNL     1     -15.577   2.335  29.278  0.00  0.00    +0.037 A 
ATOM     29  C   UNL     1     -14.482   2.879  29.948  0.00  0.00    +0.013 A 
ATOM     30  C   UNL     1     -15.758   0.952  29.245  0.00  0.00    +0.013 A 
ATOM     32  C   UNL     1     -13.567   2.041  30.586  0.00  0.00    +0.001 A 
ATOM     33  C   UNL     1     -14.844   0.114  29.883  0.00  0.00    +0.001 A 
ATOM     34  C   UNL     1     -13.748   0.658  30.554  0.00  0.00    +0.000 A 
ENDBRANCH  22  25
ENDBRANCH  15   9
ENDBRANCH  13  15
TORSDOF 9
ENDMDL
MODEL 7
REMARK VINA RESULT:      -7.0     27.565     29.726
REMARK  Name = 40778210
REMARK  10 active torsions:
REMARK  status: ('A' for Active; 'I' for Inactive)
REMARK    1  A    between atoms: O_2  and  C_11
REMARK    2  A    between atoms: O_3  and  C_12
REMARK    3  A    between atoms: O_5  and  C_23
REMARK    4  A    between atoms: O_5  and  C_31
REMARK    5  A    between atoms: N_8  and  C_21
REMARK    6  A    between atoms: N_9  and  C_15
REMARK    7  A    between atoms: C_10  and  C_14
REMARK    8  A    between atoms: C_13  and  C_15
REMARK    9  A    between atoms: C_14  and  C_16
REMARK   10  A    between atoms: C_22  and  C_25
REMARK                            x       y       z     vdW  Elec       q    Type
REMARK                         _______ _______ _______ _____ _____    ______ ____
ROOT
ATOM      1  O   UNL     1      -6.177 -12.144  17.803  0.00  0.00    -0.366 OA
ATOM     10  C   UNL     1      -5.315 -11.187  18.459  0.00  0.00    +0.159 C 
ATOM     11  C   UNL     1      -6.129 -10.587  19.601  0.00  0.00    +0.175 C 
ATOM     12  C   UNL     1      -7.545 -10.702  19.073  0.00  0.00    +0.176 C 
ATOM     13  C   UNL     1      -7.497 -12.047  18.366  0.00  0.00    +0.167 C 
ENDROOT
BRANCH  11   2
ATOM      2  O   UNL     1      -5.959 -11.416  20.749  0.00  0.00    -0.387 OA
ATOM     35  H   UNL     1      -5.503 -12.224  20.460  0.00  0.00    +0.210 HD
ENDBRANCH  11   2
BRANCH  12   3
ATOM      3  O   UNL     1      -8.524 -10.671  20.089  0.00  0.00    -0.387 OA
ATOM     36  H   UNL     1      -8.444  -9.817  20.545  0.00  0.00    +0.210 HD
ENDBRANCH  12   3
BRANCH  10  14
ATOM     14  C   UNL     1      -4.891 -10.155  17.423  0.00  0.00    +0.130 C 
BRANCH  14  16
ATOM      4  O   UNL     1      -2.800 -11.212  17.043  0.00  0.00    -0.276 OA
ATOM      7  N   UNL     1      -4.054 -10.676  15.162  0.00  0.00    -0.298 N 
ATOM      8  N   UNL     1      -4.346 -10.414  12.294  0.00  0.00    -0.324 N 
ATOM     16  C   UNL     1      -3.815 -10.729  16.536  0.00  0.00    +0.218 C 
ATOM     17  C   UNL     1      -3.056 -11.206  14.236  0.00  0.00    +0.126 C 
ATOM     18  C   UNL     1      -5.261 -10.103  14.562  0.00  0.00    +0.126 C 
ATOM     19  C   UNL     1      -3.023 -10.423  12.925  0.00  0.00    +0.124 C 
ATOM     20  C   UNL     1      -5.520 -10.620  13.146  0.00  0.00    +0.124 C 
BRANCH   8  21
ATOM     21  C   UNL     1      -4.476 -10.250  10.918  0.00  0.00    +0.072 A 
ATOM     23  C   UNL     1      -4.731 -11.345  10.093  0.00  0.00    +0.141 A 
ATOM     24  C   UNL     1      -4.348  -8.975  10.365  0.00  0.00    +0.027 A 
ATOM     26  C   UNL     1      -4.859 -11.167   8.715  0.00  0.00    +0.047 A 
ATOM     27  C   UNL     1      -4.477  -8.797   8.987  0.00  0.00    +0.002 A 
ATOM     28  C   UNL     1      -4.731  -9.892   8.162  0.00  0.00    +0.004 A 
BRANCH  23   5
ATOM      5  O   UNL     1      -4.858 -12.599  10.612  0.00  0.00    -0.493 OA
ATOM     31  C   UNL     1      -3.708 -13.440  10.567  0.00  0.00    +0.277 C 
ENDBRANCH  23   5
ENDBRANCH   8  21
ENDBRANCH  14  16
ENDBRANCH  10  14
BRANCH  13  15
ATOM     15  C   UNL     1      -8.534 -12.185  17.266  0.00  0.00    +0.138 C 
BRANCH  15   9
ATOM      6  O   UNL     1      -8.654 -10.528  14.926  0.00  0.00    -0.270 OA
ATOM      9  N   UNL     1      -9.299 -10.956  17.110  0.00  0.00    -0.309 N 
ATOM     22  C   UNL     1      -9.287 -10.232  15.935  0.00  0.00    +0.244 C 
ATOM     37  H   UNL     1      -9.891 -10.685  17.887  0.00  0.00    +0.149 HD
BRANCH  22  25
ATOM     25  C   UNL     1     -10.098  -8.987  15.945  0.00  0.00    +0.037 A 
ATOM     29  C   UNL     1     -10.973  -8.716  14.893  0.00  0.00    +0.013 A 
ATOM     30  C   UNL     1      -9.985  -8.089  17.007  0.00  0.00    +0.013 A 
ATOM     32  C   UNL     1     -11.736  -7.548  14.903  0.00  0.00    +0.001 A 
ATOM     33  C   UNL     1     -10.747  -6.922  17.017  0.00  0.00    +0.001 A 
ATOM     34  C   UNL     1     -11.624  -6.651  15.966  0.00  0.00    +0.000 A 
ENDBRANCH  22  25
ENDBRANCH  15   9
ENDBRANCH  13  15
TORSDOF 9
ENDMDL
MODEL 8
REMARK VINA RESULT:      -7.0     27.679     30.269
REMARK  Name = 40778210
REMARK  10 active torsions:
REMARK  status: ('A' for Active; 'I' for Inactive)
REMARK    1  A    between atoms: O_2  and  C_11
REMARK    2  A    between atoms: O_3  and  C_12
REMARK    3  A    between atoms: O_5  and  C_23
REMARK    4  A    between atoms: O_5  and  C_31
REMARK    5  A    between atoms: N_8  and  C_21
REMARK    6  A    between atoms: N_9  and  C_15
REMARK    7  A    between atoms: C_10  and  C_14
REMARK    8  A    between atoms: C_13  and  C_15
REMARK    9  A    between atoms: C_14  and  C_16
REMARK   10  A    between atoms: C_22  and  C_25
REMARK                            x       y       z     vdW  Elec       q    Type
REMARK                         _______ _______ _______ _____ _____    ______ ____
ROOT
ATOM      1  O   UNL     1      -6.840 -12.691  18.714  0.00  0.00    -0.366 OA
ATOM     10  C   UNL     1      -6.686 -13.546  17.558  0.00  0.00    +0.159 C 
ATOM     11  C   UNL     1      -5.234 -13.410  17.111  0.00  0.00    +0.175 C 
ATOM     12  C   UNL     1      -4.894 -12.006  17.569  0.00  0.00    +0.176 C 
ATOM     13  C   UNL     1      -5.631 -11.932  18.896  0.00  0.00    +0.167 C 
ENDROOT
BRANCH  11   2
ATOM      2  O   UNL     1      -4.459 -14.367  17.831  0.00  0.00    -0.387 OA
ATOM     35  H   UNL     1      -3.562 -14.004  17.925  0.00  0.00    +0.210 HD
ENDBRANCH  11   2
BRANCH  12   3
ATOM      3  O   UNL     1      -3.509 -11.788  17.720  0.00  0.00    -0.387 OA
ATOM     36  H   UNL     1      -3.072 -12.124  16.919  0.00  0.00    +0.210 HD
ENDBRANCH  12   3
BRANCH  10  14
ATOM     14  C   UNL     1      -7.680 -13.083  16.501  0.00  0.00    +0.130 C 
BRANCH  14  16
ATOM      4  O   UNL     1      -7.510 -14.945  15.037  0.00  0.00    -0.276 OA
ATOM      7  N   UNL     1      -6.905 -12.877  14.168  0.00  0.00    -0.298 N 
ATOM      8  N   UNL     1      -5.743 -11.240  12.082  0.00  0.00    -0.324 N 
ATOM     16  C   UNL     1      -7.359 -13.729  15.175  0.00  0.00    +0.218 C 
ATOM     17  C   UNL     1      -6.566 -13.427  12.857  0.00  0.00    +0.126 C 
ATOM     18  C   UNL     1      -6.727 -11.432  14.334  0.00  0.00    +0.126 C 
ATOM     19  C   UNL     1      -5.419 -12.665  12.198  0.00  0.00    +0.124 C 
ATOM     20  C   UNL     1      -6.734 -10.678  13.004  0.00  0.00    +0.124 C 
BRANCH   8  21
ATOM     21  C   UNL     1      -5.150 -10.454  11.098  0.00  0.00    +0.072 A 
ATOM     23  C   UNL     1      -3.841  -9.995  11.248  0.00  0.00    +0.141 A 
ATOM     24  C   UNL     1      -5.878 -10.124   9.954  0.00  0.00    +0.027 A 
ATOM     26  C   UNL     1      -3.259  -9.207  10.254  0.00  0.00    +0.047 A 
ATOM     27  C   UNL     1      -5.296  -9.337   8.960  0.00  0.00    +0.002 A 
ATOM     28  C   UNL     1      -3.987  -8.878   9.110  0.00  0.00    +0.004 A 
BRANCH  23   5
ATOM      5  O   UNL     1      -3.113 -10.304  12.358  0.00  0.00    -0.493 OA
ATOM     31  C   UNL     1      -1.930 -11.076  12.164  0.00  0.00    +0.277 C 
ENDBRANCH  23   5
ENDBRANCH   8  21
ENDBRANCH  14  16
ENDBRANCH  10  14
BRANCH  13  15
ATOM     15  C   UNL     1      -5.977 -10.514  19.314  0.00  0.00    +0.138 C 
BRANCH  15   9
ATOM      6  O   UNL     1      -6.930  -9.197  16.948  0.00  0.00    -0.270 OA
ATOM      9  N   UNL     1      -7.362 -10.197  18.994  0.00  0.00    -0.309 N 
ATOM     22  C   UNL     1      -7.713  -9.559  17.822  0.00  0.00    +0.244 C 
ATOM     37  H   UNL     1      -8.067 -10.521  19.647  0.00  0.00    +0.149 HD
BRANCH  22  25
ATOM     25  C   UNL     1      -9.164  -9.283  17.656  0.00  0.00    +0.037 A 
ATOM     29  C   UNL     1      -9.585  -8.085  17.079  0.00  0.00    +0.013 A 
ATOM     30  C   UNL     1     -10.105 -10.223  18.076  0.00  0.00    +0.013 A 
ATOM     32  C   UNL     1     -10.946  -7.827  16.922  0.00  0.00    +0.001 A 
ATOM     33  C   UNL     1     -11.466  -9.966  17.918  0.00  0.00    +0.001 A 
ATOM     34  C   UNL     1     -11.888  -8.768  17.341  0.00  0.00    +0.000 A 
ENDBRANCH  22  25
ENDBRANCH  15   9
ENDBRANCH  13  15
TORSDOF 9
ENDMDL
MODEL 9
REMARK VINA RESULT:      -7.0     27.808     31.818
REMARK  Name = 40778210
REMARK  10 active torsions:
REMARK  status: ('A' for Active; 'I' for Inactive)
REMARK    1  A    between atoms: O_2  and  C_11
REMARK    2  A    between atoms: O_3  and  C_12
REMARK    3  A    between atoms: O_5  and  C_23
REMARK    4  A    between atoms: O_5  and  C_31
REMARK    5  A    between atoms: N_8  and  C_21
REMARK    6  A    between atoms: N_9  and  C_15
REMARK    7  A    between atoms: C_10  and  C_14
REMARK    8  A    between atoms: C_13  and  C_15
REMARK    9  A    between atoms: C_14  and  C_16
REMARK   10  A    between atoms: C_22  and  C_25
REMARK                            x       y       z     vdW  Elec       q    Type
REMARK                         _______ _______ _______ _____ _____    ______ ____
ROOT
ATOM      1  O   UNL     1     -17.650   3.104  26.279  0.00  0.00    -0.366 OA
ATOM     10  C   UNL     1     -18.274   2.030  25.539  0.00  0.00    +0.159 C 
ATOM     11  C   UNL     1     -18.198   0.794  26.429  0.00  0.00    +0.175 C 
ATOM     12  C   UNL     1     -16.952   1.069  27.245  0.00  0.00    +0.176 C 
ATOM     13  C   UNL     1     -17.066   2.566  27.478  0.00  0.00    +0.167 C 
ENDROOT
BRANCH  11   2
ATOM      2  O   UNL     1     -19.350   0.783  27.270  0.00  0.00    -0.387 OA
ATOM     35  H   UNL     1     -19.587  -0.146  27.428  0.00  0.00    +0.210 HD
ENDBRANCH  11   2
BRANCH  12   3
ATOM      3  O   UNL     1     -16.906   0.346  28.456  0.00  0.00    -0.387 OA
ATOM     36  H   UNL     1     -15.977   0.113  28.622  0.00  0.00    +0.210 HD
ENDBRANCH  12   3
BRANCH  10  14
ATOM     14  C   UNL     1     -17.517   1.867  24.228  0.00  0.00    +0.130 C 
BRANCH  14  16
ATOM      4  O   UNL     1     -19.051   2.980  22.798  0.00  0.00    -0.276 OA
ATOM      7  N   UNL     1     -16.928   3.908  22.972  0.00  0.00    -0.298 N 
ATOM      8  N   UNL     1     -14.900   5.789  22.119  0.00  0.00    -0.324 N 
ATOM     16  C   UNL     1     -17.911   2.962  23.267  0.00  0.00    +0.218 C 
ATOM     17  C   UNL     1     -17.230   4.996  22.045  0.00  0.00    +0.126 C 
ATOM     18  C   UNL     1     -15.574   3.884  23.531  0.00  0.00    +0.126 C 
ATOM     19  C   UNL     1     -16.004   5.409  21.233  0.00  0.00    +0.124 C 
ATOM     20  C   UNL     1     -14.890   5.251  23.482  0.00  0.00    +0.124 C 
BRANCH   8  21
ATOM     21  C   UNL     1     -13.910   6.666  21.685  0.00  0.00    +0.072 A 
ATOM     23  C   UNL     1     -14.130   8.043  21.688  0.00  0.00    +0.141 A 
ATOM     24  C   UNL     1     -12.689   6.156  21.242  0.00  0.00    +0.027 A 
ATOM     26  C   UNL     1     -13.128   8.911  21.250  0.00  0.00    +0.047 A 
ATOM     27  C   UNL     1     -11.688   7.024  20.804  0.00  0.00    +0.002 A 
ATOM     28  C   UNL     1     -11.908   8.401  20.808  0.00  0.00    +0.004 A 
BRANCH  23   5
ATOM      5  O   UNL     1     -15.315   8.563  22.115  0.00  0.00    -0.493 OA
ATOM     31  C   UNL     1     -15.354   9.085  23.441  0.00  0.00    +0.277 C 
ENDBRANCH  23   5
ENDBRANCH   8  21
ENDBRANCH  14  16
ENDBRANCH  10  14
BRANCH  13  15
ATOM     15  C   UNL     1     -15.730   3.238  27.741  0.00  0.00    +0.138 C 
BRANCH  15   9
ATOM      6  O   UNL     1     -14.304   1.502  29.529  0.00  0.00    -0.270 OA
ATOM      9  N   UNL     1     -15.519   3.442  29.168  0.00  0.00    -0.309 N 
ATOM     22  C   UNL     1     -14.814   2.541  29.939  0.00  0.00    +0.244 C 
ATOM     37  H   UNL     1     -15.864   4.311  29.560  0.00  0.00    +0.149 HD
BRANCH  22  25
ATOM     25  C   UNL     1     -14.710   2.880  31.382  0.00  0.00    +0.037 A 
ATOM     29  C   UNL     1     -14.790   1.872  32.343  0.00  0.00    +0.013 A 
ATOM     30  C   UNL     1     -14.530   4.206  31.776  0.00  0.00    +0.013 A 
ATOM     32  C   UNL     1     -14.690   2.191  33.698  0.00  0.00    +0.001 A 
ATOM     33  C   UNL     1     -14.430   4.525  33.129  0.00  0.00    +0.001 A 
ATOM     34  C   UNL     1     -14.510   3.517  34.091  0.00  0.00    +0.000 A 
ENDBRANCH  22  25
ENDBRANCH  15   9
ENDBRANCH  13  15
TORSDOF 9
ENDMDL
MODEL 10
REMARK VINA RESULT:      -6.9     27.174     30.117
REMARK  Name = 40778210
REMARK  10 active torsions:
REMARK  status: ('A' for Active; 'I' for Inactive)
REMARK    1  A    between atoms: O_2  and  C_11
REMARK    2  A    between atoms: O_3  and  C_12
REMARK    3  A    between atoms: O_5  and  C_23
REMARK    4  A    between atoms: O_5  and  C_31
REMARK    5  A    between atoms: N_8  and  C_21
REMARK    6  A    between atoms: N_9  and  C_15
REMARK    7  A    between atoms: C_10  and  C_14
REMARK    8  A    between atoms: C_13  and  C_15
REMARK    9  A    between atoms: C_14  and  C_16
REMARK   10  A    between atoms: C_22  and  C_25
REMARK                            x       y       z     vdW  Elec       q    Type
REMARK                         _______ _______ _______ _____ _____    ______ ____
ROOT
ATOM      1  O   UNL     1      -3.801 -11.550  18.194  0.00  0.00    -0.366 OA
ATOM     10  C   UNL     1      -5.125 -11.956  18.611  0.00  0.00    +0.159 C 
ATOM     11  C   UNL     1      -5.761 -12.649  17.411  0.00  0.00    +0.175 C 
ATOM     12  C   UNL     1      -5.070 -11.964  16.249  0.00  0.00    +0.176 C 
ATOM     13  C   UNL     1      -3.657 -11.806  16.786  0.00  0.00    +0.167 C 
ENDROOT
BRANCH  11   2
ATOM      2  O   UNL     1      -5.403 -14.029  17.457  0.00  0.00    -0.387 OA
ATOM     35  H   UNL     1      -4.619 -14.146  16.895  0.00  0.00    +0.210 HD
ENDBRANCH  11   2
BRANCH  12   3
ATOM      3  O   UNL     1      -5.103 -12.718  15.057  0.00  0.00    -0.387 OA
ATOM     36  H   UNL     1      -5.356 -12.115  14.338  0.00  0.00    +0.210 HD
ENDBRANCH  12   3
BRANCH  10  14
ATOM     14  C   UNL     1      -5.879 -10.707  19.047  0.00  0.00    +0.130 C 
BRANCH  14  16
ATOM      4  O   UNL     1      -7.667 -11.870  20.090  0.00  0.00    -0.276 OA
ATOM      7  N   UNL     1      -8.242 -10.336  18.442  0.00  0.00    -0.298 N 
ATOM      8  N   UNL     1     -10.181  -9.118  16.671  0.00  0.00    -0.324 N 
ATOM     16  C   UNL     1      -7.339 -11.032  19.247  0.00  0.00    +0.218 C 
ATOM     17  C   UNL     1      -9.674 -10.599  18.571  0.00  0.00    +0.126 C 
ATOM     18  C   UNL     1      -7.850  -9.341  17.441  0.00  0.00    +0.126 C 
ATOM     19  C   UNL     1     -10.403 -10.452  17.238  0.00  0.00    +0.124 C 
ATOM     20  C   UNL     1      -8.985  -8.380  17.086  0.00  0.00    +0.124 C 
BRANCH   8  21
ATOM     21  C   UNL     1     -11.103  -8.557  15.791  0.00  0.00    +0.072 A 
ATOM     23  C   UNL     1     -11.173  -8.988  14.467  0.00  0.00    +0.141 A 
ATOM     24  C   UNL     1     -11.960  -7.554  16.246  0.00  0.00    +0.027 A 
ATOM     26  C   UNL     1     -12.101  -8.416  13.595  0.00  0.00    +0.047 A 
ATOM     27  C   UNL     1     -12.889  -6.983  15.374  0.00  0.00    +0.002 A 
ATOM     28  C   UNL     1     -12.959  -7.413  14.049  0.00  0.00    +0.004 A 
BRANCH  23   5
ATOM      5  O   UNL     1     -10.344  -9.965  14.002  0.00  0.00    -0.493 OA
ATOM     31  C   UNL     1      -9.127  -9.546  13.390  0.00  0.00    +0.277 C 
ENDBRANCH  23   5
ENDBRANCH   8  21
ENDBRANCH  14  16
ENDBRANCH  10  14
BRANCH  13  15
ATOM     15  C   UNL     1      -2.889 -10.669  16.135  0.00  0.00    +0.138 C 
BRANCH  15   9
ATOM      6  O   UNL     1      -1.724 -11.318  13.593  0.00  0.00    -0.270 OA
ATOM      9  N   UNL     1      -3.435 -10.354  14.822  0.00  0.00    -0.309 N 
ATOM     22  C   UNL     1      -2.791 -10.715  13.657  0.00  0.00    +0.244 C 
ATOM     37  H   UNL     1      -4.346  -9.907  14.803  0.00  0.00    +0.149 HD
BRANCH  22  25
ATOM     25  C   UNL     1      -3.464 -10.296  12.400  0.00  0.00    +0.037 A 
ATOM     29  C   UNL     1      -4.857 -10.259  12.333  0.00  0.00    +0.013 A 
ATOM     30  C   UNL     1      -2.703  -9.939  11.286  0.00  0.00    +0.013 A 
ATOM     32  C   UNL     1      -5.488  -9.864  11.153  0.00  0.00    +0.001 A 
ATOM     33  C   UNL     1      -3.334  -9.544  10.108  0.00  0.00    +0.001 A 
ATOM     34  C   UNL     1      -4.727  -9.506  10.040  0.00  0.00    +0.000 A 
ENDBRANCH  22  25
ENDBRANCH  15   9
ENDBRANCH  13  15
TORSDOF 9
ENDMDL
