MODEL 1
REMARK VINA RESULT:      -5.4      0.000      0.000
REMARK  Name = 56773974
REMARK  12 active torsions:
REMARK  status: ('A' for Active; 'I' for Inactive)
REMARK    1  A    between atoms: O_2  and  C_20
REMARK    2  A    between atoms: N_3  and  C_7
REMARK    3  A    between atoms: N_3  and  C_12
REMARK    4  A    between atoms: N_3  and  C_13
REMARK    5  A    between atoms: C_5  and  C_10
REMARK    6  A    between atoms: C_5  and  C_11
REMARK    7  A    between atoms: C_6  and  C_9
REMARK    8  A    between atoms: C_9  and  C_14
REMARK    9  A    between atoms: C_12  and  C_15
REMARK   10  A    between atoms: C_13  and  C_16
REMARK   11  A    between atoms: C_18  and  C_19
REMARK   12  A    between atoms: C_19  and  C_20
REMARK                            x       y       z     vdW  Elec       q    Type
REMARK                         _______ _______ _______ _____ _____    ______ ____
ROOT
ATOM      5  C   UNL     1       9.298   6.837   4.982  0.00  0.00    -0.016 C 
ATOM      6  C   UNL     1      10.521   6.094   4.404  0.00  0.00    +0.004 C 
ATOM      7  C   UNL     1      10.158   7.121   6.231  0.00  0.00    +0.063 C 
ATOM      8  C   UNL     1      10.973   5.865   5.861  0.00  0.00    +0.024 C 
ATOM     10  C   UNL     1       8.095   5.968   5.303  0.00  0.00    +0.013 C 
ATOM     11  C   UNL     1       8.858   8.024   4.152  0.00  0.00    +0.013 C 
ENDROOT
BRANCH   7   3
ATOM      3  N   UNL     1       9.405   6.854   7.469  0.00  0.00    -0.299 NA
BRANCH   3  12
ATOM     12  C   UNL     1       8.973   8.124   8.050  0.00  0.00    +0.081 C 
ATOM     15  C   UNL     1      10.051   9.186   7.912  0.00  0.00    +0.020 C 
ENDBRANCH   3  12
BRANCH   3  13
ATOM     13  C   UNL     1      10.261   6.125   8.404  0.00  0.00    +0.081 C 
ATOM     16  C   UNL     1       9.473   5.070   9.161  0.00  0.00    +0.020 C 
ENDBRANCH   3  13
ENDBRANCH   7   3
BRANCH   6   9
ATOM      9  C   UNL     1      10.252   4.829   3.622  0.00  0.00    +0.063 C 
BRANCH   9  14
ATOM      1  O   UNL     1      12.780   3.272   1.571  0.00  0.00    -0.359 OA
ATOM      4  N   UNL     1      11.630   3.230   2.350  0.00  0.00    -0.083 NA
ATOM     14  C   UNL     1      11.434   4.491   2.746  0.00  0.00    +0.084 A 
ATOM     17  C   UNL     1      12.418   5.365   2.252  0.00  0.00    +0.071 A 
ATOM     18  C   UNL     1      13.240   4.549   1.520  0.00  0.00    +0.140 A 
BRANCH  18  19
ATOM     19  C   UNL     1      14.458   4.775   0.732  0.00  0.00    +0.105 C 
BRANCH  19  20
ATOM     20  C   UNL     1      15.539   3.698   0.939  0.00  0.00    +0.163 C 
BRANCH  20   2
ATOM      2  O   UNL     1      15.464   3.204   2.270  0.00  0.00    -0.395 OA
ATOM     21  H   UNL     1      16.036   2.419   2.317  0.00  0.00    +0.209 HD
ENDBRANCH  20   2
ENDBRANCH  19  20
ENDBRANCH  18  19
ENDBRANCH   9  14
ENDBRANCH   6   9
TORSDOF 8
ENDMDL
MODEL 2
REMARK VINA RESULT:      -5.3     16.098     17.157
REMARK  Name = 56773974
REMARK  12 active torsions:
REMARK  status: ('A' for Active; 'I' for Inactive)
REMARK    1  A    between atoms: O_2  and  C_20
REMARK    2  A    between atoms: N_3  and  C_7
REMARK    3  A    between atoms: N_3  and  C_12
REMARK    4  A    between atoms: N_3  and  C_13
REMARK    5  A    between atoms: C_5  and  C_10
REMARK    6  A    between atoms: C_5  and  C_11
REMARK    7  A    between atoms: C_6  and  C_9
REMARK    8  A    between atoms: C_9  and  C_14
REMARK    9  A    between atoms: C_12  and  C_15
REMARK   10  A    between atoms: C_13  and  C_16
REMARK   11  A    between atoms: C_18  and  C_19
REMARK   12  A    between atoms: C_19  and  C_20
REMARK                            x       y       z     vdW  Elec       q    Type
REMARK                         _______ _______ _______ _____ _____    ______ ____
ROOT
ATOM      5  C   UNL     1      14.417   8.782  20.971  0.00  0.00    -0.016 C 
ATOM      6  C   UNL     1      14.831   7.308  20.779  0.00  0.00    +0.004 C 
ATOM      7  C   UNL     1      13.131   8.255  21.639  0.00  0.00    +0.063 C 
ATOM      8  C   UNL     1      13.327   6.962  20.822  0.00  0.00    +0.024 C 
ATOM     10  C   UNL     1      14.123   9.551  19.694  0.00  0.00    +0.013 C 
ATOM     11  C   UNL     1      15.377   9.577  21.829  0.00  0.00    +0.013 C 
ENDROOT
BRANCH   7   3
ATOM      3  N   UNL     1      11.940   8.961  21.137  0.00  0.00    -0.299 NA
BRANCH   3  12
ATOM     12  C   UNL     1      11.508   9.940  22.133  0.00  0.00    +0.081 C 
ATOM     15  C   UNL     1      11.559  11.352  21.575  0.00  0.00    +0.020 C 
ENDBRANCH   3  12
BRANCH   3  13
ATOM     13  C   UNL     1      10.879   7.989  20.876  0.00  0.00    +0.081 C 
ATOM     16  C   UNL     1      10.197   7.562  22.164  0.00  0.00    +0.020 C 
ENDBRANCH   3  13
ENDBRANCH   7   3
BRANCH   6   9
ATOM      9  C   UNL     1      15.522   6.948  19.485  0.00  0.00    +0.063 C 
BRANCH   9  14
ATOM      1  O   UNL     1      18.771   5.378  19.488  0.00  0.00    -0.359 OA
ATOM      4  N   UNL     1      17.492   5.557  18.976  0.00  0.00    -0.083 NA
ATOM     14  C   UNL     1      16.936   6.491  19.753  0.00  0.00    +0.084 A 
ATOM     17  C   UNL     1      17.808   6.934  20.763  0.00  0.00    +0.071 A 
ATOM     18  C   UNL     1      18.947   6.203  20.552  0.00  0.00    +0.140 A 
BRANCH  18  19
ATOM     19  C   UNL     1      20.254   6.143  21.219  0.00  0.00    +0.105 C 
BRANCH  19  20
ATOM     20  C   UNL     1      21.019   4.829  20.966  0.00  0.00    +0.163 C 
BRANCH  20   2
ATOM      2  O   UNL     1      21.587   4.858  19.664  0.00  0.00    -0.395 OA
ATOM     21  H   UNL     1      20.881   4.618  19.039  0.00  0.00    +0.209 HD
ENDBRANCH  20   2
ENDBRANCH  19  20
ENDBRANCH  18  19
ENDBRANCH   9  14
ENDBRANCH   6   9
TORSDOF 8
ENDMDL
MODEL 3
REMARK VINA RESULT:      -5.1      3.010      7.604
REMARK  Name = 56773974
REMARK  12 active torsions:
REMARK  status: ('A' for Active; 'I' for Inactive)
REMARK    1  A    between atoms: O_2  and  C_20
REMARK    2  A    between atoms: N_3  and  C_7
REMARK    3  A    between atoms: N_3  and  C_12
REMARK    4  A    between atoms: N_3  and  C_13
REMARK    5  A    between atoms: C_5  and  C_10
REMARK    6  A    between atoms: C_5  and  C_11
REMARK    7  A    between atoms: C_6  and  C_9
REMARK    8  A    between atoms: C_9  and  C_14
REMARK    9  A    between atoms: C_12  and  C_15
REMARK   10  A    between atoms: C_13  and  C_16
REMARK   11  A    between atoms: C_18  and  C_19
REMARK   12  A    between atoms: C_19  and  C_20
REMARK                            x       y       z     vdW  Elec       q    Type
REMARK                         _______ _______ _______ _____ _____    ______ ____
ROOT
ATOM      5  C   UNL     1      12.832   4.671   1.301  0.00  0.00    -0.016 C 
ATOM      6  C   UNL     1      11.401   4.911   1.825  0.00  0.00    +0.004 C 
ATOM      7  C   UNL     1      12.285   4.976  -0.109  0.00  0.00    +0.063 C 
ATOM      8  C   UNL     1      10.903   4.531   0.414  0.00  0.00    +0.024 C 
ATOM     10  C   UNL     1      13.342   3.245   1.418  0.00  0.00    +0.013 C 
ATOM     11  C   UNL     1      13.858   5.623   1.874  0.00  0.00    +0.013 C 
ENDROOT
BRANCH   7   3
ATOM      3  N   UNL     1      12.763   3.989  -1.092  0.00  0.00    -0.299 NA
BRANCH   3  12
ATOM     12  C   UNL     1      13.721   4.633  -1.990  0.00  0.00    +0.081 C 
ATOM     15  C   UNL     1      15.150   4.375  -1.545  0.00  0.00    +0.020 C 
ENDBRANCH   3  12
BRANCH   3  13
ATOM     13  C   UNL     1      11.623   3.469  -1.845  0.00  0.00    +0.081 C 
ATOM     16  C   UNL     1      11.895   2.064  -2.354  0.00  0.00    +0.020 C 
ENDBRANCH   3  13
ENDBRANCH   7   3
BRANCH   6   9
ATOM      9  C   UNL     1      10.910   4.004   2.930  0.00  0.00    +0.063 C 
BRANCH   9  14
ATOM      1  O   UNL     1      10.911   6.376   5.650  0.00  0.00    -0.359 OA
ATOM      4  N   UNL     1      11.381   5.902   4.431  0.00  0.00    -0.083 NA
ATOM     14  C   UNL     1      10.668   4.797   4.192  0.00  0.00    +0.084 A 
ATOM     17  C   UNL     1       9.743   4.527   5.216  0.00  0.00    +0.071 A 
ATOM     18  C   UNL     1       9.936   5.549   6.107  0.00  0.00    +0.140 A 
BRANCH  18  19
ATOM     19  C   UNL     1       9.326   5.904   7.394  0.00  0.00    +0.105 C 
BRANCH  19  20
ATOM     20  C   UNL     1      10.089   5.357   8.615  0.00  0.00    +0.163 C 
BRANCH  20   2
ATOM      2  O   UNL     1      10.435   3.997   8.383  0.00  0.00    -0.395 OA
ATOM     21  H   UNL     1      10.269   3.817   7.441  0.00  0.00    +0.209 HD
ENDBRANCH  20   2
ENDBRANCH  19  20
ENDBRANCH  18  19
ENDBRANCH   9  14
ENDBRANCH   6   9
TORSDOF 8
ENDMDL
MODEL 4
REMARK VINA RESULT:      -5.0      2.832      7.472
REMARK  Name = 56773974
REMARK  12 active torsions:
REMARK  status: ('A' for Active; 'I' for Inactive)
REMARK    1  A    between atoms: O_2  and  C_20
REMARK    2  A    between atoms: N_3  and  C_7
REMARK    3  A    between atoms: N_3  and  C_12
REMARK    4  A    between atoms: N_3  and  C_13
REMARK    5  A    between atoms: C_5  and  C_10
REMARK    6  A    between atoms: C_5  and  C_11
REMARK    7  A    between atoms: C_6  and  C_9
REMARK    8  A    between atoms: C_9  and  C_14
REMARK    9  A    between atoms: C_12  and  C_15
REMARK   10  A    between atoms: C_13  and  C_16
REMARK   11  A    between atoms: C_18  and  C_19
REMARK   12  A    between atoms: C_19  and  C_20
REMARK                            x       y       z     vdW  Elec       q    Type
REMARK                         _______ _______ _______ _____ _____    ______ ____
ROOT
ATOM      5  C   UNL     1      11.410   5.134   0.801  0.00  0.00    -0.016 C 
ATOM      6  C   UNL     1      11.763   4.723   2.245  0.00  0.00    +0.004 C 
ATOM      7  C   UNL     1      12.359   4.012   0.331  0.00  0.00    +0.063 C 
ATOM      8  C   UNL     1      13.088   4.168   1.681  0.00  0.00    +0.024 C 
ATOM     10  C   UNL     1      11.896   6.508   0.373  0.00  0.00    +0.013 C 
ATOM     11  C   UNL     1       9.940   4.993   0.469  0.00  0.00    +0.013 C 
ENDROOT
BRANCH   7   3
ATOM      3  N   UNL     1      13.245   4.480  -0.748  0.00  0.00    -0.299 NA
BRANCH   3  12
ATOM     12  C   UNL     1      12.726   4.012  -2.032  0.00  0.00    +0.081 C 
ATOM     15  C   UNL     1      12.155   2.609  -1.916  0.00  0.00    +0.020 C 
ENDBRANCH   3  12
BRANCH   3  13
ATOM     13  C   UNL     1      14.594   3.962  -0.519  0.00  0.00    +0.081 C 
ATOM     16  C   UNL     1      15.551   4.424  -1.604  0.00  0.00    +0.020 C 
ENDBRANCH   3  13
ENDBRANCH   7   3
BRANCH   6   9
ATOM      9  C   UNL     1      11.927   5.833   3.257  0.00  0.00    +0.063 C 
BRANCH   9  14
ATOM      1  O   UNL     1       9.521   4.639   5.667  0.00  0.00    -0.359 OA
ATOM      4  N   UNL     1      10.180   4.565   4.446  0.00  0.00    -0.083 NA
ATOM     14  C   UNL     1      11.028   5.598   4.447  0.00  0.00    +0.084 A 
ATOM     17  C   UNL     1      10.948   6.352   5.631  0.00  0.00    +0.071 A 
ATOM     18  C   UNL     1       9.987   5.708   6.363  0.00  0.00    +0.140 A 
BRANCH  18  19
ATOM     19  C   UNL     1       9.394   5.937   7.686  0.00  0.00    +0.105 C 
BRANCH  19  20
ATOM     20  C   UNL     1       9.732   4.842   8.716  0.00  0.00    +0.163 C 
BRANCH  20   2
ATOM      2  O   UNL     1      10.477   3.812   8.079  0.00  0.00    -0.395 OA
ATOM     21  H   UNL     1      11.398   3.897   8.381  0.00  0.00    +0.209 HD
ENDBRANCH  20   2
ENDBRANCH  19  20
ENDBRANCH  18  19
ENDBRANCH   9  14
ENDBRANCH   6   9
TORSDOF 8
ENDMDL
MODEL 5
REMARK VINA RESULT:      -4.9     25.005     28.064
REMARK  Name = 56773974
REMARK  12 active torsions:
REMARK  status: ('A' for Active; 'I' for Inactive)
REMARK    1  A    between atoms: O_2  and  C_20
REMARK    2  A    between atoms: N_3  and  C_7
REMARK    3  A    between atoms: N_3  and  C_12
REMARK    4  A    between atoms: N_3  and  C_13
REMARK    5  A    between atoms: C_5  and  C_10
REMARK    6  A    between atoms: C_5  and  C_11
REMARK    7  A    between atoms: C_6  and  C_9
REMARK    8  A    between atoms: C_9  and  C_14
REMARK    9  A    between atoms: C_12  and  C_15
REMARK   10  A    between atoms: C_13  and  C_16
REMARK   11  A    between atoms: C_18  and  C_19
REMARK   12  A    between atoms: C_19  and  C_20
REMARK                            x       y       z     vdW  Elec       q    Type
REMARK                         _______ _______ _______ _____ _____    ______ ____
ROOT
ATOM      5  C   UNL     1     -13.158   8.281  20.206  0.00  0.00    -0.016 C 
ATOM      6  C   UNL     1     -11.664   7.948  20.018  0.00  0.00    +0.004 C 
ATOM      7  C   UNL     1     -13.109   7.423  21.487  0.00  0.00    +0.063 C 
ATOM      8  C   UNL     1     -11.922   6.673  20.847  0.00  0.00    +0.024 C 
ATOM     10  C   UNL     1     -14.096   7.697  19.164  0.00  0.00    +0.013 C 
ATOM     11  C   UNL     1     -13.438   9.760  20.366  0.00  0.00    +0.013 C 
ENDROOT
BRANCH   7   3
ATOM      3  N   UNL     1     -14.264   6.512  21.564  0.00  0.00    -0.299 NA
BRANCH   3  12
ATOM     12  C   UNL     1     -15.248   7.062  22.495  0.00  0.00    +0.081 C 
ATOM     15  C   UNL     1     -16.591   7.268  21.816  0.00  0.00    +0.020 C 
ENDBRANCH   3  12
BRANCH   3  13
ATOM     13  C   UNL     1     -13.809   5.197  22.014  0.00  0.00    +0.081 C 
ATOM     16  C   UNL     1     -14.102   4.990  23.491  0.00  0.00    +0.020 C 
ENDBRANCH   3  13
ENDBRANCH   7   3
BRANCH   6   9
ATOM      9  C   UNL     1     -11.187   7.694  18.606  0.00  0.00    +0.063 C 
BRANCH   9  14
ATOM      1  O   UNL     1     -10.071  10.332  16.411  0.00  0.00    -0.359 OA
ATOM      4  N   UNL     1     -10.488   9.029  16.655  0.00  0.00    -0.083 NA
ATOM     14  C   UNL     1     -10.711   8.979  17.972  0.00  0.00    +0.084 A 
ATOM     17  C   UNL     1     -10.454  10.208  18.604  0.00  0.00    +0.071 A 
ATOM     18  C   UNL     1     -10.055  11.024  17.579  0.00  0.00    +0.140 A 
BRANCH  18  19
ATOM     19  C   UNL     1      -9.634  12.428  17.502  0.00  0.00    +0.105 C 
BRANCH  19  20
ATOM     20  C   UNL     1      -8.686  12.728  16.325  0.00  0.00    +0.163 C 
BRANCH  20   2
ATOM      2  O   UNL     1      -9.425  12.717  15.111  0.00  0.00    -0.395 OA
ATOM     21  H   UNL     1      -9.392  11.808  14.765  0.00  0.00    +0.209 HD
ENDBRANCH  20   2
ENDBRANCH  19  20
ENDBRANCH  18  19
ENDBRANCH   9  14
ENDBRANCH   6   9
TORSDOF 8
ENDMDL
MODEL 6
REMARK VINA RESULT:      -4.8     24.476     27.599
REMARK  Name = 56773974
REMARK  12 active torsions:
REMARK  status: ('A' for Active; 'I' for Inactive)
REMARK    1  A    between atoms: O_2  and  C_20
REMARK    2  A    between atoms: N_3  and  C_7
REMARK    3  A    between atoms: N_3  and  C_12
REMARK    4  A    between atoms: N_3  and  C_13
REMARK    5  A    between atoms: C_5  and  C_10
REMARK    6  A    between atoms: C_5  and  C_11
REMARK    7  A    between atoms: C_6  and  C_9
REMARK    8  A    between atoms: C_9  and  C_14
REMARK    9  A    between atoms: C_12  and  C_15
REMARK   10  A    between atoms: C_13  and  C_16
REMARK   11  A    between atoms: C_18  and  C_19
REMARK   12  A    between atoms: C_19  and  C_20
REMARK                            x       y       z     vdW  Elec       q    Type
REMARK                         _______ _______ _______ _____ _____    ______ ____
ROOT
ATOM      5  C   UNL     1      -4.408 -12.180  15.514  0.00  0.00    -0.016 C 
ATOM      6  C   UNL     1      -4.169 -11.175  16.660  0.00  0.00    +0.004 C 
ATOM      7  C   UNL     1      -2.922 -11.993  15.144  0.00  0.00    +0.063 C 
ATOM      8  C   UNL     1      -3.008 -10.608  15.817  0.00  0.00    +0.024 C 
ATOM     10  C   UNL     1      -5.335 -11.706  14.409  0.00  0.00    +0.013 C 
ATOM     11  C   UNL     1      -4.844 -13.550  15.987  0.00  0.00    +0.013 C 
ENDROOT
BRANCH   7   3
ATOM      3  N   UNL     1      -2.753 -11.809  13.692  0.00  0.00    -0.299 NA
BRANCH   3  12
ATOM     12  C   UNL     1      -2.097 -12.989  13.132  0.00  0.00    +0.081 C 
ATOM     15  C   UNL     1      -3.047 -13.779  12.249  0.00  0.00    +0.020 C 
ENDBRANCH   3  12
BRANCH   3  13
ATOM     13  C   UNL     1      -1.951 -10.611  13.450  0.00  0.00    +0.081 C 
ATOM     16  C   UNL     1      -1.932 -10.250  11.975  0.00  0.00    +0.020 C 
ENDBRANCH   3  13
ENDBRANCH   7   3
BRANCH   6   9
ATOM      9  C   UNL     1      -5.275 -10.187  16.951  0.00  0.00    +0.063 C 
BRANCH   9  14
ATOM      1  O   UNL     1      -6.953 -11.027  20.034  0.00  0.00    -0.359 OA
ATOM      4  N   UNL     1      -5.953 -10.385  19.313  0.00  0.00    -0.083 NA
ATOM     14  C   UNL     1      -6.180 -10.715  18.037  0.00  0.00    +0.084 A 
ATOM     17  C   UNL     1      -7.299 -11.555  17.895  0.00  0.00    +0.071 A 
ATOM     18  C   UNL     1      -7.748 -11.720  19.178  0.00  0.00    +0.140 A 
BRANCH  18  19
ATOM     19  C   UNL     1      -8.864 -12.463  19.778  0.00  0.00    +0.105 C 
BRANCH  19  20
ATOM     20  C   UNL     1     -10.110 -11.598  20.048  0.00  0.00    +0.163 C 
BRANCH  20   2
ATOM      2  O   UNL     1      -9.704 -10.333  20.554  0.00  0.00    -0.395 OA
ATOM     21  H   UNL     1      -9.073  -9.960  19.915  0.00  0.00    +0.209 HD
ENDBRANCH  20   2
ENDBRANCH  19  20
ENDBRANCH  18  19
ENDBRANCH   9  14
ENDBRANCH   6   9
TORSDOF 8
ENDMDL
MODEL 7
REMARK VINA RESULT:      -4.8     15.630     18.542
REMARK  Name = 56773974
REMARK  12 active torsions:
REMARK  status: ('A' for Active; 'I' for Inactive)
REMARK    1  A    between atoms: O_2  and  C_20
REMARK    2  A    between atoms: N_3  and  C_7
REMARK    3  A    between atoms: N_3  and  C_12
REMARK    4  A    between atoms: N_3  and  C_13
REMARK    5  A    between atoms: C_5  and  C_10
REMARK    6  A    between atoms: C_5  and  C_11
REMARK    7  A    between atoms: C_6  and  C_9
REMARK    8  A    between atoms: C_9  and  C_14
REMARK    9  A    between atoms: C_12  and  C_15
REMARK   10  A    between atoms: C_13  and  C_16
REMARK   11  A    between atoms: C_18  and  C_19
REMARK   12  A    between atoms: C_19  and  C_20
REMARK                            x       y       z     vdW  Elec       q    Type
REMARK                         _______ _______ _______ _____ _____    ______ ____
ROOT
ATOM      5  C   UNL     1      20.099   6.958  21.373  0.00  0.00    -0.016 C 
ATOM      6  C   UNL     1      18.913   6.535  20.482  0.00  0.00    +0.004 C 
ATOM      7  C   UNL     1      20.944   5.914  20.612  0.00  0.00    +0.063 C 
ATOM      8  C   UNL     1      19.623   5.174  20.316  0.00  0.00    +0.024 C 
ATOM     10  C   UNL     1      19.965   6.618  22.847  0.00  0.00    +0.013 C 
ATOM     11  C   UNL     1      20.485   8.413  21.223  0.00  0.00    +0.013 C 
ENDROOT
BRANCH   7   3
ATOM      3  N   UNL     1      21.749   5.101  21.539  0.00  0.00    -0.299 NA
BRANCH   3  12
ATOM     12  C   UNL     1      23.151   5.503  21.435  0.00  0.00    +0.081 C 
ATOM     15  C   UNL     1      23.568   6.354  22.622  0.00  0.00    +0.020 C 
ENDBRANCH   3  12
BRANCH   3  13
ATOM     13  C   UNL     1      21.592   3.688  21.199  0.00  0.00    +0.081 C 
ATOM     16  C   UNL     1      22.922   2.957  21.259  0.00  0.00    +0.020 C 
ENDBRANCH   3  13
ENDBRANCH   7   3
BRANCH   6   9
ATOM      9  C   UNL     1      17.553   6.458  21.136  0.00  0.00    +0.063 C 
BRANCH   9  14
ATOM      1  O   UNL     1      15.238   6.712  18.379  0.00  0.00    -0.359 OA
ATOM      4  N   UNL     1      16.290   6.100  19.049  0.00  0.00    -0.083 NA
ATOM     14  C   UNL     1      16.474   6.836  20.150  0.00  0.00    +0.084 A 
ATOM     17  C   UNL     1      15.575   7.915  20.226  0.00  0.00    +0.071 A 
ATOM     18  C   UNL     1      14.821   7.792  19.090  0.00  0.00    +0.140 A 
BRANCH  18  19
ATOM     19  C   UNL     1      13.708   8.561  18.520  0.00  0.00    +0.105 C 
BRANCH  19  20
ATOM     20  C   UNL     1      12.652   7.691  17.811  0.00  0.00    +0.163 C 
BRANCH  20   2
ATOM      2  O   UNL     1      12.219   6.664  18.694  0.00  0.00    -0.395 OA
ATOM     21  H   UNL     1      12.030   7.085  19.550  0.00  0.00    +0.209 HD
ENDBRANCH  20   2
ENDBRANCH  19  20
ENDBRANCH  18  19
ENDBRANCH   9  14
ENDBRANCH   6   9
TORSDOF 8
ENDMDL
MODEL 8
REMARK VINA RESULT:      -4.8     25.616     28.991
REMARK  Name = 56773974
REMARK  12 active torsions:
REMARK  status: ('A' for Active; 'I' for Inactive)
REMARK    1  A    between atoms: O_2  and  C_20
REMARK    2  A    between atoms: N_3  and  C_7
REMARK    3  A    between atoms: N_3  and  C_12
REMARK    4  A    between atoms: N_3  and  C_13
REMARK    5  A    between atoms: C_5  and  C_10
REMARK    6  A    between atoms: C_5  and  C_11
REMARK    7  A    between atoms: C_6  and  C_9
REMARK    8  A    between atoms: C_9  and  C_14
REMARK    9  A    between atoms: C_12  and  C_15
REMARK   10  A    between atoms: C_13  and  C_16
REMARK   11  A    between atoms: C_18  and  C_19
REMARK   12  A    between atoms: C_19  and  C_20
REMARK                            x       y       z     vdW  Elec       q    Type
REMARK                         _______ _______ _______ _____ _____    ______ ____
ROOT
ATOM      5  C   UNL     1     -11.479   9.566  19.245  0.00  0.00    -0.016 C 
ATOM      6  C   UNL     1     -12.306   8.309  19.586  0.00  0.00    +0.004 C 
ATOM      7  C   UNL     1     -11.800   9.282  17.763  0.00  0.00    +0.063 C 
ATOM      8  C   UNL     1     -11.979   7.804  18.165  0.00  0.00    +0.024 C 
ATOM     10  C   UNL     1      -9.991   9.470  19.535  0.00  0.00    +0.013 C 
ATOM     11  C   UNL     1     -12.030  10.840  19.849  0.00  0.00    +0.013 C 
ENDROOT
BRANCH   7   3
ATOM      3  N   UNL     1     -10.596   9.406  16.923  0.00  0.00    -0.299 NA
BRANCH   3  12
ATOM     12  C   UNL     1     -10.668  10.654  16.164  0.00  0.00    +0.081 C 
ATOM     15  C   UNL     1      -9.643  11.659  16.661  0.00  0.00    +0.020 C 
ENDBRANCH   3  12
BRANCH   3  13
ATOM     13  C   UNL     1     -10.520   8.259  16.021  0.00  0.00    +0.081 C 
ATOM     16  C   UNL     1     -10.944   8.638  14.612  0.00  0.00    +0.020 C 
ENDBRANCH   3  13
ENDBRANCH   7   3
BRANCH   6   9
ATOM      9  C   UNL     1     -11.792   7.427  20.700  0.00  0.00    +0.063 C 
BRANCH   9  14
ATOM      1  O   UNL     1     -13.812   4.840  22.201  0.00  0.00    -0.359 OA
ATOM      4  N   UNL     1     -12.588   5.414  21.880  0.00  0.00    -0.083 NA
ATOM     14  C   UNL     1     -12.894   6.531  21.211  0.00  0.00    +0.084 A 
ATOM     17  C   UNL     1     -14.282   6.711  21.081  0.00  0.00    +0.071 A 
ATOM     18  C   UNL     1     -14.813   5.621  21.720  0.00  0.00    +0.140 A 
BRANCH  18  19
ATOM     19  C   UNL     1     -16.183   5.158  21.972  0.00  0.00    +0.105 C 
BRANCH  19  20
ATOM     20  C   UNL     1     -16.763   5.638  23.316  0.00  0.00    +0.163 C 
BRANCH  20   2
ATOM      2  O   UNL     1     -15.740   5.617  24.304  0.00  0.00    -0.395 OA
ATOM     21  H   UNL     1     -15.721   4.718  24.675  0.00  0.00    +0.209 HD
ENDBRANCH  20   2
ENDBRANCH  19  20
ENDBRANCH  18  19
ENDBRANCH   9  14
ENDBRANCH   6   9
TORSDOF 8
ENDMDL
MODEL 9
REMARK VINA RESULT:      -4.8     27.096     30.497
REMARK  Name = 56773974
REMARK  12 active torsions:
REMARK  status: ('A' for Active; 'I' for Inactive)
REMARK    1  A    between atoms: O_2  and  C_20
REMARK    2  A    between atoms: N_3  and  C_7
REMARK    3  A    between atoms: N_3  and  C_12
REMARK    4  A    between atoms: N_3  and  C_13
REMARK    5  A    between atoms: C_5  and  C_10
REMARK    6  A    between atoms: C_5  and  C_11
REMARK    7  A    between atoms: C_6  and  C_9
REMARK    8  A    between atoms: C_9  and  C_14
REMARK    9  A    between atoms: C_12  and  C_15
REMARK   10  A    between atoms: C_13  and  C_16
REMARK   11  A    between atoms: C_18  and  C_19
REMARK   12  A    between atoms: C_19  and  C_20
REMARK                            x       y       z     vdW  Elec       q    Type
REMARK                         _______ _______ _______ _____ _____    ______ ____
ROOT
ATOM      5  C   UNL     1     -12.459   7.940  20.451  0.00  0.00    -0.016 C 
ATOM      6  C   UNL     1     -13.527   8.318  21.498  0.00  0.00    +0.004 C 
ATOM      7  C   UNL     1     -11.887   9.362  20.634  0.00  0.00    +0.063 C 
ATOM      8  C   UNL     1     -13.299   9.788  21.088  0.00  0.00    +0.024 C 
ATOM     10  C   UNL     1     -12.976   7.711  19.042  0.00  0.00    +0.013 C 
ATOM     11  C   UNL     1     -11.585   6.776  20.865  0.00  0.00    +0.013 C 
ENDROOT
BRANCH   7   3
ATOM      3  N   UNL     1     -11.593   9.990  19.335  0.00  0.00    -0.299 NA
BRANCH   3  12
ATOM     12  C   UNL     1     -10.193   9.747  18.991  0.00  0.00    +0.081 C 
ATOM     15  C   UNL     1     -10.024   9.530  17.497  0.00  0.00    +0.020 C 
ENDBRANCH   3  12
BRANCH   3  13
ATOM     13  C   UNL     1     -11.860  11.425  19.424  0.00  0.00    +0.081 C 
ATOM     16  C   UNL     1     -12.720  11.897  18.265  0.00  0.00    +0.020 C 
ENDBRANCH   3  13
ENDBRANCH   7   3
BRANCH   6   9
ATOM      9  C   UNL     1     -14.932   7.811  21.264  0.00  0.00    +0.063 C 
BRANCH   9  14
ATOM      1  O   UNL     1     -15.339   4.298  21.981  0.00  0.00    -0.359 OA
ATOM      4  N   UNL     1     -15.183   5.365  21.104  0.00  0.00    -0.083 NA
ATOM     14  C   UNL     1     -15.108   6.447  21.885  0.00  0.00    +0.084 A 
ATOM     17  C   UNL     1     -15.210   6.127  23.250  0.00  0.00    +0.071 A 
ATOM     18  C   UNL     1     -15.353   4.765  23.256  0.00  0.00    +0.140 A 
BRANCH  18  19
ATOM     19  C   UNL     1     -15.511   3.763  24.318  0.00  0.00    +0.105 C 
BRANCH  19  20
ATOM     20  C   UNL     1     -16.760   2.877  24.154  0.00  0.00    +0.163 C 
BRANCH  20   2
ATOM      2  O   UNL     1     -16.642   2.112  22.961  0.00  0.00    -0.395 OA
ATOM     21  H   UNL     1     -15.692   1.973  22.805  0.00  0.00    +0.209 HD
ENDBRANCH  20   2
ENDBRANCH  19  20
ENDBRANCH  18  19
ENDBRANCH   9  14
ENDBRANCH   6   9
TORSDOF 8
ENDMDL
MODEL 10
REMARK VINA RESULT:      -4.8     34.959     37.560
REMARK  Name = 56773974
REMARK  12 active torsions:
REMARK  status: ('A' for Active; 'I' for Inactive)
REMARK    1  A    between atoms: O_2  and  C_20
REMARK    2  A    between atoms: N_3  and  C_7
REMARK    3  A    between atoms: N_3  and  C_12
REMARK    4  A    between atoms: N_3  and  C_13
REMARK    5  A    between atoms: C_5  and  C_10
REMARK    6  A    between atoms: C_5  and  C_11
REMARK    7  A    between atoms: C_6  and  C_9
REMARK    8  A    between atoms: C_9  and  C_14
REMARK    9  A    between atoms: C_12  and  C_15
REMARK   10  A    between atoms: C_13  and  C_16
REMARK   11  A    between atoms: C_18  and  C_19
REMARK   12  A    between atoms: C_19  and  C_20
REMARK                            x       y       z     vdW  Elec       q    Type
REMARK                         _______ _______ _______ _____ _____    ______ ____
ROOT
ATOM      5  C   UNL     1     -14.693   2.736  32.570  0.00  0.00    -0.016 C 
ATOM      6  C   UNL     1     -15.452   2.354  31.282  0.00  0.00    +0.004 C 
ATOM      7  C   UNL     1     -15.828   3.743  32.849  0.00  0.00    +0.063 C 
ATOM      8  C   UNL     1     -16.082   3.762  31.328  0.00  0.00    +0.024 C 
ATOM     10  C   UNL     1     -13.356   3.428  32.362  0.00  0.00    +0.013 C 
ATOM     11  C   UNL     1     -14.521   1.588  33.540  0.00  0.00    +0.013 C 
ENDROOT
BRANCH   7   3
ATOM      3  N   UNL     1     -15.293   5.051  33.261  0.00  0.00    -0.299 NA
BRANCH   3  12
ATOM     12  C   UNL     1     -15.459   5.204  34.706  0.00  0.00    +0.081 C 
ATOM     15  C   UNL     1     -14.126   5.102  35.426  0.00  0.00    +0.020 C 
ENDBRANCH   3  12
BRANCH   3  13
ATOM     13  C   UNL     1     -16.006   6.109  32.546  0.00  0.00    +0.081 C 
ATOM     16  C   UNL     1     -16.708   7.048  33.512  0.00  0.00    +0.020 C 
ENDBRANCH   3  13
ENDBRANCH   7   3
BRANCH   6   9
ATOM      9  C   UNL     1     -14.622   2.076  30.050  0.00  0.00    +0.063 C 
BRANCH   9  14
ATOM      1  O   UNL     1     -16.790   0.657  27.538  0.00  0.00    -0.359 OA
ATOM      4  N   UNL     1     -16.027   0.570  28.696  0.00  0.00    -0.083 NA
ATOM     14  C   UNL     1     -15.517   1.793  28.867  0.00  0.00    +0.084 A 
ATOM     17  C   UNL     1     -15.918   2.685  27.857  0.00  0.00    +0.071 A 
ATOM     18  C   UNL     1     -16.717   1.921  27.047  0.00  0.00    +0.140 A 
BRANCH  18  19
ATOM     19  C   UNL     1     -17.469   2.190  25.816  0.00  0.00    +0.105 C 
BRANCH  19  20
ATOM     20  C   UNL     1     -16.794   3.218  24.888  0.00  0.00    +0.163 C 
BRANCH  20   2
ATOM      2  O   UNL     1     -15.639   2.634  24.301  0.00  0.00    -0.395 OA
ATOM     21  H   UNL     1     -15.761   2.665  23.336  0.00  0.00    +0.209 HD
ENDBRANCH  20   2
ENDBRANCH  19  20
ENDBRANCH  18  19
ENDBRANCH   9  14
ENDBRANCH   6   9
TORSDOF 8
ENDMDL
