MODEL 1
REMARK VINA RESULT:      -7.9      0.000      0.000
REMARK  Name = 40777958
REMARK  8 active torsions:
REMARK  status: ('A' for Active; 'I' for Inactive)
REMARK    1  A    between atoms: O_4  and  C_12
REMARK    2  A    between atoms: O_5  and  C_13
REMARK    3  A    between atoms: N_9  and  C_22
REMARK    4  A    between atoms: N_10  and  C_16
REMARK    5  A    between atoms: C_11  and  C_15
REMARK    6  A    between atoms: C_14  and  C_16
REMARK    7  A    between atoms: C_15  and  C_17
REMARK    8  A    between atoms: C_23  and  C_26
REMARK                            x       y       z     vdW  Elec       q    Type
REMARK                         _______ _______ _______ _____ _____    ______ ____
ROOT
ATOM      3  O   UNL     1      14.135   8.391  19.545  0.00  0.00    -0.366 OA
ATOM     11  C   UNL     1      13.886   7.188  20.309  0.00  0.00    +0.159 C 
ATOM     12  C   UNL     1      12.380   6.957  20.265  0.00  0.00    +0.175 C 
ATOM     13  C   UNL     1      11.848   8.366  20.117  0.00  0.00    +0.176 C 
ATOM     14  C   UNL     1      12.876   8.983  19.183  0.00  0.00    +0.167 C 
ENDROOT
BRANCH  12   4
ATOM      4  O   UNL     1      12.083   6.190  19.098  0.00  0.00    -0.387 OA
ATOM     35  H   UNL     1      11.156   6.366  18.863  0.00  0.00    +0.210 HD
ENDBRANCH  12   4
BRANCH  13   5
ATOM      5  O   UNL     1      10.544   8.418  19.578  0.00  0.00    -0.387 OA
ATOM     36  H   UNL     1      10.615   8.770  18.674  0.00  0.00    +0.210 HD
ENDBRANCH  13   5
BRANCH  11  15
ATOM     15  C   UNL     1      14.414   7.414  21.719  0.00  0.00    +0.130 C 
BRANCH  15  17
ATOM      6  O   UNL     1      15.308   9.604  21.920  0.00  0.00    -0.276 OA
ATOM      8  N   UNL     1      16.808   7.910  21.393  0.00  0.00    -0.298 N 
ATOM      9  N   UNL     1      19.506   6.936  21.001  0.00  0.00    -0.327 N 
ATOM     17  C   UNL     1      15.542   8.416  21.691  0.00  0.00    +0.218 C 
ATOM     18  C   UNL     1      17.084   6.497  21.121  0.00  0.00    +0.126 C 
ATOM     19  C   UNL     1      17.954   8.815  21.352  0.00  0.00    +0.126 C 
ATOM     20  C   UNL     1      18.376   6.288  20.331  0.00  0.00    +0.124 C 
ATOM     21  C   UNL     1      19.239   8.129  21.809  0.00  0.00    +0.124 C 
BRANCH   9  22
ATOM      1  F   UNL     1      24.654   5.037  20.393  0.00  0.00    -0.205 F 
ATOM     22  C   UNL     1      20.804   6.457  20.848  0.00  0.00    +0.030 A 
ATOM     24  C   UNL     1      21.854   7.348  20.624  0.00  0.00    +0.026 A 
ATOM     25  C   UNL     1      21.056   5.087  20.919  0.00  0.00    +0.026 A 
ATOM     27  C   UNL     1      23.155   6.868  20.470  0.00  0.00    +0.040 A 
ATOM     28  C   UNL     1      22.356   4.607  20.765  0.00  0.00    +0.040 A 
ATOM     29  C   UNL     1      23.406   5.498  20.541  0.00  0.00    +0.124 A 
ENDBRANCH   9  22
ENDBRANCH  15  17
ENDBRANCH  11  15
BRANCH  14  16
ATOM     16  C   UNL     1      12.968  10.494  19.302  0.00  0.00    +0.138 C 
BRANCH  16  10
ATOM      7  O   UNL     1      12.420  13.225  19.997  0.00  0.00    -0.270 OA
ATOM     10  N   UNL     1      12.313  10.960  20.489  0.00  0.00    -0.309 N 
ATOM     23  C   UNL     1      12.087  12.310  20.746  0.00  0.00    +0.244 C 
ATOM     37  H   UNL     1      11.963  10.252  21.125  0.00  0.00    +0.149 HD
BRANCH  23  26
ATOM      2  F   UNL     1      10.988  11.203  25.352  0.00  0.00    -0.205 F 
ATOM     26  C   UNL     1      11.419  12.630  22.033  0.00  0.00    +0.039 A 
ATOM     30  C   UNL     1      11.519  11.748  23.109  0.00  0.00    +0.051 A 
ATOM     31  C   UNL     1      10.689  13.812  22.165  0.00  0.00    +0.013 A 
ATOM     32  C   UNL     1      10.890  12.049  24.317  0.00  0.00    +0.124 A 
ATOM     33  C   UNL     1      10.061  14.112  23.374  0.00  0.00    +0.004 A 
ATOM     34  C   UNL     1      10.161  13.231  24.450  0.00  0.00    +0.038 A 
ENDBRANCH  23  26
ENDBRANCH  16  10
ENDBRANCH  14  16
TORSDOF 8
ENDMDL
MODEL 2
REMARK VINA RESULT:      -7.8      1.832      2.372
REMARK  Name = 40777958
REMARK  8 active torsions:
REMARK  status: ('A' for Active; 'I' for Inactive)
REMARK    1  A    between atoms: O_4  and  C_12
REMARK    2  A    between atoms: O_5  and  C_13
REMARK    3  A    between atoms: N_9  and  C_22
REMARK    4  A    between atoms: N_10  and  C_16
REMARK    5  A    between atoms: C_11  and  C_15
REMARK    6  A    between atoms: C_14  and  C_16
REMARK    7  A    between atoms: C_15  and  C_17
REMARK    8  A    between atoms: C_23  and  C_26
REMARK                            x       y       z     vdW  Elec       q    Type
REMARK                         _______ _______ _______ _____ _____    ______ ____
ROOT
ATOM      3  O   UNL     1      13.588   9.211  19.773  0.00  0.00    -0.366 OA
ATOM     11  C   UNL     1      14.734   8.492  19.259  0.00  0.00    +0.159 C 
ATOM     12  C   UNL     1      14.218   7.622  18.118  0.00  0.00    +0.175 C 
ATOM     13  C   UNL     1      12.784   7.371  18.535  0.00  0.00    +0.176 C 
ATOM     14  C   UNL     1      12.400   8.717  19.130  0.00  0.00    +0.167 C 
ENDROOT
BRANCH  12   4
ATOM      4  O   UNL     1      14.257   8.395  16.919  0.00  0.00    -0.387 OA
ATOM     35  H   UNL     1      14.240   9.333  17.177  0.00  0.00    +0.210 HD
ENDBRANCH  12   4
BRANCH  13   5
ATOM      5  O   UNL     1      11.945   7.008  17.460  0.00  0.00    -0.387 OA
ATOM     36  H   UNL     1      12.499   6.571  16.792  0.00  0.00    +0.210 HD
ENDBRANCH  13   5
BRANCH  11  15
ATOM     15  C   UNL     1      15.328   7.683  20.404  0.00  0.00    +0.130 C 
BRANCH  15  17
ATOM      6  O   UNL     1      16.466   9.574  21.281  0.00  0.00    -0.276 OA
ATOM      8  N   UNL     1      17.708   7.624  21.051  0.00  0.00    -0.298 N 
ATOM      9  N   UNL     1      20.112   6.076  21.498  0.00  0.00    -0.327 N 
ATOM     17  C   UNL     1      16.544   8.388  20.954  0.00  0.00    +0.218 C 
ATOM     18  C   UNL     1      17.799   6.214  20.662  0.00  0.00    +0.126 C 
ATOM     19  C   UNL     1      18.926   8.231  21.579  0.00  0.00    +0.126 C 
ATOM     20  C   UNL     1      19.232   5.774  20.366  0.00  0.00    +0.124 C 
ATOM     21  C   UNL     1      19.781   7.224  22.345  0.00  0.00    +0.124 C 
BRANCH   9  22
ATOM      1  F   UNL     1      24.640   3.070  22.473  0.00  0.00    -0.205 F 
ATOM     22  C   UNL     1      21.254   5.317  21.744  0.00  0.00    +0.030 A 
ATOM     24  C   UNL     1      22.203   5.764  22.663  0.00  0.00    +0.026 A 
ATOM     25  C   UNL     1      21.449   4.111  21.071  0.00  0.00    +0.026 A 
ATOM     27  C   UNL     1      23.347   5.005  22.910  0.00  0.00    +0.040 A 
ATOM     28  C   UNL     1      22.592   3.352  21.318  0.00  0.00    +0.040 A 
ATOM     29  C   UNL     1      23.541   3.799  22.237  0.00  0.00    +0.124 A 
ENDBRANCH   9  22
ENDBRANCH  15  17
ENDBRANCH  11  15
BRANCH  14  16
ATOM     16  C   UNL     1      11.271   8.628  20.140  0.00  0.00    +0.138 C 
BRANCH  16  10
ATOM      7  O   UNL     1      10.912   8.660  22.988  0.00  0.00    -0.270 OA
ATOM     10  N   UNL     1      11.241   9.785  20.986  0.00  0.00    -0.309 N 
ATOM     23  C   UNL     1      11.062   9.707  22.365  0.00  0.00    +0.244 C 
ATOM     37  H   UNL     1      11.415  10.680  20.542  0.00  0.00    +0.149 HD
BRANCH  23  26
ATOM      2  F   UNL     1      10.954  14.569  22.396  0.00  0.00    -0.205 F 
ATOM     26  C   UNL     1      11.030  10.999  23.097  0.00  0.00    +0.039 A 
ATOM     30  C   UNL     1      11.007  12.201  22.389  0.00  0.00    +0.051 A 
ATOM     31  C   UNL     1      11.025  11.012  24.492  0.00  0.00    +0.013 A 
ATOM     32  C   UNL     1      10.978  13.415  23.076  0.00  0.00    +0.124 A 
ATOM     33  C   UNL     1      10.996  12.225  25.179  0.00  0.00    +0.004 A 
ATOM     34  C   UNL     1      10.972  13.427  24.471  0.00  0.00    +0.038 A 
ENDBRANCH  23  26
ENDBRANCH  16  10
ENDBRANCH  14  16
TORSDOF 8
ENDMDL
MODEL 3
REMARK VINA RESULT:      -7.7     27.367     31.162
REMARK  Name = 40777958
REMARK  8 active torsions:
REMARK  status: ('A' for Active; 'I' for Inactive)
REMARK    1  A    between atoms: O_4  and  C_12
REMARK    2  A    between atoms: O_5  and  C_13
REMARK    3  A    between atoms: N_9  and  C_22
REMARK    4  A    between atoms: N_10  and  C_16
REMARK    5  A    between atoms: C_11  and  C_15
REMARK    6  A    between atoms: C_14  and  C_16
REMARK    7  A    between atoms: C_15  and  C_17
REMARK    8  A    between atoms: C_23  and  C_26
REMARK                            x       y       z     vdW  Elec       q    Type
REMARK                         _______ _______ _______ _____ _____    ______ ____
ROOT
ATOM      3  O   UNL     1      -4.364 -11.720  18.656  0.00  0.00    -0.366 OA
ATOM     11  C   UNL     1      -5.754 -12.074  18.839  0.00  0.00    +0.159 C 
ATOM     12  C   UNL     1      -6.254 -12.562  17.484  0.00  0.00    +0.175 C 
ATOM     13  C   UNL     1      -5.371 -11.792  16.525  0.00  0.00    +0.176 C 
ATOM     14  C   UNL     1      -4.039 -11.809  17.258  0.00  0.00    +0.167 C 
ENDROOT
BRANCH  12   4
ATOM      4  O   UNL     1      -5.985 -13.961  17.390  0.00  0.00    -0.387 OA
ATOM     35  H   UNL     1      -6.778 -14.386  17.020  0.00  0.00    +0.210 HD
ENDBRANCH  12   4
BRANCH  13   5
ATOM      5  O   UNL     1      -5.281 -12.387  15.248  0.00  0.00    -0.387 OA
ATOM     36  H   UNL     1      -5.946 -11.962  14.681  0.00  0.00    +0.210 HD
ENDBRANCH  13   5
BRANCH  11  15
ATOM     15  C   UNL     1      -6.489 -10.837  19.336  0.00  0.00    +0.130 C 
BRANCH  15  17
ATOM      6  O   UNL     1      -8.430 -11.979  20.088  0.00  0.00    -0.276 OA
ATOM      8  N   UNL     1      -8.753 -10.297  18.518  0.00  0.00    -0.298 N 
ATOM      9  N   UNL     1     -10.478  -8.552  16.982  0.00  0.00    -0.327 N 
ATOM     17  C   UNL     1      -7.976 -11.096  19.357  0.00  0.00    +0.218 C 
ATOM     18  C   UNL     1      -8.211  -9.248  17.650  0.00  0.00    +0.126 C 
ATOM     19  C   UNL     1     -10.201 -10.481  18.486  0.00  0.00    +0.126 C 
ATOM     20  C   UNL     1      -9.143  -8.900  16.490  0.00  0.00    +0.124 C 
ATOM     21  C   UNL     1     -10.939  -9.169  18.229  0.00  0.00    +0.124 C 
BRANCH   9  22
ATOM      1  F   UNL     1     -13.754  -5.122  14.156  0.00  0.00    -0.205 F 
ATOM     22  C   UNL     1     -11.305  -7.687  16.270  0.00  0.00    +0.030 A 
ATOM     24  C   UNL     1     -10.751  -6.622  15.558  0.00  0.00    +0.026 A 
ATOM     25  C   UNL     1     -12.685  -7.885  16.267  0.00  0.00    +0.026 A 
ATOM     27  C   UNL     1     -11.578  -5.755  14.844  0.00  0.00    +0.040 A 
ATOM     28  C   UNL     1     -13.513  -7.019  15.553  0.00  0.00    +0.040 A 
ATOM     29  C   UNL     1     -12.959  -5.954  14.841  0.00  0.00    +0.124 A 
ENDBRANCH   9  22
ENDBRANCH  15  17
ENDBRANCH  11  15
BRANCH  14  16
ATOM     16  C   UNL     1      -3.125 -10.660  16.871  0.00  0.00    +0.138 C 
BRANCH  16  10
ATOM      7  O   UNL     1      -1.344 -11.548  14.802  0.00  0.00    -0.270 OA
ATOM     10  N   UNL     1      -3.226 -10.368  15.471  0.00  0.00    -0.309 N 
ATOM     23  C   UNL     1      -2.313 -10.843  14.533  0.00  0.00    +0.244 C 
ATOM     37  H   UNL     1      -4.036  -9.834  15.173  0.00  0.00    +0.149 HD
BRANCH  23  26
ATOM      2  F   UNL     1      -0.766  -8.797  10.402  0.00  0.00    -0.205 F 
ATOM     26  C   UNL     1      -2.542 -10.429  13.125  0.00  0.00    +0.039 A 
ATOM     30  C   UNL     1      -1.526  -9.794  12.411  0.00  0.00    +0.051 A 
ATOM     31  C   UNL     1      -3.774 -10.673  12.518  0.00  0.00    +0.013 A 
ATOM     32  C   UNL     1      -1.742  -9.405  11.089  0.00  0.00    +0.124 A 
ATOM     33  C   UNL     1      -3.990 -10.283  11.196  0.00  0.00    +0.004 A 
ATOM     34  C   UNL     1      -2.974  -9.649  10.481  0.00  0.00    +0.038 A 
ENDBRANCH  23  26
ENDBRANCH  16  10
ENDBRANCH  14  16
TORSDOF 8
ENDMDL
MODEL 4
REMARK VINA RESULT:      -7.7     28.168     31.280
REMARK  Name = 40777958
REMARK  8 active torsions:
REMARK  status: ('A' for Active; 'I' for Inactive)
REMARK    1  A    between atoms: O_4  and  C_12
REMARK    2  A    between atoms: O_5  and  C_13
REMARK    3  A    between atoms: N_9  and  C_22
REMARK    4  A    between atoms: N_10  and  C_16
REMARK    5  A    between atoms: C_11  and  C_15
REMARK    6  A    between atoms: C_14  and  C_16
REMARK    7  A    between atoms: C_15  and  C_17
REMARK    8  A    between atoms: C_23  and  C_26
REMARK                            x       y       z     vdW  Elec       q    Type
REMARK                         _______ _______ _______ _____ _____    ______ ____
ROOT
ATOM      3  O   UNL     1      -3.987 -11.630  18.369  0.00  0.00    -0.366 OA
ATOM     11  C   UNL     1      -5.306 -12.068  18.770  0.00  0.00    +0.159 C 
ATOM     12  C   UNL     1      -5.940 -12.702  17.537  0.00  0.00    +0.175 C 
ATOM     13  C   UNL     1      -5.261 -11.952  16.411  0.00  0.00    +0.176 C 
ATOM     14  C   UNL     1      -3.846 -11.811  16.949  0.00  0.00    +0.167 C 
ENDROOT
BRANCH  12   4
ATOM      4  O   UNL     1      -5.570 -14.081  17.508  0.00  0.00    -0.387 OA
ATOM     35  H   UNL     1      -6.347 -14.584  17.210  0.00  0.00    +0.210 HD
ENDBRANCH  12   4
BRANCH  13   5
ATOM      5  O   UNL     1      -5.293 -12.643  15.180  0.00  0.00    -0.387 OA
ATOM     36  H   UNL     1      -5.732 -13.496  15.335  0.00  0.00    +0.210 HD
ENDBRANCH  13   5
BRANCH  11  15
ATOM     15  C   UNL     1      -6.068 -10.850  19.273  0.00  0.00    +0.130 C 
BRANCH  15  17
ATOM      6  O   UNL     1      -7.950 -12.066  20.061  0.00  0.00    -0.276 OA
ATOM      8  N   UNL     1      -8.372 -10.370  18.532  0.00  0.00    -0.298 N 
ATOM      9  N   UNL     1     -10.196  -8.656  17.078  0.00  0.00    -0.327 N 
ATOM     17  C   UNL     1      -7.545 -11.157  19.334  0.00  0.00    +0.218 C 
ATOM     18  C   UNL     1      -7.889  -9.290  17.667  0.00  0.00    +0.126 C 
ATOM     19  C   UNL     1      -9.814 -10.600  18.539  0.00  0.00    +0.126 C 
ATOM     20  C   UNL     1      -8.866  -8.953  16.541  0.00  0.00    +0.124 C 
ATOM     21  C   UNL     1     -10.600  -9.308  18.326  0.00  0.00    +0.124 C 
BRANCH   9  22
ATOM      1  F   UNL     1     -13.662  -5.287  14.409  0.00  0.00    -0.205 F 
ATOM     22  C   UNL     1     -11.071  -7.806  16.405  0.00  0.00    +0.030 A 
ATOM     24  C   UNL     1     -10.577  -6.685  15.737  0.00  0.00    +0.026 A 
ATOM     25  C   UNL     1     -12.439  -8.076  16.398  0.00  0.00    +0.026 A 
ATOM     27  C   UNL     1     -11.452  -5.834  15.063  0.00  0.00    +0.040 A 
ATOM     28  C   UNL     1     -13.314  -7.225  15.723  0.00  0.00    +0.040 A 
ATOM     29  C   UNL     1     -12.821  -6.104  15.055  0.00  0.00    +0.124 A 
ENDBRANCH   9  22
ENDBRANCH  15  17
ENDBRANCH  11  15
BRANCH  14  16
ATOM     16  C   UNL     1      -3.092 -10.635  16.356  0.00  0.00    +0.138 C 
BRANCH  16  10
ATOM      7  O   UNL     1      -1.760 -11.388  13.926  0.00  0.00    -0.270 OA
ATOM     10  N   UNL     1      -3.530 -10.360  15.019  0.00  0.00    -0.309 N 
ATOM     23  C   UNL     1      -2.818 -10.765  13.892  0.00  0.00    +0.244 C 
ATOM     37  H   UNL     1      -4.426  -9.896  14.918  0.00  0.00    +0.149 HD
BRANCH  23  26
ATOM      2  F   UNL     1      -6.644 -10.022  10.985  0.00  0.00    -0.205 F 
ATOM     26  C   UNL     1      -3.393 -10.380  12.578  0.00  0.00    +0.039 A 
ATOM     30  C   UNL     1      -4.776 -10.382  12.395  0.00  0.00    +0.051 A 
ATOM     31  C   UNL     1      -2.551 -10.018  11.527  0.00  0.00    +0.013 A 
ATOM     32  C   UNL     1      -5.316 -10.021  11.160  0.00  0.00    +0.124 A 
ATOM     33  C   UNL     1      -3.091  -9.657  10.293  0.00  0.00    +0.004 A 
ATOM     34  C   UNL     1      -4.474  -9.658  10.109  0.00  0.00    +0.038 A 
ENDBRANCH  23  26
ENDBRANCH  16  10
ENDBRANCH  14  16
TORSDOF 8
ENDMDL
MODEL 5
REMARK VINA RESULT:      -7.7      5.155      6.841
REMARK  Name = 40777958
REMARK  8 active torsions:
REMARK  status: ('A' for Active; 'I' for Inactive)
REMARK    1  A    between atoms: O_4  and  C_12
REMARK    2  A    between atoms: O_5  and  C_13
REMARK    3  A    between atoms: N_9  and  C_22
REMARK    4  A    between atoms: N_10  and  C_16
REMARK    5  A    between atoms: C_11  and  C_15
REMARK    6  A    between atoms: C_14  and  C_16
REMARK    7  A    between atoms: C_15  and  C_17
REMARK    8  A    between atoms: C_23  and  C_26
REMARK                            x       y       z     vdW  Elec       q    Type
REMARK                         _______ _______ _______ _____ _____    ______ ____
ROOT
ATOM      3  O   UNL     1      12.373   9.261  19.614  0.00  0.00    -0.366 OA
ATOM     11  C   UNL     1      13.360   8.682  18.729  0.00  0.00    +0.159 C 
ATOM     12  C   UNL     1      13.062   7.188  18.673  0.00  0.00    +0.175 C 
ATOM     13  C   UNL     1      12.433   6.940  20.027  0.00  0.00    +0.176 C 
ATOM     14  C   UNL     1      11.607   8.203  20.215  0.00  0.00    +0.167 C 
ENDROOT
BRANCH  12   4
ATOM      4  O   UNL     1      12.107   6.966  17.635  0.00  0.00    -0.387 OA
ATOM     35  H   UNL     1      11.285   6.662  18.056  0.00  0.00    +0.210 HD
ENDBRANCH  12   4
BRANCH  13   5
ATOM      5  O   UNL     1      11.636   5.776  20.069  0.00  0.00    -0.387 OA
ATOM     36  H   UNL     1      10.725   6.037  19.852  0.00  0.00    +0.210 HD
ENDBRANCH  13   5
BRANCH  11  15
ATOM     15  C   UNL     1      14.737   8.994  19.299  0.00  0.00    +0.130 C 
BRANCH  15  17
ATOM      6  O   UNL     1      15.257  11.048  18.227  0.00  0.00    -0.276 OA
ATOM      8  N   UNL     1      14.855  11.138  20.513  0.00  0.00    -0.298 N 
ATOM      9  N   UNL     1      14.422  12.623  22.960  0.00  0.00    -0.327 N 
ATOM     17  C   UNL     1      14.973  10.485  19.286  0.00  0.00    +0.218 C 
ATOM     18  C   UNL     1      14.518  10.467  21.771  0.00  0.00    +0.126 C 
ATOM     19  C   UNL     1      15.062  12.582  20.583  0.00  0.00    +0.126 C 
ATOM     20  C   UNL     1      14.959  11.261  23.001  0.00  0.00    +0.124 C 
ATOM     21  C   UNL     1      14.185  13.234  21.649  0.00  0.00    +0.124 C 
BRANCH   9  22
ATOM      1  F   UNL     1      13.452  15.450  27.602  0.00  0.00    -0.205 F 
ATOM     22  C   UNL     1      14.177  13.336  24.131  0.00  0.00    +0.030 A 
ATOM     24  C   UNL     1      14.056  14.725  24.089  0.00  0.00    +0.026 A 
ATOM     25  C   UNL     1      14.053  12.662  25.345  0.00  0.00    +0.026 A 
ATOM     27  C   UNL     1      13.812  15.440  25.261  0.00  0.00    +0.040 A 
ATOM     28  C   UNL     1      13.807  13.376  26.518  0.00  0.00    +0.040 A 
ATOM     29  C   UNL     1      13.686  14.765  26.476  0.00  0.00    +0.124 A 
ENDBRANCH   9  22
ENDBRANCH  15  17
ENDBRANCH  11  15
BRANCH  14  16
ATOM     16  C   UNL     1      11.334   8.532  21.671  0.00  0.00    +0.138 C 
BRANCH  16  10
ATOM      7  O   UNL     1      11.060   9.908  24.176  0.00  0.00    -0.270 OA
ATOM     10  N   UNL     1      11.153   9.942  21.858  0.00  0.00    -0.309 N 
ATOM     23  C   UNL     1      11.029  10.527  23.116  0.00  0.00    +0.244 C 
ATOM     37  H   UNL     1      11.174  10.519  21.024  0.00  0.00    +0.149 HD
BRANCH  23  26
ATOM      2  F   UNL     1      10.195  14.663  25.534  0.00  0.00    -0.205 F 
ATOM     26  C   UNL     1      10.821  11.998  23.138  0.00  0.00    +0.039 A 
ATOM     30  C   UNL     1      10.601  12.653  24.350  0.00  0.00    +0.051 A 
ATOM     31  C   UNL     1      10.843  12.724  21.947  0.00  0.00    +0.013 A 
ATOM     32  C   UNL     1      10.405  14.033  24.370  0.00  0.00    +0.124 A 
ATOM     33  C   UNL     1      10.647  14.104  21.968  0.00  0.00    +0.004 A 
ATOM     34  C   UNL     1      10.428  14.760  23.180  0.00  0.00    +0.038 A 
ENDBRANCH  23  26
ENDBRANCH  16  10
ENDBRANCH  14  16
TORSDOF 8
ENDMDL
MODEL 6
REMARK VINA RESULT:      -7.5      3.174      5.826
REMARK  Name = 40777958
REMARK  8 active torsions:
REMARK  status: ('A' for Active; 'I' for Inactive)
REMARK    1  A    between atoms: O_4  and  C_12
REMARK    2  A    between atoms: O_5  and  C_13
REMARK    3  A    between atoms: N_9  and  C_22
REMARK    4  A    between atoms: N_10  and  C_16
REMARK    5  A    between atoms: C_11  and  C_15
REMARK    6  A    between atoms: C_14  and  C_16
REMARK    7  A    between atoms: C_15  and  C_17
REMARK    8  A    between atoms: C_23  and  C_26
REMARK                            x       y       z     vdW  Elec       q    Type
REMARK                         _______ _______ _______ _____ _____    ______ ____
ROOT
ATOM      3  O   UNL     1      12.979  11.354  24.227  0.00  0.00    -0.366 OA
ATOM     11  C   UNL     1      13.805  12.493  24.561  0.00  0.00    +0.159 C 
ATOM     12  C   UNL     1      12.982  13.355  25.512  0.00  0.00    +0.175 C 
ATOM     13  C   UNL     1      11.566  13.037  25.083  0.00  0.00    +0.176 C 
ATOM     14  C   UNL     1      11.666  11.550  24.781  0.00  0.00    +0.167 C 
ENDROOT
BRANCH  12   4
ATOM      4  O   UNL     1      13.213  12.890  26.842  0.00  0.00    -0.387 OA
ATOM     35  H   UNL     1      12.377  12.982  27.331  0.00  0.00    +0.210 HD
ENDBRANCH  12   4
BRANCH  13   5
ATOM      5  O   UNL     1      10.604  13.311  26.079  0.00  0.00    -0.387 OA
ATOM     36  H   UNL     1       9.949  12.593  26.059  0.00  0.00    +0.210 HD
ENDBRANCH  13   5
BRANCH  11  15
ATOM     15  C   UNL     1      14.159  13.208  23.264  0.00  0.00    +0.130 C 
BRANCH  15  17
ATOM      6  O   UNL     1      16.389  14.023  23.313  0.00  0.00    -0.276 OA
ATOM      8  N   UNL     1      16.072  11.909  22.405  0.00  0.00    -0.298 N 
ATOM      9  N   UNL     1      17.100   9.408  21.370  0.00  0.00    -0.327 N 
ATOM     17  C   UNL     1      15.641  13.094  23.003  0.00  0.00    +0.218 C 
ATOM     18  C   UNL     1      15.182  10.804  22.037  0.00  0.00    +0.126 C 
ATOM     19  C   UNL     1      17.493  11.718  22.125  0.00  0.00    +0.126 C 
ATOM     20  C   UNL     1      15.780   9.896  20.962  0.00  0.00    +0.124 C 
ATOM     21  C   UNL     1      17.908  10.255  22.251  0.00  0.00    +0.124 C 
BRANCH   9  22
ATOM      1  F   UNL     1      19.048   4.581  19.529  0.00  0.00    -0.205 F 
ATOM     22  C   UNL     1      17.592   8.190  20.906  0.00  0.00    +0.030 A 
ATOM     24  C   UNL     1      16.811   7.400  20.062  0.00  0.00    +0.026 A 
ATOM     25  C   UNL     1      18.863   7.762  21.285  0.00  0.00    +0.026 A 
ATOM     27  C   UNL     1      17.303   6.181  19.597  0.00  0.00    +0.040 A 
ATOM     28  C   UNL     1      19.356   6.543  20.820  0.00  0.00    +0.040 A 
ATOM     29  C   UNL     1      18.576   5.752  19.975  0.00  0.00    +0.124 A 
ENDBRANCH   9  22
ENDBRANCH  15  17
ENDBRANCH  11  15
BRANCH  14  16
ATOM     16  C   UNL     1      10.618  11.064  23.797  0.00  0.00    +0.138 C 
BRANCH  16  10
ATOM      7  O   UNL     1      10.113   8.342  23.036  0.00  0.00    -0.270 OA
ATOM     10  N   UNL     1      11.220  10.354  22.707  0.00  0.00    -0.309 N 
ATOM     23  C   UNL     1      10.915   9.029  22.408  0.00  0.00    +0.244 C 
ATOM     37  H   UNL     1      11.852  10.880  22.113  0.00  0.00    +0.149 HD
BRANCH  23  26
ATOM      2  F   UNL     1      11.716   8.618  17.629  0.00  0.00    -0.205 F 
ATOM     26  C   UNL     1      11.645   8.429  21.262  0.00  0.00    +0.039 A 
ATOM     30  C   UNL     1      11.331   8.813  19.958  0.00  0.00    +0.051 A 
ATOM     31  C   UNL     1      12.642   7.481  21.489  0.00  0.00    +0.013 A 
ATOM     32  C   UNL     1      12.016   8.248  18.881  0.00  0.00    +0.124 A 
ATOM     33  C   UNL     1      13.327   6.917  20.413  0.00  0.00    +0.004 A 
ATOM     34  C   UNL     1      13.015   7.301  19.108  0.00  0.00    +0.038 A 
ENDBRANCH  23  26
ENDBRANCH  16  10
ENDBRANCH  14  16
TORSDOF 8
ENDMDL
MODEL 7
REMARK VINA RESULT:      -7.3     17.031     20.425
REMARK  Name = 40777958
REMARK  8 active torsions:
REMARK  status: ('A' for Active; 'I' for Inactive)
REMARK    1  A    between atoms: O_4  and  C_12
REMARK    2  A    between atoms: O_5  and  C_13
REMARK    3  A    between atoms: N_9  and  C_22
REMARK    4  A    between atoms: N_10  and  C_16
REMARK    5  A    between atoms: C_11  and  C_15
REMARK    6  A    between atoms: C_14  and  C_16
REMARK    7  A    between atoms: C_15  and  C_17
REMARK    8  A    between atoms: C_23  and  C_26
REMARK                            x       y       z     vdW  Elec       q    Type
REMARK                         _______ _______ _______ _____ _____    ______ ____
ROOT
ATOM      3  O   UNL     1      11.059   6.953   7.303  0.00  0.00    -0.366 OA
ATOM     11  C   UNL     1      10.005   6.422   8.139  0.00  0.00    +0.159 C 
ATOM     12  C   UNL     1       9.664   5.046   7.578  0.00  0.00    +0.175 C 
ATOM     13  C   UNL     1      10.010   5.208   6.113  0.00  0.00    +0.176 C 
ATOM     14  C   UNL     1      11.263   6.066   6.189  0.00  0.00    +0.167 C 
ENDROOT
BRANCH  12   4
ATOM      4  O   UNL     1      10.531   4.091   8.189  0.00  0.00    -0.387 OA
ATOM     35  H   UNL     1      10.497   3.281   7.651  0.00  0.00    +0.210 HD
ENDBRANCH  12   4
BRANCH  13   5
ATOM      5  O   UNL     1      10.248   3.981   5.456  0.00  0.00    -0.387 OA
ATOM     36  H   UNL     1      10.112   4.129   4.504  0.00  0.00    +0.210 HD
ENDBRANCH  13   5
BRANCH  11  15
ATOM     15  C   UNL     1       8.834   7.394   8.087  0.00  0.00    +0.130 C 
BRANCH  15  17
ATOM      6  O   UNL     1       9.947   9.476   8.341  0.00  0.00    -0.276 OA
ATOM      8  N   UNL     1       8.965   9.065   6.276  0.00  0.00    -0.298 N 
ATOM      9  N   UNL     1       8.504   9.747   3.501  0.00  0.00    -0.327 N 
ATOM     17  C   UNL     1       9.305   8.739   7.590  0.00  0.00    +0.218 C 
ATOM     18  C   UNL     1       8.202   8.187   5.385  0.00  0.00    +0.126 C 
ATOM     19  C   UNL     1       9.389  10.346   5.719  0.00  0.00    +0.126 C 
ATOM     20  C   UNL     1       7.526   8.947   4.244  0.00  0.00    +0.124 C 
ATOM     21  C   UNL     1       9.676  10.251   4.222  0.00  0.00    +0.124 C 
BRANCH   9  22
ATOM      1  F   UNL     1       7.733  10.963  -1.829  0.00  0.00    -0.205 F 
ATOM     22  C   UNL     1       8.310  10.054   2.157  0.00  0.00    +0.030 A 
ATOM     24  C   UNL     1       7.236   9.496   1.463  0.00  0.00    +0.026 A 
ATOM     25  C   UNL     1       9.188  10.919   1.505  0.00  0.00    +0.026 A 
ATOM     27  C   UNL     1       7.041   9.803   0.116  0.00  0.00    +0.040 A 
ATOM     28  C   UNL     1       8.993  11.227   0.158  0.00  0.00    +0.040 A 
ATOM     29  C   UNL     1       7.919  10.669  -0.536  0.00  0.00    +0.124 A 
ENDBRANCH   9  22
ENDBRANCH  15  17
ENDBRANCH  11  15
BRANCH  14  16
ATOM     16  C   UNL     1      11.515   6.876   4.930  0.00  0.00    +0.138 C 
BRANCH  16  10
ATOM      7  O   UNL     1      10.022   6.384   2.528  0.00  0.00    -0.270 OA
ATOM     10  N   UNL     1      11.902   6.030   3.839  0.00  0.00    -0.309 N 
ATOM     23  C   UNL     1      11.112   5.849   2.707  0.00  0.00    +0.244 C 
ATOM     37  H   UNL     1      12.819   5.600   3.898  0.00  0.00    +0.149 HD
BRANCH  23  26
ATOM      2  F   UNL     1      10.851   3.777  -1.685  0.00  0.00    -0.205 F 
ATOM     26  C   UNL     1      11.644   4.920   1.677  0.00  0.00    +0.039 A 
ATOM     30  C   UNL     1      10.984   4.782   0.455  0.00  0.00    +0.051 A 
ATOM     31  C   UNL     1      12.801   4.184   1.932  0.00  0.00    +0.013 A 
ATOM     32  C   UNL     1      11.483   3.909  -0.511  0.00  0.00    +0.124 A 
ATOM     33  C   UNL     1      13.300   3.311   0.965  0.00  0.00    +0.004 A 
ATOM     34  C   UNL     1      12.641   3.173  -0.257  0.00  0.00    +0.038 A 
ENDBRANCH  23  26
ENDBRANCH  16  10
ENDBRANCH  14  16
TORSDOF 8
ENDMDL
MODEL 8
REMARK VINA RESULT:      -7.3     28.477     31.293
REMARK  Name = 40777958
REMARK  8 active torsions:
REMARK  status: ('A' for Active; 'I' for Inactive)
REMARK    1  A    between atoms: O_4  and  C_12
REMARK    2  A    between atoms: O_5  and  C_13
REMARK    3  A    between atoms: N_9  and  C_22
REMARK    4  A    between atoms: N_10  and  C_16
REMARK    5  A    between atoms: C_11  and  C_15
REMARK    6  A    between atoms: C_14  and  C_16
REMARK    7  A    between atoms: C_15  and  C_17
REMARK    8  A    between atoms: C_23  and  C_26
REMARK                            x       y       z     vdW  Elec       q    Type
REMARK                         _______ _______ _______ _____ _____    ______ ____
ROOT
ATOM      3  O   UNL     1      -4.597 -12.034  13.145  0.00  0.00    -0.366 OA
ATOM     11  C   UNL     1      -5.068 -10.853  12.456  0.00  0.00    +0.159 C 
ATOM     12  C   UNL     1      -3.848 -10.236  11.781  0.00  0.00    +0.175 C 
ATOM     13  C   UNL     1      -2.725 -10.673  12.698  0.00  0.00    +0.176 C 
ATOM     14  C   UNL     1      -3.162 -12.082  13.065  0.00  0.00    +0.167 C 
ENDROOT
BRANCH  12   4
ATOM      4  O   UNL     1      -3.701 -10.839  10.496  0.00  0.00    -0.387 OA
ATOM     35  H   UNL     1      -4.559 -10.773  10.044  0.00  0.00    +0.210 HD
ENDBRANCH  12   4
BRANCH  13   5
ATOM      5  O   UNL     1      -1.458 -10.657  12.077  0.00  0.00    -0.387 OA
ATOM     36  H   UNL     1      -0.787 -10.630  12.781  0.00  0.00    +0.210 HD
ENDBRANCH  13   5
BRANCH  11  15
ATOM     15  C   UNL     1      -5.706  -9.934  13.489  0.00  0.00    +0.130 C 
BRANCH  15  17
ATOM      6  O   UNL     1      -7.642  -9.887  12.115  0.00  0.00    -0.276 OA
ATOM      8  N   UNL     1      -7.990  -9.777  14.409  0.00  0.00    -0.298 N 
ATOM      9  N   UNL     1      -9.735  -9.810  16.719  0.00  0.00    -0.327 N 
ATOM     17  C   UNL     1      -7.197  -9.866  13.264  0.00  0.00    +0.218 C 
ATOM     18  C   UNL     1      -7.459  -9.753  15.775  0.00  0.00    +0.126 C 
ATOM     19  C   UNL     1      -9.443  -9.713  14.276  0.00  0.00    +0.126 C 
ATOM     20  C   UNL     1      -8.435  -9.136  16.777  0.00  0.00    +0.124 C 
ATOM     21  C   UNL     1     -10.153 -10.396  15.443  0.00  0.00    +0.124 C 
BRANCH   9  22
ATOM      1  F   UNL     1     -13.040 -10.016  21.136  0.00  0.00    -0.205 F 
ATOM     22  C   UNL     1     -10.569  -9.862  17.833  0.00  0.00    +0.030 A 
ATOM     24  C   UNL     1     -10.063 -10.282  19.063  0.00  0.00    +0.026 A 
ATOM     25  C   UNL     1     -11.909  -9.493  17.719  0.00  0.00    +0.026 A 
ATOM     27  C   UNL     1     -10.897 -10.335  20.179  0.00  0.00    +0.040 A 
ATOM     28  C   UNL     1     -12.744  -9.545  18.835  0.00  0.00    +0.040 A 
ATOM     29  C   UNL     1     -12.238  -9.966  20.065  0.00  0.00    +0.124 A 
ENDBRANCH   9  22
ENDBRANCH  15  17
ENDBRANCH  11  15
BRANCH  14  16
ATOM     16  C   UNL     1      -2.591 -12.563  14.387  0.00  0.00    +0.138 C 
BRANCH  16  10
ATOM      7  O   UNL     1      -3.009 -10.506  16.345  0.00  0.00    -0.270 OA
ATOM     10  N   UNL     1      -3.589 -12.551  15.417  0.00  0.00    -0.309 N 
ATOM     23  C   UNL     1      -3.721 -11.506  16.328  0.00  0.00    +0.244 C 
ATOM     37  H   UNL     1      -4.246 -13.323  15.425  0.00  0.00    +0.149 HD
BRANCH  23  26
ATOM      2  F   UNL     1      -6.133  -9.874  20.221  0.00  0.00    -0.205 F 
ATOM     26  C   UNL     1      -4.788 -11.657  17.350  0.00  0.00    +0.039 A 
ATOM     30  C   UNL     1      -4.962 -10.675  18.325  0.00  0.00    +0.051 A 
ATOM     31  C   UNL     1      -5.614 -12.781  17.335  0.00  0.00    +0.013 A 
ATOM     32  C   UNL     1      -5.964 -10.817  19.286  0.00  0.00    +0.124 A 
ATOM     33  C   UNL     1      -6.615 -12.922  18.296  0.00  0.00    +0.004 A 
ATOM     34  C   UNL     1      -6.791 -11.941  19.271  0.00  0.00    +0.038 A 
ENDBRANCH  23  26
ENDBRANCH  16  10
ENDBRANCH  14  16
TORSDOF 8
ENDMDL
MODEL 9
REMARK VINA RESULT:      -7.3     27.740     31.510
REMARK  Name = 40777958
REMARK  8 active torsions:
REMARK  status: ('A' for Active; 'I' for Inactive)
REMARK    1  A    between atoms: O_4  and  C_12
REMARK    2  A    between atoms: O_5  and  C_13
REMARK    3  A    between atoms: N_9  and  C_22
REMARK    4  A    between atoms: N_10  and  C_16
REMARK    5  A    between atoms: C_11  and  C_15
REMARK    6  A    between atoms: C_14  and  C_16
REMARK    7  A    between atoms: C_15  and  C_17
REMARK    8  A    between atoms: C_23  and  C_26
REMARK                            x       y       z     vdW  Elec       q    Type
REMARK                         _______ _______ _______ _____ _____    ______ ____
ROOT
ATOM      3  O   UNL     1      -3.669 -10.158  16.550  0.00  0.00    -0.366 OA
ATOM     11  C   UNL     1      -4.909 -10.782  16.954  0.00  0.00    +0.159 C 
ATOM     12  C   UNL     1      -4.806 -12.247  16.546  0.00  0.00    +0.175 C 
ATOM     13  C   UNL     1      -3.879 -12.177  15.350  0.00  0.00    +0.176 C 
ATOM     14  C   UNL     1      -2.897 -11.103  15.788  0.00  0.00    +0.167 C 
ENDROOT
BRANCH  12   4
ATOM      4  O   UNL     1      -4.183 -12.961  17.614  0.00  0.00    -0.387 OA
ATOM     35  H   UNL     1      -4.600 -13.838  17.660  0.00  0.00    +0.210 HD
ENDBRANCH  12   4
BRANCH  13   5
ATOM      5  O   UNL     1      -3.235 -13.401  15.070  0.00  0.00    -0.387 OA
ATOM     36  H   UNL     1      -2.765 -13.675  15.876  0.00  0.00    +0.210 HD
ENDBRANCH  13   5
BRANCH  11  15
ATOM     15  C   UNL     1      -6.048 -10.048  16.258  0.00  0.00    +0.130 C 
BRANCH  15  17
ATOM      6  O   UNL     1      -6.971  -9.982  18.445  0.00  0.00    -0.276 OA
ATOM      8  N   UNL     1      -8.331  -9.234  16.717  0.00  0.00    -0.298 N 
ATOM      9  N   UNL     1     -10.740  -7.951  15.754  0.00  0.00    -0.327 N 
ATOM     17  C   UNL     1      -7.150  -9.754  17.247  0.00  0.00    +0.218 C 
ATOM     18  C   UNL     1      -8.542  -8.964  15.292  0.00  0.00    +0.126 C 
ATOM     19  C   UNL     1      -9.443  -8.917  17.609  0.00  0.00    +0.126 C 
ATOM     20  C   UNL     1     -10.022  -8.912  14.913  0.00  0.00    +0.124 C 
ATOM     21  C   UNL     1     -10.249  -7.718  17.114  0.00  0.00    +0.124 C 
BRANCH   9  22
ATOM      1  F   UNL     1     -15.266  -5.377  13.915  0.00  0.00    -0.205 F 
ATOM     22  C   UNL     1     -11.882  -7.301  15.290  0.00  0.00    +0.030 A 
ATOM     24  C   UNL     1     -13.138  -7.877  15.482  0.00  0.00    +0.026 A 
ATOM     25  C   UNL     1     -11.769  -6.076  14.634  0.00  0.00    +0.026 A 
ATOM     27  C   UNL     1     -14.281  -7.227  15.017  0.00  0.00    +0.040 A 
ATOM     28  C   UNL     1     -12.912  -5.426  14.169  0.00  0.00    +0.040 A 
ATOM     29  C   UNL     1     -14.169  -6.002  14.362  0.00  0.00    +0.124 A 
ENDBRANCH   9  22
ENDBRANCH  15  17
ENDBRANCH  11  15
BRANCH  14  16
ATOM     16  C   UNL     1      -2.222 -10.396  14.627  0.00  0.00    +0.138 C 
BRANCH  16  10
ATOM      7  O   UNL     1      -1.237  -9.823  11.992  0.00  0.00    -0.270 OA
ATOM     10  N   UNL     1      -2.869 -10.705  13.386  0.00  0.00    -0.309 N 
ATOM     23  C   UNL     1      -2.316 -10.390  12.147  0.00  0.00    +0.244 C 
ATOM     37  H   UNL     1      -3.739 -11.223  13.441  0.00  0.00    +0.149 HD
BRANCH  23  26
ATOM      2  F   UNL     1      -4.699  -9.157   8.092  0.00  0.00    -0.205 F 
ATOM     26  C   UNL     1      -3.123 -10.755  10.955  0.00  0.00    +0.039 A 
ATOM     30  C   UNL     1      -3.541  -9.764  10.066  0.00  0.00    +0.051 A 
ATOM     31  C   UNL     1      -3.466 -12.088  10.727  0.00  0.00    +0.013 A 
ATOM     32  C   UNL     1      -4.300 -10.108   8.947  0.00  0.00    +0.124 A 
ATOM     33  C   UNL     1      -4.226 -12.430   9.608  0.00  0.00    +0.004 A 
ATOM     34  C   UNL     1      -4.642 -11.440   8.718  0.00  0.00    +0.038 A 
ENDBRANCH  23  26
ENDBRANCH  16  10
ENDBRANCH  14  16
TORSDOF 8
ENDMDL
MODEL 10
REMARK VINA RESULT:      -7.3     28.387     30.343
REMARK  Name = 40777958
REMARK  8 active torsions:
REMARK  status: ('A' for Active; 'I' for Inactive)
REMARK    1  A    between atoms: O_4  and  C_12
REMARK    2  A    between atoms: O_5  and  C_13
REMARK    3  A    between atoms: N_9  and  C_22
REMARK    4  A    between atoms: N_10  and  C_16
REMARK    5  A    between atoms: C_11  and  C_15
REMARK    6  A    between atoms: C_14  and  C_16
REMARK    7  A    between atoms: C_15  and  C_17
REMARK    8  A    between atoms: C_23  and  C_26
REMARK                            x       y       z     vdW  Elec       q    Type
REMARK                         _______ _______ _______ _____ _____    ______ ____
ROOT
ATOM      3  O   UNL     1      -5.823 -12.759  17.658  0.00  0.00    -0.366 OA
ATOM     11  C   UNL     1      -4.634 -11.937  17.615  0.00  0.00    +0.159 C 
ATOM     12  C   UNL     1      -4.443 -11.385  19.023  0.00  0.00    +0.175 C 
ATOM     13  C   UNL     1      -5.865 -11.339  19.541  0.00  0.00    +0.176 C 
ATOM     14  C   UNL     1      -6.446 -12.612  18.946  0.00  0.00    +0.167 C 
ENDROOT
BRANCH  12   4
ATOM      4  O   UNL     1      -3.675 -12.330  19.768  0.00  0.00    -0.387 OA
ATOM     35  H   UNL     1      -3.718 -12.066  20.704  0.00  0.00    +0.210 HD
ENDBRANCH  12   4
BRANCH  13   5
ATOM      5  O   UNL     1      -5.947 -11.327  20.949  0.00  0.00    -0.387 OA
ATOM     36  H   UNL     1      -6.681 -11.912  21.204  0.00  0.00    +0.210 HD
ENDBRANCH  13   5
BRANCH  11  15
ATOM     15  C   UNL     1      -4.858 -10.849  16.573  0.00  0.00    +0.130 C 
BRANCH  15  17
ATOM      6  O   UNL     1      -2.519 -10.719  16.182  0.00  0.00    -0.276 OA
ATOM      8  N   UNL     1      -3.894 -10.648  14.311  0.00  0.00    -0.298 N 
ATOM      9  N   UNL     1      -4.286 -10.681  11.443  0.00  0.00    -0.327 N 
ATOM     17  C   UNL     1      -3.645 -10.735  15.681  0.00  0.00    +0.218 C 
ATOM     18  C   UNL     1      -5.234 -10.667  13.718  0.00  0.00    +0.126 C 
ATOM     19  C   UNL     1      -2.774 -10.541  13.381  0.00  0.00    +0.126 C 
ATOM     20  C   UNL     1      -5.271 -10.045  12.322  0.00  0.00    +0.124 C 
ATOM     21  C   UNL     1      -3.069 -11.228  12.049  0.00  0.00    +0.124 C 
BRANCH   9  22
ATOM      1  F   UNL     1      -5.051 -10.886   5.979  0.00  0.00    -0.205 F 
ATOM     22  C   UNL     1      -4.479 -10.733  10.065  0.00  0.00    +0.030 A 
ATOM     24  C   UNL     1      -4.922  -9.601   9.380  0.00  0.00    +0.026 A 
ATOM     25  C   UNL     1      -4.229 -11.915   9.369  0.00  0.00    +0.026 A 
ATOM     27  C   UNL     1      -5.116  -9.652   8.000  0.00  0.00    +0.040 A 
ATOM     28  C   UNL     1      -4.422 -11.967   7.989  0.00  0.00    +0.040 A 
ATOM     29  C   UNL     1      -4.865 -10.835   7.304  0.00  0.00    +0.124 A 
ENDBRANCH   9  22
ENDBRANCH  15  17
ENDBRANCH  11  15
BRANCH  14  16
ATOM     16  C   UNL     1      -7.955 -12.565  18.783  0.00  0.00    +0.138 C 
BRANCH  16  10
ATOM      7  O   UNL     1      -9.872 -10.503  19.339  0.00  0.00    -0.270 OA
ATOM     10  N   UNL     1      -8.348 -11.503  17.905  0.00  0.00    -0.309 N 
ATOM     23  C   UNL     1      -9.290 -10.540  18.258  0.00  0.00    +0.244 C 
ATOM     37  H   UNL     1      -7.864 -11.443  17.015  0.00  0.00    +0.149 HD
BRANCH  23  26
ATOM      2  F   UNL     1     -11.088  -6.206  16.981  0.00  0.00    -0.205 F 
ATOM     26  C   UNL     1      -9.606  -9.520  17.226  0.00  0.00    +0.039 A 
ATOM     30  C   UNL     1     -10.211  -8.318  17.596  0.00  0.00    +0.051 A 
ATOM     31  C   UNL     1      -9.300  -9.764  15.887  0.00  0.00    +0.013 A 
ATOM     32  C   UNL     1     -10.509  -7.361  16.626  0.00  0.00    +0.124 A 
ATOM     33  C   UNL     1      -9.597  -8.806  14.918  0.00  0.00    +0.004 A 
ATOM     34  C   UNL     1     -10.202  -7.604  15.287  0.00  0.00    +0.038 A 
ENDBRANCH  23  26
ENDBRANCH  16  10
ENDBRANCH  14  16
TORSDOF 8
ENDMDL
