MODEL 1
REMARK VINA RESULT:      -6.6      0.000      0.000
REMARK  Name = 40777258
REMARK  7 active torsions:
REMARK  status: ('A' for Active; 'I' for Inactive)
REMARK    1  A    between atoms: S_2  and  N_7
REMARK    2  A    between atoms: S_2  and  C_22
REMARK    3  A    between atoms: N_7  and  C_17
REMARK    4  A    between atoms: C_11  and  C_18
REMARK    5  A    between atoms: C_12  and  C_17
REMARK    6  A    between atoms: C_20  and  C_23
REMARK    7  A    between atoms: C_21  and  C_24
REMARK                            x       y       z     vdW  Elec       q    Type
REMARK                         _______ _______ _______ _____ _____    ______ ____
ROOT
ATOM      6  N   UNL     1       9.910   7.074   7.436  0.00  0.00    -0.297 NA
ATOM     10  C   UNL     1       9.821   5.148   5.685  0.00  0.00    +0.002 C 
ATOM     11  C   UNL     1      11.151   5.939   5.556  0.00  0.00    +0.055 C 
ATOM     12  C   UNL     1       8.621   7.118   6.698  0.00  0.00    +0.072 C 
ATOM     13  C   UNL     1       8.633   6.119   5.521  0.00  0.00    +0.024 C 
ATOM     14  C   UNL     1       9.764   4.603   7.128  0.00  0.00    +0.019 C 
ATOM     15  C   UNL     1      11.044   7.182   6.485  0.00  0.00    +0.094 C 
ATOM     16  C   UNL     1      10.000   5.759   8.116  0.00  0.00    +0.085 C 
ENDROOT
BRANCH  11  18
ATOM      8  N   UNL     1      12.157   7.538   4.002  0.00  0.00    -0.237 NA
ATOM      9  N   UNL     1      12.531   7.010   1.680  0.00  0.00    -0.232 NA
ATOM     18  C   UNL     1      11.640   6.302   4.161  0.00  0.00    +0.050 A 
ATOM     19  C   UNL     1      11.537   5.376   3.142  0.00  0.00    +0.052 A 
ATOM     20  C   UNL     1      12.003   5.790   1.911  0.00  0.00    +0.076 A 
ATOM     21  C   UNL     1      12.577   7.822   2.754  0.00  0.00    +0.127 A 
ATOM     24  C   UNL     1      13.152   9.181   2.538  0.00  0.00    +0.088 C 
BRANCH  20  23
ATOM      1 BR   UNL     1      14.512   3.833   1.576  0.00  0.00    -0.050 Br
ATOM     23  C   UNL     1      11.951   4.917   0.763  0.00  0.00    +0.014 A 
ATOM     26  C   UNL     1      12.969   4.006   0.478  0.00  0.00    +0.027 A 
ATOM     27  C   UNL     1      10.840   5.005  -0.075  0.00  0.00    +0.011 A 
ATOM     30  C   UNL     1      12.875   3.183  -0.643  0.00  0.00    +0.016 A 
ATOM     31  C   UNL     1      10.746   4.181  -1.197  0.00  0.00    +0.001 A 
ATOM     32  C   UNL     1      11.763   3.270  -1.481  0.00  0.00    +0.001 A 
ENDBRANCH  20  23
ENDBRANCH  11  18
BRANCH  12  17
ATOM     17  C   UNL     1       8.257   8.533   6.243  0.00  0.00    +0.124 C 
BRANCH  17   7
ATOM      7  N   UNL     1       7.415   8.452   5.039  0.00  0.00    -0.188 NA
ATOM     33  H   UNL     1       7.502   7.564   4.529  0.00  0.00    +0.148 HD
BRANCH   7   2
ATOM      2  S   UNL     1       7.230   9.813   4.031  0.00  0.00    +0.065 S 
ATOM      4  O   UNL     1       8.007  10.914   4.567  0.00  0.00    -0.153 OA
ATOM      5  O   UNL     1       5.822   9.992   3.730  0.00  0.00    -0.153 OA
BRANCH   2  22
ATOM      3  S   UNL     1       7.604  10.170   1.145  0.00  0.00    -0.077 S 
ATOM     22  C   UNL     1       8.010   9.267   2.542  0.00  0.00    +0.142 A 
ATOM     25  C   UNL     1       8.894   8.247   2.260  0.00  0.00    +0.036 A 
ATOM     28  C   UNL     1       9.242   8.209   0.879  0.00  0.00    +0.010 A 
ATOM     29  C   UNL     1       8.611   9.199   0.159  0.00  0.00    +0.047 A 
ENDBRANCH   2  22
ENDBRANCH   7   2
ENDBRANCH  17   7
ENDBRANCH  12  17
TORSDOF 6
ENDMDL
MODEL 2
REMARK VINA RESULT:      -6.5     15.072     18.581
REMARK  Name = 40777258
REMARK  7 active torsions:
REMARK  status: ('A' for Active; 'I' for Inactive)
REMARK    1  A    between atoms: S_2  and  N_7
REMARK    2  A    between atoms: S_2  and  C_22
REMARK    3  A    between atoms: N_7  and  C_17
REMARK    4  A    between atoms: C_11  and  C_18
REMARK    5  A    between atoms: C_12  and  C_17
REMARK    6  A    between atoms: C_20  and  C_23
REMARK    7  A    between atoms: C_21  and  C_24
REMARK                            x       y       z     vdW  Elec       q    Type
REMARK                         _______ _______ _______ _____ _____    ______ ____
ROOT
ATOM      6  N   UNL     1      12.067  11.621  24.426  0.00  0.00    -0.297 NA
ATOM     10  C   UNL     1      11.356  11.925  21.939  0.00  0.00    +0.002 C 
ATOM     11  C   UNL     1      10.994  10.499  22.438  0.00  0.00    +0.055 C 
ATOM     12  C   UNL     1      13.201  12.169  23.637  0.00  0.00    +0.072 C 
ATOM     13  C   UNL     1      12.869  12.162  22.129  0.00  0.00    +0.024 C 
ATOM     14  C   UNL     1      10.622  12.920  22.862  0.00  0.00    +0.019 C 
ATOM     15  C   UNL     1      11.625  10.327  23.850  0.00  0.00    +0.094 C 
ATOM     16  C   UNL     1      10.941  12.580  24.329  0.00  0.00    +0.085 C 
ENDROOT
BRANCH  11  18
ATOM      8  N   UNL     1      11.001   8.092  22.002  0.00  0.00    -0.237 NA
ATOM      9  N   UNL     1      11.813   7.164  19.931  0.00  0.00    -0.232 NA
ATOM     18  C   UNL     1      11.294   9.319  21.524  0.00  0.00    +0.050 A 
ATOM     19  C   UNL     1      11.840   9.546  20.277  0.00  0.00    +0.052 A 
ATOM     20  C   UNL     1      12.081   8.420  19.517  0.00  0.00    +0.076 A 
ATOM     21  C   UNL     1      11.282   7.074  21.166  0.00  0.00    +0.127 A 
ATOM     24  C   UNL     1      10.974   5.701  21.661  0.00  0.00    +0.088 C 
BRANCH  20  23
ATOM      1 BR   UNL     1      14.980   7.111  19.186  0.00  0.00    -0.050 Br
ATOM     23  C   UNL     1      12.652   8.521  18.195  0.00  0.00    +0.014 A 
ATOM     26  C   UNL     1      13.909   7.999  17.890  0.00  0.00    +0.027 A 
ATOM     27  C   UNL     1      11.906   9.164  17.208  0.00  0.00    +0.011 A 
ATOM     30  C   UNL     1      14.420   8.120  16.599  0.00  0.00    +0.016 A 
ATOM     31  C   UNL     1      12.417   9.285  15.915  0.00  0.00    +0.001 A 
ATOM     32  C   UNL     1      13.673   8.763  15.610  0.00  0.00    +0.001 A 
ENDBRANCH  20  23
ENDBRANCH  11  18
BRANCH  12  17
ATOM     17  C   UNL     1      14.520  11.451  23.935  0.00  0.00    +0.124 C 
BRANCH  17   7
ATOM      7  N   UNL     1      14.983  10.766  22.717  0.00  0.00    -0.188 NA
ATOM     33  H   UNL     1      14.740   9.767  22.685  0.00  0.00    +0.148 HD
BRANCH   7   2
ATOM      2  S   UNL     1      16.512  11.127  22.060  0.00  0.00    +0.065 S 
ATOM      4  O   UNL     1      17.339   9.936  22.089  0.00  0.00    -0.153 OA
ATOM      5  O   UNL     1      16.996  12.366  22.641  0.00  0.00    -0.153 OA
BRANCH   2  22
ATOM      3  S   UNL     1      17.004  12.747  19.667  0.00  0.00    -0.077 S 
ATOM     22  C   UNL     1      16.108  11.472  20.374  0.00  0.00    +0.142 A 
ATOM     25  C   UNL     1      15.206  10.920  19.490  0.00  0.00    +0.036 A 
ATOM     28  C   UNL     1      15.253  11.554  18.215  0.00  0.00    +0.010 A 
ATOM     29  C   UNL     1      16.187  12.565  18.173  0.00  0.00    +0.047 A 
ENDBRANCH   2  22
ENDBRANCH   7   2
ENDBRANCH  17   7
ENDBRANCH  12  17
TORSDOF 6
ENDMDL
MODEL 3
REMARK VINA RESULT:      -6.2     17.307     21.018
REMARK  Name = 40777258
REMARK  7 active torsions:
REMARK  status: ('A' for Active; 'I' for Inactive)
REMARK    1  A    between atoms: S_2  and  N_7
REMARK    2  A    between atoms: S_2  and  C_22
REMARK    3  A    between atoms: N_7  and  C_17
REMARK    4  A    between atoms: C_11  and  C_18
REMARK    5  A    between atoms: C_12  and  C_17
REMARK    6  A    between atoms: C_20  and  C_23
REMARK    7  A    between atoms: C_21  and  C_24
REMARK                            x       y       z     vdW  Elec       q    Type
REMARK                         _______ _______ _______ _____ _____    ______ ____
ROOT
ATOM      6  N   UNL     1      11.958  11.508  24.867  0.00  0.00    -0.297 NA
ATOM     10  C   UNL     1      11.310  12.036  22.400  0.00  0.00    +0.002 C 
ATOM     11  C   UNL     1      10.893  10.587  22.774  0.00  0.00    +0.055 C 
ATOM     12  C   UNL     1      13.125  12.081  24.147  0.00  0.00    +0.072 C 
ATOM     13  C   UNL     1      12.825  12.208  22.638  0.00  0.00    +0.024 C 
ATOM     14  C   UNL     1      10.587  12.976  23.388  0.00  0.00    +0.019 C 
ATOM     15  C   UNL     1      11.489  10.280  24.178  0.00  0.00    +0.094 C 
ATOM     16  C   UNL     1      10.865  12.508  24.828  0.00  0.00    +0.085 C 
ENDROOT
BRANCH  11  18
ATOM      8  N   UNL     1      10.966   8.212  22.194  0.00  0.00    -0.237 NA
ATOM      9  N   UNL     1      11.668   7.442  20.021  0.00  0.00    -0.232 NA
ATOM     18  C   UNL     1      11.176   9.476  21.772  0.00  0.00    +0.050 A 
ATOM     19  C   UNL     1      11.624   9.799  20.507  0.00  0.00    +0.052 A 
ATOM     20  C   UNL     1      11.856   8.731  19.666  0.00  0.00    +0.076 A 
ATOM     21  C   UNL     1      11.229   7.258  21.280  0.00  0.00    +0.127 A 
ATOM     24  C   UNL     1      11.011   5.846  21.711  0.00  0.00    +0.088 C 
BRANCH  20  23
ATOM      1 BR   UNL     1      15.018   9.113  19.377  0.00  0.00    -0.050 Br
ATOM     23  C   UNL     1      12.329   8.933  18.317  0.00  0.00    +0.014 A 
ATOM     26  C   UNL     1      13.681   9.115  18.026  0.00  0.00    +0.027 A 
ATOM     27  C   UNL     1      11.387   8.943  17.289  0.00  0.00    +0.011 A 
ATOM     30  C   UNL     1      14.091   9.306  16.708  0.00  0.00    +0.016 A 
ATOM     31  C   UNL     1      11.797   9.133  15.969  0.00  0.00    +0.001 A 
ATOM     32  C   UNL     1      13.149   9.315  15.678  0.00  0.00    +0.001 A 
ENDBRANCH  20  23
ENDBRANCH  11  18
BRANCH  12  17
ATOM     17  C   UNL     1      14.414  11.299  24.409  0.00  0.00    +0.124 C 
BRANCH  17   7
ATOM      7  N   UNL     1      14.536  11.037  25.852  0.00  0.00    -0.188 NA
ATOM     33  H   UNL     1      13.777  10.459  26.235  0.00  0.00    +0.148 HD
BRANCH   7   2
ATOM      2  S   UNL     1      15.065  12.268  26.904  0.00  0.00    +0.065 S 
ATOM      4  O   UNL     1      13.915  12.889  27.531  0.00  0.00    -0.153 OA
ATOM      5  O   UNL     1      16.052  13.083  26.221  0.00  0.00    -0.153 OA
BRANCH   2  22
ATOM      3  S   UNL     1      17.619  11.232  27.903  0.00  0.00    -0.077 S 
ATOM     22  C   UNL     1      15.927  11.341  28.138  0.00  0.00    +0.142 A 
ATOM     25  C   UNL     1      15.517  10.674  29.273  0.00  0.00    +0.036 A 
ATOM     28  C   UNL     1      16.609  10.066  29.958  0.00  0.00    +0.010 A 
ATOM     29  C   UNL     1      17.810  10.291  29.321  0.00  0.00    +0.047 A 
ENDBRANCH   2  22
ENDBRANCH   7   2
ENDBRANCH  17   7
ENDBRANCH  12  17
TORSDOF 6
ENDMDL
MODEL 4
REMARK VINA RESULT:      -6.1     23.373     25.670
REMARK  Name = 40777258
REMARK  7 active torsions:
REMARK  status: ('A' for Active; 'I' for Inactive)
REMARK    1  A    between atoms: S_2  and  N_7
REMARK    2  A    between atoms: S_2  and  C_22
REMARK    3  A    between atoms: N_7  and  C_17
REMARK    4  A    between atoms: C_11  and  C_18
REMARK    5  A    between atoms: C_12  and  C_17
REMARK    6  A    between atoms: C_20  and  C_23
REMARK    7  A    between atoms: C_21  and  C_24
REMARK                            x       y       z     vdW  Elec       q    Type
REMARK                         _______ _______ _______ _____ _____    ______ ____
ROOT
ATOM      6  N   UNL     1      -5.610 -10.974  10.432  0.00  0.00    -0.297 NA
ATOM     10  C   UNL     1      -3.221 -11.529  11.310  0.00  0.00    +0.002 C 
ATOM     11  C   UNL     1      -4.280 -11.773  12.420  0.00  0.00    +0.055 C 
ATOM     12  C   UNL     1      -4.685  -9.850  10.133  0.00  0.00    +0.072 C 
ATOM     13  C   UNL     1      -3.322 -10.067  10.824  0.00  0.00    +0.024 C 
ATOM     14  C   UNL     1      -3.609 -12.430  10.119  0.00  0.00    +0.019 C 
ATOM     15  C   UNL     1      -5.640 -11.233  11.893  0.00  0.00    +0.094 C 
ATOM     16  C   UNL     1      -5.085 -12.185   9.757  0.00  0.00    +0.085 C 
ENDROOT
BRANCH  11  18
ATOM      8  N   UNL     1      -2.677 -11.033  14.113  0.00  0.00    -0.237 NA
ATOM      9  N   UNL     1      -3.358 -10.404  16.338  0.00  0.00    -0.232 NA
ATOM     18  C   UNL     1      -3.972 -11.283  13.828  0.00  0.00    +0.050 A 
ATOM     19  C   UNL     1      -5.002 -11.120  14.732  0.00  0.00    +0.052 A 
ATOM     20  C   UNL     1      -4.632 -10.673  15.984  0.00  0.00    +0.076 A 
ATOM     21  C   UNL     1      -2.445 -10.603  15.369  0.00  0.00    +0.127 A 
ATOM     24  C   UNL     1      -1.024 -10.319  15.722  0.00  0.00    +0.088 C 
BRANCH  20  23
ATOM      1 BR   UNL     1      -3.958 -12.051  18.792  0.00  0.00    -0.050 Br
ATOM     23  C   UNL     1      -5.613 -10.463  17.021  0.00  0.00    +0.014 A 
ATOM     26  C   UNL     1      -5.464 -10.999  18.301  0.00  0.00    +0.027 A 
ATOM     27  C   UNL     1      -6.738  -9.698  16.712  0.00  0.00    +0.011 A 
ATOM     30  C   UNL     1      -6.439 -10.769  19.271  0.00  0.00    +0.016 A 
ATOM     31  C   UNL     1      -7.712  -9.467  17.683  0.00  0.00    +0.001 A 
ATOM     32  C   UNL     1      -7.563 -10.002  18.963  0.00  0.00    +0.001 A 
ENDBRANCH  20  23
ENDBRANCH  11  18
BRANCH  12  17
ATOM     17  C   UNL     1      -5.291  -8.488  10.481  0.00  0.00    +0.124 C 
BRANCH  17   7
ATOM      7  N   UNL     1      -5.703  -7.810   9.241  0.00  0.00    -0.188 NA
ATOM     33  H   UNL     1      -5.309  -6.867   9.133  0.00  0.00    +0.148 HD
BRANCH   7   2
ATOM      2  S   UNL     1      -7.302  -7.961   8.674  0.00  0.00    +0.065 S 
ATOM      4  O   UNL     1      -7.808  -6.650   8.314  0.00  0.00    -0.153 OA
ATOM      5  O   UNL     1      -8.050  -8.807   9.584  0.00  0.00    -0.153 OA
BRANCH   2  22
ATOM      3  S   UNL     1      -7.860  -8.239   5.809  0.00  0.00    -0.077 S 
ATOM     22  C   UNL     1      -7.070  -8.884   7.185  0.00  0.00    +0.142 A 
ATOM     25  C   UNL     1      -6.374 -10.037   6.889  0.00  0.00    +0.036 A 
ATOM     28  C   UNL     1      -6.492 -10.393   5.514  0.00  0.00    +0.010 A 
ATOM     29  C   UNL     1      -7.272  -9.501   4.813  0.00  0.00    +0.047 A 
ENDBRANCH   2  22
ENDBRANCH   7   2
ENDBRANCH  17   7
ENDBRANCH  12  17
TORSDOF 6
ENDMDL
MODEL 5
REMARK VINA RESULT:      -6.1     23.534     26.195
REMARK  Name = 40777258
REMARK  7 active torsions:
REMARK  status: ('A' for Active; 'I' for Inactive)
REMARK    1  A    between atoms: S_2  and  N_7
REMARK    2  A    between atoms: S_2  and  C_22
REMARK    3  A    between atoms: N_7  and  C_17
REMARK    4  A    between atoms: C_11  and  C_18
REMARK    5  A    between atoms: C_12  and  C_17
REMARK    6  A    between atoms: C_20  and  C_23
REMARK    7  A    between atoms: C_21  and  C_24
REMARK                            x       y       z     vdW  Elec       q    Type
REMARK                         _______ _______ _______ _____ _____    ______ ____
ROOT
ATOM      6  N   UNL     1      -5.390 -10.957   9.512  0.00  0.00    -0.297 NA
ATOM     10  C   UNL     1      -3.800  -9.324  10.774  0.00  0.00    +0.002 C 
ATOM     11  C   UNL     1      -3.231 -10.769  10.804  0.00  0.00    +0.055 C 
ATOM     12  C   UNL     1      -6.165 -10.144  10.486  0.00  0.00    +0.072 C 
ATOM     13  C   UNL     1      -5.217  -9.321  11.385  0.00  0.00    +0.024 C 
ATOM     14  C   UNL     1      -3.948  -8.934   9.288  0.00  0.00    +0.019 C 
ATOM     15  C   UNL     1      -4.321 -11.710  10.215  0.00  0.00    +0.094 C 
ATOM     16  C   UNL     1      -4.747 -10.026   8.554  0.00  0.00    +0.085 C 
ENDROOT
BRANCH  11  18
ATOM      8  N   UNL     1      -2.214 -10.369  12.992  0.00  0.00    -0.237 NA
ATOM      9  N   UNL     1      -1.639 -12.169  14.489  0.00  0.00    -0.232 NA
ATOM     18  C   UNL     1      -2.666 -11.292  12.117  0.00  0.00    +0.050 A 
ATOM     19  C   UNL     1      -2.639 -12.651  12.353  0.00  0.00    +0.052 A 
ATOM     20  C   UNL     1      -2.109 -13.036  13.567  0.00  0.00    +0.076 A 
ATOM     21  C   UNL     1      -1.721 -10.871  14.141  0.00  0.00    +0.127 A 
ATOM     24  C   UNL     1      -1.209  -9.881  15.133  0.00  0.00    +0.088 C 
BRANCH  20  23
ATOM      1 BR   UNL     1      -4.556 -14.138  15.307  0.00  0.00    -0.050 Br
ATOM     23  C   UNL     1      -2.021 -14.429  13.935  0.00  0.00    +0.014 A 
ATOM     26  C   UNL     1      -3.010 -15.058  14.693  0.00  0.00    +0.027 A 
ATOM     27  C   UNL     1      -0.905 -15.148  13.509  0.00  0.00    +0.011 A 
ATOM     30  C   UNL     1      -2.882 -16.406  15.024  0.00  0.00    +0.016 A 
ATOM     31  C   UNL     1      -0.778 -16.498  13.840  0.00  0.00    +0.001 A 
ATOM     32  C   UNL     1      -1.766 -17.127  14.597  0.00  0.00    +0.001 A 
ENDBRANCH  20  23
ENDBRANCH  11  18
BRANCH  12  17
ATOM     17  C   UNL     1      -7.139 -10.991  11.307  0.00  0.00    +0.124 C 
BRANCH  17   7
ATOM      7  N   UNL     1      -6.749 -10.939  12.726  0.00  0.00    -0.188 NA
ATOM     33  H   UNL     1      -6.017 -11.613  12.980  0.00  0.00    +0.148 HD
BRANCH   7   2
ATOM      2  S   UNL     1      -7.932 -10.713  13.931  0.00  0.00    +0.065 S 
ATOM      4  O   UNL     1      -8.740 -11.912  14.039  0.00  0.00    -0.153 OA
ATOM      5  O   UNL     1      -8.564  -9.421  13.739  0.00  0.00    -0.153 OA
BRANCH   2  22
ATOM      3  S   UNL     1      -5.278 -10.293  15.104  0.00  0.00    -0.077 S 
ATOM     22  C   UNL     1      -6.940 -10.590  15.389  0.00  0.00    +0.142 A 
ATOM     25  C   UNL     1      -7.226 -10.684  16.734  0.00  0.00    +0.036 A 
ATOM     28  C   UNL     1      -6.064 -10.509  17.540  0.00  0.00    +0.010 A 
ATOM     29  C   UNL     1      -4.936 -10.289  16.782  0.00  0.00    +0.047 A 
ENDBRANCH   2  22
ENDBRANCH   7   2
ENDBRANCH  17   7
ENDBRANCH  12  17
TORSDOF 6
ENDMDL
MODEL 6
REMARK VINA RESULT:      -6.1     15.110     18.476
REMARK  Name = 40777258
REMARK  7 active torsions:
REMARK  status: ('A' for Active; 'I' for Inactive)
REMARK    1  A    between atoms: S_2  and  N_7
REMARK    2  A    between atoms: S_2  and  C_22
REMARK    3  A    between atoms: N_7  and  C_17
REMARK    4  A    between atoms: C_11  and  C_18
REMARK    5  A    between atoms: C_12  and  C_17
REMARK    6  A    between atoms: C_20  and  C_23
REMARK    7  A    between atoms: C_21  and  C_24
REMARK                            x       y       z     vdW  Elec       q    Type
REMARK                         _______ _______ _______ _____ _____    ______ ____
ROOT
ATOM      6  N   UNL     1      13.299  12.942  23.254  0.00  0.00    -0.297 NA
ATOM     10  C   UNL     1      11.287  11.953  21.928  0.00  0.00    +0.002 C 
ATOM     11  C   UNL     1      11.890  10.883  22.880  0.00  0.00    +0.055 C 
ATOM     12  C   UNL     1      13.459  13.224  21.804  0.00  0.00    +0.072 C 
ATOM     13  C   UNL     1      12.390  12.472  20.982  0.00  0.00    +0.024 C 
ATOM     14  C   UNL     1      10.852  13.142  22.812  0.00  0.00    +0.019 C 
ATOM     15  C   UNL     1      13.196  11.478  23.479  0.00  0.00    +0.094 C 
ATOM     16  C   UNL     1      12.033  13.570  23.702  0.00  0.00    +0.085 C 
ENDROOT
BRANCH  11  18
ATOM      8  N   UNL     1      11.037   8.636  22.428  0.00  0.00    -0.237 NA
ATOM      9  N   UNL     1      12.393   6.932  21.395  0.00  0.00    -0.232 NA
ATOM     18  C   UNL     1      12.091   9.474  22.342  0.00  0.00    +0.050 A 
ATOM     19  C   UNL     1      13.311   9.119  21.803  0.00  0.00    +0.052 A 
ATOM     20  C   UNL     1      13.405   7.823  21.340  0.00  0.00    +0.076 A 
ATOM     21  C   UNL     1      11.255   7.398  21.943  0.00  0.00    +0.127 A 
ATOM     24  C   UNL     1      10.113   6.442  22.023  0.00  0.00    +0.088 C 
BRANCH  20  23
ATOM      1 BR   UNL     1      13.310   7.368  18.176  0.00  0.00    -0.050 Br
ATOM     23  C   UNL     1      14.628   7.327  20.755  0.00  0.00    +0.014 A 
ATOM     26  C   UNL     1      14.746   7.077  19.387  0.00  0.00    +0.027 A 
ATOM     27  C   UNL     1      15.712   7.097  21.602  0.00  0.00    +0.011 A 
ATOM     30  C   UNL     1      15.947   6.599  18.867  0.00  0.00    +0.016 A 
ATOM     31  C   UNL     1      16.914   6.618  21.081  0.00  0.00    +0.001 A 
ATOM     32  C   UNL     1      17.033   6.369  19.714  0.00  0.00    +0.001 A 
ENDBRANCH  20  23
ENDBRANCH  11  18
BRANCH  12  17
ATOM     17  C   UNL     1      14.875  12.928  21.305  0.00  0.00    +0.124 C 
BRANCH  17   7
ATOM      7  N   UNL     1      14.863  12.850  19.835  0.00  0.00    -0.188 NA
ATOM     33  H   UNL     1      13.924  12.909  19.423  0.00  0.00    +0.148 HD
BRANCH   7   2
ATOM      2  S   UNL     1      15.905  11.771  19.027  0.00  0.00    +0.065 S 
ATOM      4  O   UNL     1      15.850  10.475  19.677  0.00  0.00    -0.153 OA
ATOM      5  O   UNL     1      17.182  12.422  18.804  0.00  0.00    -0.153 OA
BRANCH   2  22
ATOM      3  S   UNL     1      15.260  13.005  16.447  0.00  0.00    -0.077 S 
ATOM     22  C   UNL     1      15.120  11.624  17.450  0.00  0.00    +0.142 A 
ATOM     25  C   UNL     1      14.404  10.615  16.844  0.00  0.00    +0.036 A 
ATOM     28  C   UNL     1      13.965  10.981  15.538  0.00  0.00    +0.010 A 
ATOM     29  C   UNL     1      14.362  12.255  15.197  0.00  0.00    +0.047 A 
ENDBRANCH   2  22
ENDBRANCH   7   2
ENDBRANCH  17   7
ENDBRANCH  12  17
TORSDOF 6
ENDMDL
MODEL 7
REMARK VINA RESULT:      -6.0     17.070     19.098
REMARK  Name = 40777258
REMARK  7 active torsions:
REMARK  status: ('A' for Active; 'I' for Inactive)
REMARK    1  A    between atoms: S_2  and  N_7
REMARK    2  A    between atoms: S_2  and  C_22
REMARK    3  A    between atoms: N_7  and  C_17
REMARK    4  A    between atoms: C_11  and  C_18
REMARK    5  A    between atoms: C_12  and  C_17
REMARK    6  A    between atoms: C_20  and  C_23
REMARK    7  A    between atoms: C_21  and  C_24
REMARK                            x       y       z     vdW  Elec       q    Type
REMARK                         _______ _______ _______ _____ _____    ______ ____
ROOT
ATOM      6  N   UNL     1      13.358  13.061  23.149  0.00  0.00    -0.297 NA
ATOM     10  C   UNL     1      11.189  12.003  22.169  0.00  0.00    +0.002 C 
ATOM     11  C   UNL     1      11.977  10.955  23.001  0.00  0.00    +0.055 C 
ATOM     12  C   UNL     1      13.265  13.348  21.693  0.00  0.00    +0.072 C 
ATOM     13  C   UNL     1      12.101  12.560  21.056  0.00  0.00    +0.024 C 
ATOM     14  C   UNL     1      10.866  13.176  23.119  0.00  0.00    +0.019 C 
ATOM     15  C   UNL     1      13.344  11.595  23.379  0.00  0.00    +0.094 C 
ATOM     16  C   UNL     1      12.163  13.645  23.804  0.00  0.00    +0.085 C 
ENDROOT
BRANCH  11  18
ATOM      8  N   UNL     1      11.053   8.750  22.487  0.00  0.00    -0.237 NA
ATOM      9  N   UNL     1      12.358   7.027  21.421  0.00  0.00    -0.232 NA
ATOM     18  C   UNL     1      12.135   9.553  22.429  0.00  0.00    +0.050 A 
ATOM     19  C   UNL     1      13.346   9.171  21.889  0.00  0.00    +0.052 A 
ATOM     20  C   UNL     1      13.400   7.884  21.395  0.00  0.00    +0.076 A 
ATOM     21  C   UNL     1      11.232   7.518  21.972  0.00  0.00    +0.127 A 
ATOM     24  C   UNL     1      10.058   6.599  22.021  0.00  0.00    +0.088 C 
BRANCH  20  23
ATOM      1 BR   UNL     1      13.397   7.728  18.200  0.00  0.00    -0.050 Br
ATOM     23  C   UNL     1      14.609   7.361  20.806  0.00  0.00    +0.014 A 
ATOM     26  C   UNL     1      14.764   7.231  19.425  0.00  0.00    +0.027 A 
ATOM     27  C   UNL     1      15.643   6.982  21.662  0.00  0.00    +0.011 A 
ATOM     30  C   UNL     1      15.951   6.721  18.901  0.00  0.00    +0.016 A 
ATOM     31  C   UNL     1      16.831   6.472  21.138  0.00  0.00    +0.001 A 
ATOM     32  C   UNL     1      16.985   6.341  19.758  0.00  0.00    +0.001 A 
ENDBRANCH  20  23
ENDBRANCH  11  18
BRANCH  12  17
ATOM     17  C   UNL     1      14.588  13.102  20.965  0.00  0.00    +0.124 C 
BRANCH  17   7
ATOM      7  N   UNL     1      14.365  13.191  19.513  0.00  0.00    -0.188 NA
ATOM     33  H   UNL     1      13.373  13.228  19.246  0.00  0.00    +0.148 HD
BRANCH   7   2
ATOM      2  S   UNL     1      15.337  12.292  18.440  0.00  0.00    +0.065 S 
ATOM      4  O   UNL     1      16.047  13.202  17.561  0.00  0.00    -0.153 OA
ATOM      5  O   UNL     1      14.552  11.206  17.886  0.00  0.00    -0.153 OA
BRANCH   2  22
ATOM      3  S   UNL     1      18.009  12.397  19.643  0.00  0.00    -0.077 S 
ATOM     22  C   UNL     1      16.514  11.568  19.543  0.00  0.00    +0.142 A 
ATOM     25  C   UNL     1      16.484  10.455  20.355  0.00  0.00    +0.036 A 
ATOM     28  C   UNL     1      17.704  10.282  21.069  0.00  0.00    +0.010 A 
ATOM     29  C   UNL     1      18.620  11.268  20.776  0.00  0.00    +0.047 A 
ENDBRANCH   2  22
ENDBRANCH   7   2
ENDBRANCH  17   7
ENDBRANCH  12  17
TORSDOF 6
ENDMDL
MODEL 8
REMARK VINA RESULT:      -6.0     23.644     26.288
REMARK  Name = 40777258
REMARK  7 active torsions:
REMARK  status: ('A' for Active; 'I' for Inactive)
REMARK    1  A    between atoms: S_2  and  N_7
REMARK    2  A    between atoms: S_2  and  C_22
REMARK    3  A    between atoms: N_7  and  C_17
REMARK    4  A    between atoms: C_11  and  C_18
REMARK    5  A    between atoms: C_12  and  C_17
REMARK    6  A    between atoms: C_20  and  C_23
REMARK    7  A    between atoms: C_21  and  C_24
REMARK                            x       y       z     vdW  Elec       q    Type
REMARK                         _______ _______ _______ _____ _____    ______ ____
ROOT
ATOM      6  N   UNL     1      -5.172 -13.915  11.539  0.00  0.00    -0.297 NA
ATOM     10  C   UNL     1      -2.691 -13.530  12.234  0.00  0.00    +0.002 C 
ATOM     11  C   UNL     1      -3.603 -13.607  13.489  0.00  0.00    +0.055 C 
ATOM     12  C   UNL     1      -4.596 -12.786  10.762  0.00  0.00    +0.072 C 
ATOM     13  C   UNL     1      -3.200 -12.409  11.303  0.00  0.00    +0.024 C 
ATOM     14  C   UNL     1      -2.866 -14.863  11.475  0.00  0.00    +0.019 C 
ATOM     15  C   UNL     1      -5.077 -13.633  12.993  0.00  0.00    +0.094 C 
ATOM     16  C   UNL     1      -4.365 -15.124  11.247  0.00  0.00    +0.085 C 
ENDROOT
BRANCH  11  18
ATOM      8  N   UNL     1      -2.227 -11.897  14.568  0.00  0.00    -0.237 NA
ATOM      9  N   UNL     1      -2.939 -10.746  16.563  0.00  0.00    -0.232 NA
ATOM     18  C   UNL     1      -3.386 -12.587  14.599  0.00  0.00    +0.050 A 
ATOM     19  C   UNL     1      -4.356 -12.415  15.565  0.00  0.00    +0.052 A 
ATOM     20  C   UNL     1      -4.076 -11.472  16.531  0.00  0.00    +0.076 A 
ATOM     21  C   UNL     1      -2.071 -11.005  15.567  0.00  0.00    +0.127 A 
ATOM     24  C   UNL     1      -0.800 -10.224  15.569  0.00  0.00    +0.088 C 
BRANCH  20  23
ATOM      1 BR   UNL     1      -6.670  -9.807  15.676  0.00  0.00    -0.050 Br
ATOM     23  C   UNL     1      -5.008 -11.198  17.599  0.00  0.00    +0.014 A 
ATOM     26  C   UNL     1      -6.188 -10.483  17.386  0.00  0.00    +0.027 A 
ATOM     27  C   UNL     1      -4.701 -11.672  18.873  0.00  0.00    +0.011 A 
ATOM     30  C   UNL     1      -7.059 -10.243  18.448  0.00  0.00    +0.016 A 
ATOM     31  C   UNL     1      -5.573 -11.432  19.936  0.00  0.00    +0.001 A 
ATOM     32  C   UNL     1      -6.751 -10.718  19.724  0.00  0.00    +0.001 A 
ENDBRANCH  20  23
ENDBRANCH  11  18
BRANCH  12  17
ATOM     17  C   UNL     1      -5.533 -11.577  10.710  0.00  0.00    +0.124 C 
BRANCH  17   7
ATOM      7  N   UNL     1      -4.835 -10.399  11.251  0.00  0.00    -0.188 NA
ATOM     33  H   UNL     1      -5.170 -10.107  12.177  0.00  0.00    +0.148 HD
BRANCH   7   2
ATOM      2  S   UNL     1      -4.419  -9.105  10.224  0.00  0.00    +0.065 S 
ATOM      4  O   UNL     1      -2.990  -9.132   9.974  0.00  0.00    -0.153 OA
ATOM      5  O   UNL     1      -5.051  -7.893  10.710  0.00  0.00    -0.153 OA
BRANCH   2  22
ATOM      3  S   UNL     1      -6.817  -8.901   8.551  0.00  0.00    -0.077 S 
ATOM     22  C   UNL     1      -5.244  -9.553   8.727  0.00  0.00    +0.142 A 
ATOM     25  C   UNL     1      -4.883 -10.332   7.648  0.00  0.00    +0.036 A 
ATOM     28  C   UNL     1      -5.912 -10.393   6.665  0.00  0.00    +0.010 A 
ATOM     29  C   UNL     1      -7.020  -9.659   7.030  0.00  0.00    +0.047 A 
ENDBRANCH   2  22
ENDBRANCH   7   2
ENDBRANCH  17   7
ENDBRANCH  12  17
TORSDOF 6
ENDMDL
MODEL 9
REMARK VINA RESULT:      -6.0     24.411     26.926
REMARK  Name = 40777258
REMARK  7 active torsions:
REMARK  status: ('A' for Active; 'I' for Inactive)
REMARK    1  A    between atoms: S_2  and  N_7
REMARK    2  A    between atoms: S_2  and  C_22
REMARK    3  A    between atoms: N_7  and  C_17
REMARK    4  A    between atoms: C_11  and  C_18
REMARK    5  A    between atoms: C_12  and  C_17
REMARK    6  A    between atoms: C_20  and  C_23
REMARK    7  A    between atoms: C_21  and  C_24
REMARK                            x       y       z     vdW  Elec       q    Type
REMARK                         _______ _______ _______ _____ _____    ______ ____
ROOT
ATOM      6  N   UNL     1      -4.782 -10.459  17.484  0.00  0.00    -0.297 NA
ATOM     10  C   UNL     1      -5.014 -12.919  16.660  0.00  0.00    +0.002 C 
ATOM     11  C   UNL     1      -3.766 -12.248  16.024  0.00  0.00    +0.055 C 
ATOM     12  C   UNL     1      -6.166 -10.705  17.001  0.00  0.00    +0.072 C 
ATOM     13  C   UNL     1      -6.268 -12.086  16.320  0.00  0.00    +0.024 C 
ATOM     14  C   UNL     1      -4.826 -12.851  18.190  0.00  0.00    +0.019 C 
ATOM     15  C   UNL     1      -3.808 -10.739  16.399  0.00  0.00    +0.094 C 
ATOM     16  C   UNL     1      -4.516 -11.400  18.599  0.00  0.00    +0.085 C 
ENDROOT
BRANCH  11  18
ATOM      8  N   UNL     1      -2.905 -13.621  14.193  0.00  0.00    -0.237 NA
ATOM      9  N   UNL     1      -3.022 -12.913  11.892  0.00  0.00    -0.232 NA
ATOM     18  C   UNL     1      -3.509 -12.466  14.539  0.00  0.00    +0.050 A 
ATOM     19  C   UNL     1      -3.896 -11.500  13.633  0.00  0.00    +0.052 A 
ATOM     20  C   UNL     1      -3.624 -11.780  12.310  0.00  0.00    +0.076 A 
ATOM     21  C   UNL     1      -2.694 -13.777  12.871  0.00  0.00    +0.127 A 
ATOM     24  C   UNL     1      -2.024 -15.041  12.449  0.00  0.00    +0.088 C 
BRANCH  20  23
ATOM      1 BR   UNL     1      -1.348  -9.664  11.551  0.00  0.00    -0.050 Br
ATOM     23  C   UNL     1      -3.975 -10.851  11.263  0.00  0.00    +0.014 A 
ATOM     26  C   UNL     1      -3.091  -9.867  10.819  0.00  0.00    +0.027 A 
ATOM     27  C   UNL     1      -5.243 -10.957  10.693  0.00  0.00    +0.011 A 
ATOM     30  C   UNL     1      -3.474  -8.991   9.804  0.00  0.00    +0.016 A 
ATOM     31  C   UNL     1      -5.627 -10.081   9.677  0.00  0.00    +0.001 A 
ATOM     32  C   UNL     1      -4.743  -9.098   9.232  0.00  0.00    +0.001 A 
ENDBRANCH  20  23
ENDBRANCH  11  18
BRANCH  12  17
ATOM     17  C   UNL     1      -6.675  -9.582  16.094  0.00  0.00    +0.124 C 
BRANCH  17   7
ATOM      7  N   UNL     1      -7.806  -8.906  16.750  0.00  0.00    -0.188 NA
ATOM     33  H   UNL     1      -7.767  -8.930  17.777  0.00  0.00    +0.148 HD
BRANCH   7   2
ATOM      2  S   UNL     1      -9.380  -9.058  16.114  0.00  0.00    +0.065 S 
ATOM      4  O   UNL     1      -9.418 -10.182  15.198  0.00  0.00    -0.153 OA
ATOM      5  O   UNL     1      -9.848  -7.753  15.689  0.00  0.00    -0.153 OA
BRANCH   2  22
ATOM      3  S   UNL     1      -9.509 -10.563  18.627  0.00  0.00    -0.077 S 
ATOM     22  C   UNL     1     -10.308  -9.495  17.553  0.00  0.00    +0.142 A 
ATOM     25  C   UNL     1     -11.565  -9.152  18.005  0.00  0.00    +0.036 A 
ATOM     28  C   UNL     1     -11.874  -9.775  19.248  0.00  0.00    +0.010 A 
ATOM     29  C   UNL     1     -10.843 -10.569  19.700  0.00  0.00    +0.047 A 
ENDBRANCH   2  22
ENDBRANCH   7   2
ENDBRANCH  17   7
ENDBRANCH  12  17
TORSDOF 6
ENDMDL
MODEL 10
REMARK VINA RESULT:      -6.0     24.685     27.343
REMARK  Name = 40777258
REMARK  7 active torsions:
REMARK  status: ('A' for Active; 'I' for Inactive)
REMARK    1  A    between atoms: S_2  and  N_7
REMARK    2  A    between atoms: S_2  and  C_22
REMARK    3  A    between atoms: N_7  and  C_17
REMARK    4  A    between atoms: C_11  and  C_18
REMARK    5  A    between atoms: C_12  and  C_17
REMARK    6  A    between atoms: C_20  and  C_23
REMARK    7  A    between atoms: C_21  and  C_24
REMARK                            x       y       z     vdW  Elec       q    Type
REMARK                         _______ _______ _______ _____ _____    ______ ____
ROOT
ATOM      6  N   UNL     1      -6.834 -11.078  11.268  0.00  0.00    -0.297 NA
ATOM     10  C   UNL     1      -4.788  -9.548  11.777  0.00  0.00    +0.002 C 
ATOM     11  C   UNL     1      -4.634 -10.919  12.491  0.00  0.00    +0.055 C 
ATOM     12  C   UNL     1      -7.300  -9.740  11.717  0.00  0.00    +0.072 C 
ATOM     13  C   UNL     1      -6.113  -8.890  12.219  0.00  0.00    +0.024 C 
ATOM     14  C   UNL     1      -4.911  -9.843  10.267  0.00  0.00    +0.019 C 
ATOM     15  C   UNL     1      -5.971 -11.691  12.308  0.00  0.00    +0.094 C 
ATOM     16  C   UNL     1      -6.020 -10.888  10.044  0.00  0.00    +0.085 C 
ENDROOT
BRANCH  11  18
ATOM      8  N   UNL     1      -2.851 -10.653  14.144  0.00  0.00    -0.237 NA
ATOM      9  N   UNL     1      -3.239 -10.929  16.507  0.00  0.00    -0.232 NA
ATOM     18  C   UNL     1      -4.155 -10.927  13.936  0.00  0.00    +0.050 A 
ATOM     19  C   UNL     1      -5.052 -11.206  14.948  0.00  0.00    +0.052 A 
ATOM     20  C   UNL     1      -4.532 -11.193  16.226  0.00  0.00    +0.076 A 
ATOM     21  C   UNL     1      -2.465 -10.672  15.435  0.00  0.00    +0.127 A 
ATOM     24  C   UNL     1      -1.028 -10.377  15.705  0.00  0.00    +0.088 C 
BRANCH  20  23
ATOM      1 BR   UNL     1      -6.575 -13.628  15.863  0.00  0.00    -0.050 Br
ATOM     23  C   UNL     1      -5.364 -11.471  17.372  0.00  0.00    +0.014 A 
ATOM     26  C   UNL     1      -6.305 -12.501  17.371  0.00  0.00    +0.027 A 
ATOM     27  C   UNL     1      -5.206 -10.672  18.504  0.00  0.00    +0.011 A 
ATOM     30  C   UNL     1      -7.087 -12.733  18.502  0.00  0.00    +0.016 A 
ATOM     31  C   UNL     1      -5.987 -10.905  19.636  0.00  0.00    +0.001 A 
ATOM     32  C   UNL     1      -6.928 -11.935  19.636  0.00  0.00    +0.001 A 
ENDBRANCH  20  23
ENDBRANCH  11  18
BRANCH  12  17
ATOM     17  C   UNL     1      -8.418  -9.831  12.758  0.00  0.00    +0.124 C 
BRANCH  17   7
ATOM      7  N   UNL     1      -7.978  -9.172  13.999  0.00  0.00    -0.188 NA
ATOM     33  H   UNL     1      -6.959  -9.056  14.069  0.00  0.00    +0.148 HD
BRANCH   7   2
ATOM      2  S   UNL     1      -8.735  -9.543  15.479  0.00  0.00    +0.065 S 
ATOM      4  O   UNL     1      -7.818  -9.264  16.569  0.00  0.00    -0.153 OA
ATOM      5  O   UNL     1      -9.369 -10.844  15.375  0.00  0.00    -0.153 OA
BRANCH   2  22
ATOM      3  S   UNL     1     -11.539  -8.884  14.934  0.00  0.00    -0.077 S 
ATOM     22  C   UNL     1     -10.029  -8.341  15.533  0.00  0.00    +0.142 A 
ATOM     25  C   UNL     1     -10.083  -7.032  15.962  0.00  0.00    +0.036 A 
ATOM     28  C   UNL     1     -11.382  -6.470  15.798  0.00  0.00    +0.010 A 
ATOM     29  C   UNL     1     -12.270  -7.368  15.249  0.00  0.00    +0.047 A 
ENDBRANCH   2  22
ENDBRANCH   7   2
ENDBRANCH  17   7
ENDBRANCH  12  17
TORSDOF 6
ENDMDL
