MODEL 1
REMARK VINA RESULT:      -7.8      0.000      0.000
REMARK  Name = 45783680
REMARK  8 active torsions:
REMARK  status: ('A' for Active; 'I' for Inactive)
REMARK    1  A    between atoms: O_2  and  C_17
REMARK    2  A    between atoms: O_3  and  C_23
REMARK    3  A    between atoms: O_3  and  C_28
REMARK    4  A    between atoms: N_4  and  C_14
REMARK    5  A    between atoms: N_8  and  C_27
REMARK    6  A    between atoms: C_10  and  C_15
REMARK    7  A    between atoms: C_14  and  C_16
REMARK    8  A    between atoms: C_19  and  C_22
REMARK                            x       y       z     vdW  Elec       q    Type
REMARK                         _______ _______ _______ _____ _____    ______ ____
ROOT
ATOM      4  N   UNL     1      12.576   8.495  18.396  0.00  0.00    -0.287 NA
ATOM     10  C   UNL     1      13.672   7.632  17.913  0.00  0.00    +0.146 C 
ATOM     11  C   UNL     1      13.999   8.164  16.506  0.00  0.00    +0.030 C 
ATOM     12  C   UNL     1      12.996   9.283  16.262  0.00  0.00    +0.017 C 
ATOM     13  C   UNL     1      11.858   8.955  17.208  0.00  0.00    +0.085 C 
ENDROOT
BRANCH  10  15
ATOM      1  O   UNL     1      14.969   8.696  19.691  0.00  0.00    -0.336 OA
ATOM      5  N   UNL     1      15.852   6.781  18.937  0.00  0.00    -0.190 NA
ATOM      6  N   UNL     1      16.141   8.491  20.430  0.00  0.00    -0.056 NA
ATOM     15  C   UNL     1      14.873   7.644  18.837  0.00  0.00    +0.245 A 
ATOM     19  C   UNL     1      16.605   7.343  19.927  0.00  0.00    +0.204 A 
BRANCH  19  22
ATOM      7  N   UNL     1      19.521   5.042  20.098  0.00  0.00    -0.237 NA
ATOM     22  C   UNL     1      17.815   6.730  20.392  0.00  0.00    +0.041 A 
ATOM     24  C   UNL     1      18.454   7.185  21.540  0.00  0.00    +0.017 A 
ATOM     25  C   UNL     1      18.384   5.665  19.713  0.00  0.00    +0.124 A 
ATOM     26  C   UNL     1      19.625   6.571  21.968  0.00  0.00    +0.047 A 
ATOM     27  C   UNL     1      20.113   5.513  21.218  0.00  0.00    +0.139 A 
BRANCH  27   8
ATOM      8  N   UNL     1      21.281   4.896  21.641  0.00  0.00    -0.290 N 
ATOM      9  N   UNL     1      22.974   3.459  21.694  0.00  0.00    -0.244 NA
ATOM     29  C   UNL     1      22.048   5.261  22.711  0.00  0.00    +0.114 A 
ATOM     30  C   UNL     1      21.876   3.810  21.061  0.00  0.00    +0.205 A 
ATOM     31  C   UNL     1      23.087   4.360  22.723  0.00  0.00    +0.130 A 
ENDBRANCH  27   8
ENDBRANCH  19  22
ENDBRANCH  10  15
BRANCH   4  14
ATOM     14  C   UNL     1      11.694   7.827  19.345  0.00  0.00    +0.124 C 
BRANCH  14  16
ATOM     16  C   UNL     1      11.413   8.685  20.549  0.00  0.00    +0.008 A 
ATOM     17  C   UNL     1      10.664   8.189  21.618  0.00  0.00    +0.125 A 
ATOM     18  C   UNL     1      11.910   9.987  20.591  0.00  0.00    +0.012 A 
ATOM     20  C   UNL     1      10.413   8.997  22.726  0.00  0.00    +0.091 A 
ATOM     21  C   UNL     1      11.658  10.795  21.701  0.00  0.00    +0.046 A 
ATOM     23  C   UNL     1      10.910  10.300  22.768  0.00  0.00    +0.124 A 
BRANCH  17   2
ATOM      2  O   UNL     1      10.172   6.919  21.593  0.00  0.00    -0.506 OA
ATOM     32  H   UNL     1       9.817   6.696  22.471  0.00  0.00    +0.292 HD
ENDBRANCH  17   2
BRANCH  23   3
ATOM      3  O   UNL     1      10.665  11.088  23.850  0.00  0.00    -0.495 OA
ATOM     28  C   UNL     1      11.790  11.471  24.642  0.00  0.00    +0.277 C 
ENDBRANCH  23   3
ENDBRANCH  14  16
ENDBRANCH   4  14
TORSDOF 7
ENDMDL
MODEL 2
REMARK VINA RESULT:      -7.2      3.848     11.202
REMARK  Name = 45783680
REMARK  8 active torsions:
REMARK  status: ('A' for Active; 'I' for Inactive)
REMARK    1  A    between atoms: O_2  and  C_17
REMARK    2  A    between atoms: O_3  and  C_23
REMARK    3  A    between atoms: O_3  and  C_28
REMARK    4  A    between atoms: N_4  and  C_14
REMARK    5  A    between atoms: N_8  and  C_27
REMARK    6  A    between atoms: C_10  and  C_15
REMARK    7  A    between atoms: C_14  and  C_16
REMARK    8  A    between atoms: C_19  and  C_22
REMARK                            x       y       z     vdW  Elec       q    Type
REMARK                         _______ _______ _______ _____ _____    ______ ____
ROOT
ATOM      4  N   UNL     1      22.619   5.364  22.300  0.00  0.00    -0.287 NA
ATOM     10  C   UNL     1      21.660   6.468  22.499  0.00  0.00    +0.146 C 
ATOM     11  C   UNL     1      22.456   7.743  22.168  0.00  0.00    +0.030 C 
ATOM     12  C   UNL     1      23.866   7.262  21.856  0.00  0.00    +0.017 C 
ATOM     13  C   UNL     1      23.948   5.920  22.556  0.00  0.00    +0.085 C 
ENDROOT
BRANCH  10  15
ATOM      1  O   UNL     1      20.480   5.415  20.635  0.00  0.00    -0.336 OA
ATOM      5  N   UNL     1      19.268   6.942  21.738  0.00  0.00    -0.190 NA
ATOM      6  N   UNL     1      19.232   5.456  19.999  0.00  0.00    -0.056 NA
ATOM     15  C   UNL     1      20.416   6.319  21.647  0.00  0.00    +0.245 A 
ATOM     19  C   UNL     1      18.574   6.378  20.707  0.00  0.00    +0.204 A 
BRANCH  19  22
ATOM      7  N   UNL     1      15.246   6.466  19.050  0.00  0.00    -0.237 NA
ATOM     22  C   UNL     1      17.223   6.759  20.411  0.00  0.00    +0.041 A 
ATOM     24  C   UNL     1      16.580   7.749  21.145  0.00  0.00    +0.017 A 
ATOM     25  C   UNL     1      16.518   6.153  19.383  0.00  0.00    +0.124 A 
ATOM     26  C   UNL     1      15.271   8.099  20.833  0.00  0.00    +0.047 A 
ATOM     27  C   UNL     1      14.653   7.433  19.787  0.00  0.00    +0.139 A 
BRANCH  27   8
ATOM      8  N   UNL     1      13.348   7.777  19.472  0.00  0.00    -0.290 N 
ATOM      9  N   UNL     1      11.473   7.973  18.298  0.00  0.00    -0.244 NA
ATOM     29  C   UNL     1      12.466   8.435  20.283  0.00  0.00    +0.114 A 
ATOM     30  C   UNL     1      12.707   7.521  18.291  0.00  0.00    +0.205 A 
ATOM     31  C   UNL     1      11.316   8.544  19.537  0.00  0.00    +0.130 A 
ENDBRANCH  27   8
ENDBRANCH  19  22
ENDBRANCH  10  15
BRANCH   4  14
ATOM     14  C   UNL     1      22.340   4.203  23.135  0.00  0.00    +0.124 C 
BRANCH  14  16
ATOM     16  C   UNL     1      23.198   3.024  22.763  0.00  0.00    +0.008 A 
ATOM     17  C   UNL     1      23.230   2.553  21.449  0.00  0.00    +0.125 A 
ATOM     18  C   UNL     1      23.967   2.402  23.745  0.00  0.00    +0.012 A 
ATOM     20  C   UNL     1      24.031   1.459  21.121  0.00  0.00    +0.091 A 
ATOM     21  C   UNL     1      24.767   1.307  23.416  0.00  0.00    +0.046 A 
ATOM     23  C   UNL     1      24.800   0.836  22.104  0.00  0.00    +0.124 A 
BRANCH  17   2
ATOM      2  O   UNL     1      22.486   3.150  20.477  0.00  0.00    -0.506 OA
ATOM     32  H   UNL     1      23.077   3.608  19.855  0.00  0.00    +0.292 HD
ENDBRANCH  17   2
BRANCH  23   3
ATOM      3  O   UNL     1      25.581  -0.231  21.783  0.00  0.00    -0.495 OA
ATOM     28  C   UNL     1      26.646  -0.547  22.679  0.00  0.00    +0.277 C 
ENDBRANCH  23   3
ENDBRANCH  14  16
ENDBRANCH   4  14
TORSDOF 7
ENDMDL
MODEL 3
REMARK VINA RESULT:      -7.2     26.709     30.120
REMARK  Name = 45783680
REMARK  8 active torsions:
REMARK  status: ('A' for Active; 'I' for Inactive)
REMARK    1  A    between atoms: O_2  and  C_17
REMARK    2  A    between atoms: O_3  and  C_23
REMARK    3  A    between atoms: O_3  and  C_28
REMARK    4  A    between atoms: N_4  and  C_14
REMARK    5  A    between atoms: N_8  and  C_27
REMARK    6  A    between atoms: C_10  and  C_15
REMARK    7  A    between atoms: C_14  and  C_16
REMARK    8  A    between atoms: C_19  and  C_22
REMARK                            x       y       z     vdW  Elec       q    Type
REMARK                         _______ _______ _______ _____ _____    ______ ____
ROOT
ATOM      4  N   UNL     1      -3.023 -10.558  14.275  0.00  0.00    -0.287 NA
ATOM     10  C   UNL     1      -3.158 -11.283  15.554  0.00  0.00    +0.146 C 
ATOM     11  C   UNL     1      -1.954 -10.820  16.395  0.00  0.00    +0.030 C 
ATOM     12  C   UNL     1      -1.168  -9.888  15.484  0.00  0.00    +0.017 C 
ATOM     13  C   UNL     1      -1.594 -10.306  14.091  0.00  0.00    +0.085 C 
ENDROOT
BRANCH  10  15
ATOM      1  O   UNL     1      -5.022  -9.783  16.055  0.00  0.00    -0.336 OA
ATOM      5  N   UNL     1      -5.203 -11.809  16.991  0.00  0.00    -0.190 NA
ATOM      6  N   UNL     1      -6.226  -9.775  16.771  0.00  0.00    -0.056 NA
ATOM     15  C   UNL     1      -4.484 -11.017  16.237  0.00  0.00    +0.245 A 
ATOM     19  C   UNL     1      -6.262 -11.004  17.294  0.00  0.00    +0.204 A 
BRANCH  19  22
ATOM      7  N   UNL     1      -9.643 -11.227  18.827  0.00  0.00    -0.237 NA
ATOM     22  C   UNL     1      -7.341 -11.458  18.123  0.00  0.00    +0.041 A 
ATOM     24  C   UNL     1      -7.171 -12.520  19.003  0.00  0.00    +0.017 A 
ATOM     25  C   UNL     1      -8.586 -10.850  18.073  0.00  0.00    +0.124 A 
ATOM     26  C   UNL     1      -8.234 -12.937  19.796  0.00  0.00    +0.047 A 
ATOM     27  C   UNL     1      -9.439 -12.264  19.671  0.00  0.00    +0.139 A 
BRANCH  27   8
ATOM      8  N   UNL     1     -10.503 -12.676  20.459  0.00  0.00    -0.290 N 
ATOM      9  N   UNL     1     -12.523 -12.698  21.380  0.00  0.00    -0.244 NA
ATOM     29  C   UNL     1     -10.523 -13.761  21.288  0.00  0.00    +0.114 A 
ATOM     30  C   UNL     1     -11.725 -12.069  20.547  0.00  0.00    +0.205 A 
ATOM     31  C   UNL     1     -11.780 -13.754  21.846  0.00  0.00    +0.130 A 
ENDBRANCH  27   8
ENDBRANCH  19  22
ENDBRANCH  10  15
BRANCH   4  14
ATOM     14  C   UNL     1      -3.603 -11.273  13.146  0.00  0.00    +0.124 C 
BRANCH  14  16
ATOM     16  C   UNL     1      -4.208 -10.334  12.137  0.00  0.00    +0.008 A 
ATOM     17  C   UNL     1      -5.441  -9.725  12.381  0.00  0.00    +0.125 A 
ATOM     18  C   UNL     1      -3.524 -10.074  10.951  0.00  0.00    +0.012 A 
ATOM     20  C   UNL     1      -5.987  -8.857  11.435  0.00  0.00    +0.091 A 
ATOM     21  C   UNL     1      -4.072  -9.205  10.005  0.00  0.00    +0.046 A 
ATOM     23  C   UNL     1      -5.303  -8.597  10.248  0.00  0.00    +0.124 A 
BRANCH  17   2
ATOM      2  O   UNL     1      -6.122  -9.968  13.535  0.00  0.00    -0.506 OA
ATOM     32  H   UNL     1      -5.498  -9.974  14.281  0.00  0.00    +0.292 HD
ENDBRANCH  17   2
BRANCH  23   3
ATOM      3  O   UNL     1      -5.836  -7.750   9.326  0.00  0.00    -0.495 OA
ATOM     28  C   UNL     1      -7.139  -8.063   8.833  0.00  0.00    +0.277 C 
ENDBRANCH  23   3
ENDBRANCH  14  16
ENDBRANCH   4  14
TORSDOF 7
ENDMDL
MODEL 4
REMARK VINA RESULT:      -7.1     26.928     29.922
REMARK  Name = 45783680
REMARK  8 active torsions:
REMARK  status: ('A' for Active; 'I' for Inactive)
REMARK    1  A    between atoms: O_2  and  C_17
REMARK    2  A    between atoms: O_3  and  C_23
REMARK    3  A    between atoms: O_3  and  C_28
REMARK    4  A    between atoms: N_4  and  C_14
REMARK    5  A    between atoms: N_8  and  C_27
REMARK    6  A    between atoms: C_10  and  C_15
REMARK    7  A    between atoms: C_14  and  C_16
REMARK    8  A    between atoms: C_19  and  C_22
REMARK                            x       y       z     vdW  Elec       q    Type
REMARK                         _______ _______ _______ _____ _____    ______ ____
ROOT
ATOM      4  N   UNL     1     -10.482 -11.292  19.111  0.00  0.00    -0.287 NA
ATOM     10  C   UNL     1      -9.304 -11.709  19.898  0.00  0.00    +0.146 C 
ATOM     11  C   UNL     1      -9.459 -13.232  20.058  0.00  0.00    +0.030 C 
ATOM     12  C   UNL     1     -10.782 -13.570  19.384  0.00  0.00    +0.017 C 
ATOM     13  C   UNL     1     -11.540 -12.258  19.408  0.00  0.00    +0.085 C 
ENDROOT
BRANCH  10  15
ATOM      1  O   UNL     1      -7.042 -10.795  20.050  0.00  0.00    -0.336 OA
ATOM      5  N   UNL     1      -7.640 -11.415  17.983  0.00  0.00    -0.190 NA
ATOM      6  N   UNL     1      -5.942 -10.519  19.227  0.00  0.00    -0.056 NA
ATOM     15  C   UNL     1      -7.996 -11.321  19.239  0.00  0.00    +0.245 A 
ATOM     19  C   UNL     1      -6.372 -10.911  18.024  0.00  0.00    +0.204 A 
BRANCH  19  22
ATOM      7  N   UNL     1      -5.398 -10.310  14.486  0.00  0.00    -0.237 NA
ATOM     22  C   UNL     1      -5.561 -10.814  16.846  0.00  0.00    +0.041 A 
ATOM     24  C   UNL     1      -4.204 -11.115  16.883  0.00  0.00    +0.017 A 
ATOM     25  C   UNL     1      -6.105 -10.420  15.634  0.00  0.00    +0.124 A 
ATOM     26  C   UNL     1      -3.443 -11.013  15.724  0.00  0.00    +0.047 A 
ATOM     27  C   UNL     1      -4.082 -10.610  14.562  0.00  0.00    +0.139 A 
BRANCH  27   8
ATOM      8  N   UNL     1      -3.327 -10.508  13.403  0.00  0.00    -0.290 N 
ATOM      9  N   UNL     1      -1.555 -10.244  12.090  0.00  0.00    -0.244 NA
ATOM     29  C   UNL     1      -3.793 -10.603  12.122  0.00  0.00    +0.114 A 
ATOM     30  C   UNL     1      -1.979 -10.292  13.334  0.00  0.00    +0.205 A 
ATOM     31  C   UNL     1      -2.681 -10.438  11.330  0.00  0.00    +0.130 A 
ENDBRANCH  27   8
ENDBRANCH  19  22
ENDBRANCH  10  15
BRANCH   4  14
ATOM     14  C   UNL     1     -10.898  -9.922  19.383  0.00  0.00    +0.124 C 
BRANCH  14  16
ATOM     16  C   UNL     1     -11.209  -9.169  18.117  0.00  0.00    +0.008 A 
ATOM     17  C   UNL     1     -10.202  -8.498  17.422  0.00  0.00    +0.125 A 
ATOM     18  C   UNL     1     -12.519  -9.148  17.640  0.00  0.00    +0.012 A 
ATOM     20  C   UNL     1     -10.508  -7.805  16.251  0.00  0.00    +0.091 A 
ATOM     21  C   UNL     1     -12.824  -8.454  16.469  0.00  0.00    +0.046 A 
ATOM     23  C   UNL     1     -11.818  -7.783  15.774  0.00  0.00    +0.124 A 
BRANCH  17   2
ATOM      2  O   UNL     1      -8.917  -8.509  17.874  0.00  0.00    -0.506 OA
ATOM     32  H   UNL     1      -8.904  -8.246  18.810  0.00  0.00    +0.292 HD
ENDBRANCH  17   2
BRANCH  23   3
ATOM      3  O   UNL     1     -12.116  -7.107  14.631  0.00  0.00    -0.495 OA
ATOM     28  C   UNL     1     -11.914  -5.694  14.641  0.00  0.00    +0.277 C 
ENDBRANCH  23   3
ENDBRANCH  14  16
ENDBRANCH   4  14
TORSDOF 7
ENDMDL
MODEL 5
REMARK VINA RESULT:      -7.0      1.525      2.117
REMARK  Name = 45783680
REMARK  8 active torsions:
REMARK  status: ('A' for Active; 'I' for Inactive)
REMARK    1  A    between atoms: O_2  and  C_17
REMARK    2  A    between atoms: O_3  and  C_23
REMARK    3  A    between atoms: O_3  and  C_28
REMARK    4  A    between atoms: N_4  and  C_14
REMARK    5  A    between atoms: N_8  and  C_27
REMARK    6  A    between atoms: C_10  and  C_15
REMARK    7  A    between atoms: C_14  and  C_16
REMARK    8  A    between atoms: C_19  and  C_22
REMARK                            x       y       z     vdW  Elec       q    Type
REMARK                         _______ _______ _______ _____ _____    ______ ____
ROOT
ATOM      4  N   UNL     1      12.476   8.587  19.910  0.00  0.00    -0.287 NA
ATOM     10  C   UNL     1      13.268   7.415  19.484  0.00  0.00    +0.146 C 
ATOM     11  C   UNL     1      13.051   7.329  17.963  0.00  0.00    +0.030 C 
ATOM     12  C   UNL     1      12.076   8.451  17.636  0.00  0.00    +0.017 C 
ATOM     13  C   UNL     1      11.376   8.712  18.954  0.00  0.00    +0.085 C 
ENDROOT
BRANCH  10  15
ATOM      1  O   UNL     1      15.191   8.785  20.117  0.00  0.00    -0.336 OA
ATOM      5  N   UNL     1      15.636   6.595  19.975  0.00  0.00    -0.190 NA
ATOM      6  N   UNL     1      16.547   8.642  20.436  0.00  0.00    -0.056 NA
ATOM     15  C   UNL     1      14.730   7.533  19.860  0.00  0.00    +0.245 A 
ATOM     19  C   UNL     1      16.734   7.323  20.331  0.00  0.00    +0.204 A 
BRANCH  19  22
ATOM      7  N   UNL     1      20.071   6.651  21.827  0.00  0.00    -0.237 NA
ATOM     22  C   UNL     1      18.004   6.702  20.574  0.00  0.00    +0.041 A 
ATOM     24  C   UNL     1      18.413   5.595  19.840  0.00  0.00    +0.017 A 
ATOM     25  C   UNL     1      18.862   7.188  21.548  0.00  0.00    +0.124 A 
ATOM     26  C   UNL     1      19.650   5.015  20.097  0.00  0.00    +0.047 A 
ATOM     27  C   UNL     1      20.435   5.576  21.092  0.00  0.00    +0.139 A 
BRANCH  27   8
ATOM      8  N   UNL     1      21.669   5.002  21.353  0.00  0.00    -0.290 N 
ATOM      9  N   UNL     1      23.730   4.250  21.004  0.00  0.00    -0.244 NA
ATOM     29  C   UNL     1      22.096   4.509  22.554  0.00  0.00    +0.114 A 
ATOM     30  C   UNL     1      22.683   4.824  20.453  0.00  0.00    +0.205 A 
ATOM     31  C   UNL     1      23.370   4.051  22.313  0.00  0.00    +0.130 A 
ENDBRANCH  27   8
ENDBRANCH  19  22
ENDBRANCH  10  15
BRANCH   4  14
ATOM     14  C   UNL     1      12.000   8.489  21.284  0.00  0.00    +0.124 C 
BRANCH  14  16
ATOM     16  C   UNL     1      12.141   9.794  22.021  0.00  0.00    +0.008 A 
ATOM     17  C   UNL     1      13.320  10.104  22.701  0.00  0.00    +0.125 A 
ATOM     18  C   UNL     1      11.079  10.697  22.019  0.00  0.00    +0.012 A 
ATOM     20  C   UNL     1      13.433  11.318  23.379  0.00  0.00    +0.091 A 
ATOM     21  C   UNL     1      11.194  11.911  22.697  0.00  0.00    +0.046 A 
ATOM     23  C   UNL     1      12.371  12.221  23.377  0.00  0.00    +0.124 A 
BRANCH  17   2
ATOM      2  O   UNL     1      14.367   9.233  22.713  0.00  0.00    -0.506 OA
ATOM     32  H   UNL     1      14.419   8.781  21.853  0.00  0.00    +0.292 HD
ENDBRANCH  17   2
BRANCH  23   3
ATOM      3  O   UNL     1      12.482  13.405  24.038  0.00  0.00    -0.495 OA
ATOM     28  C   UNL     1      13.129  14.475  23.349  0.00  0.00    +0.277 C 
ENDBRANCH  23   3
ENDBRANCH  14  16
ENDBRANCH   4  14
TORSDOF 7
ENDMDL
MODEL 6
REMARK VINA RESULT:      -7.0     26.344     29.962
REMARK  Name = 45783680
REMARK  8 active torsions:
REMARK  status: ('A' for Active; 'I' for Inactive)
REMARK    1  A    between atoms: O_2  and  C_17
REMARK    2  A    between atoms: O_3  and  C_23
REMARK    3  A    between atoms: O_3  and  C_28
REMARK    4  A    between atoms: N_4  and  C_14
REMARK    5  A    between atoms: N_8  and  C_27
REMARK    6  A    between atoms: C_10  and  C_15
REMARK    7  A    between atoms: C_14  and  C_16
REMARK    8  A    between atoms: C_19  and  C_22
REMARK                            x       y       z     vdW  Elec       q    Type
REMARK                         _______ _______ _______ _____ _____    ______ ____
ROOT
ATOM      4  N   UNL     1      -3.230 -10.608  14.452  0.00  0.00    -0.287 NA
ATOM     10  C   UNL     1      -3.000 -11.324  15.723  0.00  0.00    +0.146 C 
ATOM     11  C   UNL     1      -1.660 -10.775  16.244  0.00  0.00    +0.030 C 
ATOM     12  C   UNL     1      -1.184  -9.805  15.172  0.00  0.00    +0.017 C 
ATOM     13  C   UNL     1      -1.909 -10.268  13.924  0.00  0.00    +0.085 C 
ENDROOT
BRANCH  10  15
ATOM      1  O   UNL     1      -3.807 -11.213  18.027  0.00  0.00    -0.336 OA
ATOM      5  N   UNL     1      -5.402 -10.908  16.484  0.00  0.00    -0.190 NA
ATOM      6  N   UNL     1      -5.000 -11.011  18.734  0.00  0.00    -0.056 NA
ATOM     15  C   UNL     1      -4.133 -11.136  16.710  0.00  0.00    +0.245 A 
ATOM     19  C   UNL     1      -5.893 -10.838  17.756  0.00  0.00    +0.204 A 
BRANCH  19  22
ATOM      7  N   UNL     1      -9.294 -11.182  19.221  0.00  0.00    -0.237 NA
ATOM     22  C   UNL     1      -7.282 -10.594  18.014  0.00  0.00    +0.041 A 
ATOM     24  C   UNL     1      -7.968  -9.582  17.351  0.00  0.00    +0.017 A 
ATOM     25  C   UNL     1      -7.985 -11.359  18.932  0.00  0.00    +0.124 A 
ATOM     26  C   UNL     1      -9.315  -9.369  17.621  0.00  0.00    +0.047 A 
ATOM     27  C   UNL     1      -9.926 -10.189  18.556  0.00  0.00    +0.139 A 
BRANCH  27   8
ATOM      8  N   UNL     1     -11.270  -9.982  18.829  0.00  0.00    -0.290 N 
ATOM      9  N   UNL     1     -13.416  -9.528  18.487  0.00  0.00    -0.244 NA
ATOM     29  C   UNL     1     -11.869 -10.062  20.055  0.00  0.00    +0.114 A 
ATOM     30  C   UNL     1     -12.238  -9.658  17.919  0.00  0.00    +0.205 A 
ATOM     31  C   UNL     1     -13.193  -9.778  19.818  0.00  0.00    +0.130 A 
ENDBRANCH  27   8
ENDBRANCH  19  22
ENDBRANCH  10  15
BRANCH   4  14
ATOM     14  C   UNL     1      -4.021 -11.374  13.497  0.00  0.00    +0.124 C 
BRANCH  14  16
ATOM     16  C   UNL     1      -4.604 -10.498  12.421  0.00  0.00    +0.008 A 
ATOM     17  C   UNL     1      -5.639  -9.608  12.710  0.00  0.00    +0.125 A 
ATOM     18  C   UNL     1      -4.098 -10.581  11.125  0.00  0.00    +0.012 A 
ATOM     20  C   UNL     1      -6.168  -8.803  11.700  0.00  0.00    +0.091 A 
ATOM     21  C   UNL     1      -4.627  -9.776  10.115  0.00  0.00    +0.046 A 
ATOM     23  C   UNL     1      -5.662  -8.886  10.404  0.00  0.00    +0.124 A 
BRANCH  17   2
ATOM      2  O   UNL     1      -6.145  -9.514  13.971  0.00  0.00    -0.506 OA
ATOM     32  H   UNL     1      -5.750  -8.746  14.419  0.00  0.00    +0.292 HD
ENDBRANCH  17   2
BRANCH  23   3
ATOM      3  O   UNL     1      -6.177  -8.101   9.419  0.00  0.00    -0.495 OA
ATOM     28  C   UNL     1      -7.567  -8.251   9.129  0.00  0.00    +0.277 C 
ENDBRANCH  23   3
ENDBRANCH  14  16
ENDBRANCH   4  14
TORSDOF 7
ENDMDL
MODEL 7
REMARK VINA RESULT:      -6.9      2.061      2.758
REMARK  Name = 45783680
REMARK  8 active torsions:
REMARK  status: ('A' for Active; 'I' for Inactive)
REMARK    1  A    between atoms: O_2  and  C_17
REMARK    2  A    between atoms: O_3  and  C_23
REMARK    3  A    between atoms: O_3  and  C_28
REMARK    4  A    between atoms: N_4  and  C_14
REMARK    5  A    between atoms: N_8  and  C_27
REMARK    6  A    between atoms: C_10  and  C_15
REMARK    7  A    between atoms: C_14  and  C_16
REMARK    8  A    between atoms: C_19  and  C_22
REMARK                            x       y       z     vdW  Elec       q    Type
REMARK                         _______ _______ _______ _____ _____    ______ ____
ROOT
ATOM      4  N   UNL     1      13.379   8.445  19.569  0.00  0.00    -0.287 NA
ATOM     10  C   UNL     1      13.917   7.328  18.766  0.00  0.00    +0.146 C 
ATOM     11  C   UNL     1      13.808   7.808  17.307  0.00  0.00    +0.030 C 
ATOM     12  C   UNL     1      13.143   9.175  17.387  0.00  0.00    +0.017 C 
ATOM     13  C   UNL     1      12.417   9.141  18.716  0.00  0.00    +0.085 C 
ENDROOT
BRANCH  10  15
ATOM      1  O   UNL     1      15.928   5.982  18.424  0.00  0.00    -0.336 OA
ATOM      5  N   UNL     1      16.085   7.447  20.111  0.00  0.00    -0.190 NA
ATOM      6  N   UNL     1      17.211   5.819  18.964  0.00  0.00    -0.056 NA
ATOM     15  C   UNL     1      15.333   6.960  19.156  0.00  0.00    +0.245 A 
ATOM     19  C   UNL     1      17.227   6.716  19.953  0.00  0.00    +0.204 A 
BRANCH  19  22
ATOM      7  N   UNL     1      19.512   8.259  22.448  0.00  0.00    -0.237 NA
ATOM     22  C   UNL     1      18.367   6.909  20.801  0.00  0.00    +0.041 A 
ATOM     24  C   UNL     1      19.411   5.990  20.819  0.00  0.00    +0.017 A 
ATOM     25  C   UNL     1      18.465   8.017  21.628  0.00  0.00    +0.124 A 
ATOM     26  C   UNL     1      20.504   6.204  21.650  0.00  0.00    +0.047 A 
ATOM     27  C   UNL     1      20.506   7.344  22.439  0.00  0.00    +0.139 A 
BRANCH  27   8
ATOM      8  N   UNL     1      21.595   7.562  23.269  0.00  0.00    -0.290 N 
ATOM      9  N   UNL     1      22.938   8.581  24.715  0.00  0.00    -0.244 NA
ATOM     29  C   UNL     1      22.642   6.708  23.472  0.00  0.00    +0.114 A 
ATOM     30  C   UNL     1      21.816   8.672  24.036  0.00  0.00    +0.205 A 
ATOM     31  C   UNL     1      23.458   7.359  24.368  0.00  0.00    +0.130 A 
ENDBRANCH  27   8
ENDBRANCH  19  22
ENDBRANCH  10  15
BRANCH   4  14
ATOM     14  C   UNL     1      12.785   8.013  20.828  0.00  0.00    +0.124 C 
BRANCH  14  16
ATOM     16  C   UNL     1      12.590   9.162  21.780  0.00  0.00    +0.008 A 
ATOM     17  C   UNL     1      13.673   9.945  22.182  0.00  0.00    +0.125 A 
ATOM     18  C   UNL     1      11.311   9.440  22.260  0.00  0.00    +0.012 A 
ATOM     20  C   UNL     1      13.474  11.006  23.066  0.00  0.00    +0.091 A 
ATOM     21  C   UNL     1      11.113  10.502  23.143  0.00  0.00    +0.046 A 
ATOM     23  C   UNL     1      12.195  11.285  23.546  0.00  0.00    +0.124 A 
BRANCH  17   2
ATOM      2  O   UNL     1      14.928   9.686  21.723  0.00  0.00    -0.506 OA
ATOM     32  H   UNL     1      14.870   9.164  20.905  0.00  0.00    +0.292 HD
ENDBRANCH  17   2
BRANCH  23   3
ATOM      3  O   UNL     1      12.001  12.321  24.407  0.00  0.00    -0.495 OA
ATOM     28  C   UNL     1      10.918  12.204  25.329  0.00  0.00    +0.277 C 
ENDBRANCH  23   3
ENDBRANCH  14  16
ENDBRANCH   4  14
TORSDOF 7
ENDMDL
MODEL 8
REMARK VINA RESULT:      -6.8     25.963     29.794
REMARK  Name = 45783680
REMARK  8 active torsions:
REMARK  status: ('A' for Active; 'I' for Inactive)
REMARK    1  A    between atoms: O_2  and  C_17
REMARK    2  A    between atoms: O_3  and  C_23
REMARK    3  A    between atoms: O_3  and  C_28
REMARK    4  A    between atoms: N_4  and  C_14
REMARK    5  A    between atoms: N_8  and  C_27
REMARK    6  A    between atoms: C_10  and  C_15
REMARK    7  A    between atoms: C_14  and  C_16
REMARK    8  A    between atoms: C_19  and  C_22
REMARK                            x       y       z     vdW  Elec       q    Type
REMARK                         _______ _______ _______ _____ _____    ______ ____
ROOT
ATOM      4  N   UNL     1      -2.931 -10.552  14.177  0.00  0.00    -0.287 NA
ATOM     10  C   UNL     1      -3.254 -11.245  15.440  0.00  0.00    +0.146 C 
ATOM     11  C   UNL     1      -2.149 -10.807  16.420  0.00  0.00    +0.030 C 
ATOM     12  C   UNL     1      -1.220  -9.922  15.602  0.00  0.00    +0.017 C 
ATOM     13  C   UNL     1      -1.482 -10.354  14.173  0.00  0.00    +0.085 C 
ENDROOT
BRANCH  10  15
ATOM      1  O   UNL     1      -5.045 -11.560  17.073  0.00  0.00    -0.336 OA
ATOM      5  N   UNL     1      -5.537 -10.100  15.447  0.00  0.00    -0.190 NA
ATOM      6  N   UNL     1      -6.343 -11.104  17.338  0.00  0.00    -0.056 NA
ATOM     15  C   UNL     1      -4.644 -10.919  15.944  0.00  0.00    +0.245 A 
ATOM     19  C   UNL     1      -6.561 -10.246  16.337  0.00  0.00    +0.204 A 
BRANCH  19  22
ATOM      7  N   UNL     1      -9.648  -8.855  14.799  0.00  0.00    -0.237 NA
ATOM     22  C   UNL     1      -7.790  -9.521  16.197  0.00  0.00    +0.041 A 
ATOM     24  C   UNL     1      -8.321  -8.796  17.258  0.00  0.00    +0.017 A 
ATOM     25  C   UNL     1      -8.487  -9.519  14.998  0.00  0.00    +0.124 A 
ATOM     26  C   UNL     1      -9.513  -8.101  17.092  0.00  0.00    +0.047 A 
ATOM     27  C   UNL     1     -10.132  -8.163  15.854  0.00  0.00    +0.139 A 
BRANCH  27   8
ATOM      8  N   UNL     1     -11.322  -7.471  15.683  0.00  0.00    -0.290 N 
ATOM      9  N   UNL     1     -12.709  -5.802  15.214  0.00  0.00    -0.244 NA
ATOM     29  C   UNL     1     -12.580  -7.963  15.883  0.00  0.00    +0.114 A 
ATOM     30  C   UNL     1     -11.449  -6.170  15.282  0.00  0.00    +0.205 A 
ATOM     31  C   UNL     1     -13.419  -6.915  15.588  0.00  0.00    +0.130 A 
ENDBRANCH  27   8
ENDBRANCH  19  22
ENDBRANCH  10  15
BRANCH   4  14
ATOM     14  C   UNL     1      -3.390 -11.270  12.995  0.00  0.00    +0.124 C 
BRANCH  14  16
ATOM     16  C   UNL     1      -4.074 -10.356  12.014  0.00  0.00    +0.008 A 
ATOM     17  C   UNL     1      -3.337  -9.665  11.051  0.00  0.00    +0.125 A 
ATOM     18  C   UNL     1      -5.459 -10.206  12.073  0.00  0.00    +0.012 A 
ATOM     20  C   UNL     1      -3.988  -8.822  10.150  0.00  0.00    +0.091 A 
ATOM     21  C   UNL     1      -6.108  -9.363  11.171  0.00  0.00    +0.046 A 
ATOM     23  C   UNL     1      -5.372  -8.671  10.209  0.00  0.00    +0.124 A 
BRANCH  17   2
ATOM      2  O   UNL     1      -1.984  -9.801  10.980  0.00  0.00    -0.506 OA
ATOM     32  H   UNL     1      -1.744 -10.178  10.116  0.00  0.00    +0.292 HD
ENDBRANCH  17   2
BRANCH  23   3
ATOM      3  O   UNL     1      -6.007  -7.849   9.329  0.00  0.00    -0.495 OA
ATOM     28  C   UNL     1      -7.090  -8.407   8.585  0.00  0.00    +0.277 C 
ENDBRANCH  23   3
ENDBRANCH  14  16
ENDBRANCH   4  14
TORSDOF 7
ENDMDL
MODEL 9
REMARK VINA RESULT:      -6.7     15.009     18.755
REMARK  Name = 45783680
REMARK  8 active torsions:
REMARK  status: ('A' for Active; 'I' for Inactive)
REMARK    1  A    between atoms: O_2  and  C_17
REMARK    2  A    between atoms: O_3  and  C_23
REMARK    3  A    between atoms: O_3  and  C_28
REMARK    4  A    between atoms: N_4  and  C_14
REMARK    5  A    between atoms: N_8  and  C_27
REMARK    6  A    between atoms: C_10  and  C_15
REMARK    7  A    between atoms: C_14  and  C_16
REMARK    8  A    between atoms: C_19  and  C_22
REMARK                            x       y       z     vdW  Elec       q    Type
REMARK                         _______ _______ _______ _____ _____    ______ ____
ROOT
ATOM      4  N   UNL     1      10.036   8.613   6.157  0.00  0.00    -0.287 NA
ATOM     10  C   UNL     1       9.076   7.537   5.838  0.00  0.00    +0.146 C 
ATOM     11  C   UNL     1       7.889   8.256   5.171  0.00  0.00    +0.030 C 
ATOM     12  C   UNL     1       8.245   9.736   5.217  0.00  0.00    +0.017 C 
ATOM     13  C   UNL     1       9.245   9.828   6.351  0.00  0.00    +0.085 C 
ENDROOT
BRANCH  10  15
ATOM      1  O   UNL     1       9.996   5.289   5.563  0.00  0.00    -0.336 OA
ATOM      5  N   UNL     1       9.946   6.493   3.675  0.00  0.00    -0.190 NA
ATOM      6  N   UNL     1      10.528   4.466   4.562  0.00  0.00    -0.056 NA
ATOM     15  C   UNL     1       9.678   6.462   4.956  0.00  0.00    +0.245 A 
ATOM     19  C   UNL     1      10.465   5.246   3.479  0.00  0.00    +0.204 A 
BRANCH  19  22
ATOM      7  N   UNL     1      10.450   4.525  -0.169  0.00  0.00    -0.237 NA
ATOM     22  C   UNL     1      10.911   4.810   2.188  0.00  0.00    +0.041 A 
ATOM     24  C   UNL     1      12.179   4.266   2.013  0.00  0.00    +0.017 A 
ATOM     25  C   UNL     1      10.092   4.918   1.075  0.00  0.00    +0.124 A 
ATOM     26  C   UNL     1      12.583   3.850   0.750  0.00  0.00    +0.047 A 
ATOM     27  C   UNL     1      11.689   4.001  -0.299  0.00  0.00    +0.139 A 
BRANCH  27   8
ATOM      8  N   UNL     1      12.088   3.588  -1.562  0.00  0.00    -0.290 N 
ATOM      9  N   UNL     1      12.318   2.293  -3.351  0.00  0.00    -0.244 NA
ATOM     29  C   UNL     1      12.840   4.305  -2.448  0.00  0.00    +0.114 A 
ATOM     30  C   UNL     1      11.798   2.387  -2.147  0.00  0.00    +0.205 A 
ATOM     31  C   UNL     1      12.970   3.485  -3.544  0.00  0.00    +0.130 A 
ENDBRANCH  27   8
ENDBRANCH  19  22
ENDBRANCH  10  15
BRANCH   4  14
ATOM     14  C   UNL     1      10.872   8.312   7.312  0.00  0.00    +0.124 C 
BRANCH  14  16
ATOM     16  C   UNL     1      12.336   8.328   6.964  0.00  0.00    +0.008 A 
ATOM     17  C   UNL     1      13.042   7.136   6.794  0.00  0.00    +0.125 A 
ATOM     18  C   UNL     1      12.987   9.552   6.811  0.00  0.00    +0.012 A 
ATOM     20  C   UNL     1      14.398   7.170   6.471  0.00  0.00    +0.091 A 
ATOM     21  C   UNL     1      14.345   9.584   6.489  0.00  0.00    +0.046 A 
ATOM     23  C   UNL     1      15.050   8.393   6.319  0.00  0.00    +0.124 A 
BRANCH  17   2
ATOM      2  O   UNL     1      12.420   5.933   6.939  0.00  0.00    -0.506 OA
ATOM     32  H   UNL     1      13.081   5.255   7.162  0.00  0.00    +0.292 HD
ENDBRANCH  17   2
BRANCH  23   3
ATOM      3  O   UNL     1      16.373   8.426   6.004  0.00  0.00    -0.495 OA
ATOM     28  C   UNL     1      17.002   9.707   5.975  0.00  0.00    +0.277 C 
ENDBRANCH  23   3
ENDBRANCH  14  16
ENDBRANCH   4  14
TORSDOF 7
ENDMDL
MODEL 10
REMARK VINA RESULT:      -6.7     29.124     31.552
REMARK  Name = 45783680
REMARK  8 active torsions:
REMARK  status: ('A' for Active; 'I' for Inactive)
REMARK    1  A    between atoms: O_2  and  C_17
REMARK    2  A    between atoms: O_3  and  C_23
REMARK    3  A    between atoms: O_3  and  C_28
REMARK    4  A    between atoms: N_4  and  C_14
REMARK    5  A    between atoms: N_8  and  C_27
REMARK    6  A    between atoms: C_10  and  C_15
REMARK    7  A    between atoms: C_14  and  C_16
REMARK    8  A    between atoms: C_19  and  C_22
REMARK                            x       y       z     vdW  Elec       q    Type
REMARK                         _______ _______ _______ _____ _____    ______ ____
ROOT
ATOM      4  N   UNL     1     -13.249  -3.932  11.017  0.00  0.00    -0.287 NA
ATOM     10  C   UNL     1     -13.433  -3.584  12.441  0.00  0.00    +0.146 C 
ATOM     11  C   UNL     1     -14.900  -3.129  12.546  0.00  0.00    +0.030 C 
ATOM     12  C   UNL     1     -15.440  -3.196  11.125  0.00  0.00    +0.017 C 
ATOM     13  C   UNL     1     -14.195  -3.108  10.265  0.00  0.00    +0.085 C 
ENDROOT
BRANCH  10  15
ATOM      1  O   UNL     1     -14.169  -5.427  13.867  0.00  0.00    -0.336 OA
ATOM      5  N   UNL     1     -11.945  -5.177  13.772  0.00  0.00    -0.190 NA
ATOM      6  N   UNL     1     -13.629  -6.428  14.685  0.00  0.00    -0.056 NA
ATOM     15  C   UNL     1     -13.110  -4.737  13.368  0.00  0.00    +0.245 A 
ATOM     19  C   UNL     1     -12.314  -6.216  14.577  0.00  0.00    +0.204 A 
BRANCH  19  22
ATOM      7  N   UNL     1      -9.769  -8.856  15.194  0.00  0.00    -0.237 NA
ATOM     22  C   UNL     1     -11.343  -7.022  15.259  0.00  0.00    +0.041 A 
ATOM     24  C   UNL     1     -11.027  -6.789  16.593  0.00  0.00    +0.017 A 
ATOM     25  C   UNL     1     -10.692  -8.058  14.610  0.00  0.00    +0.124 A 
ATOM     26  C   UNL     1     -10.084  -7.588  17.228  0.00  0.00    +0.047 A 
ATOM     27  C   UNL     1      -9.488  -8.599  16.491  0.00  0.00    +0.139 A 
BRANCH  27   8
ATOM      8  N   UNL     1      -8.546  -9.399  17.120  0.00  0.00    -0.290 N 
ATOM      9  N   UNL     1      -6.579 -10.305  17.606  0.00  0.00    -0.244 NA
ATOM     29  C   UNL     1      -8.782 -10.281  18.136  0.00  0.00    +0.114 A 
ATOM     30  C   UNL     1      -7.210  -9.447  16.836  0.00  0.00    +0.205 A 
ATOM     31  C   UNL     1      -7.553 -10.828  18.419  0.00  0.00    +0.130 A 
ENDBRANCH  27   8
ENDBRANCH  19  22
ENDBRANCH  10  15
BRANCH   4  14
ATOM     14  C   UNL     1     -11.879  -3.754  10.555  0.00  0.00    +0.124 C 
BRANCH  14  16
ATOM     16  C   UNL     1     -11.359  -4.981   9.855  0.00  0.00    +0.008 A 
ATOM     17  C   UNL     1     -10.240  -4.907   9.024  0.00  0.00    +0.125 A 
ATOM     18  C   UNL     1     -12.007  -6.201  10.045  0.00  0.00    +0.012 A 
ATOM     20  C   UNL     1      -9.772  -6.054   8.383  0.00  0.00    +0.091 A 
ATOM     21  C   UNL     1     -11.537  -7.348   9.403  0.00  0.00    +0.046 A 
ATOM     23  C   UNL     1     -10.419  -7.274   8.572  0.00  0.00    +0.124 A 
BRANCH  17   2
ATOM      2  O   UNL     1      -9.595  -3.723   8.828  0.00  0.00    -0.506 OA
ATOM     32  H   UNL     1     -10.244  -2.999   8.838  0.00  0.00    +0.292 HD
ENDBRANCH  17   2
BRANCH  23   3
ATOM      3  O   UNL     1      -9.962  -8.392   7.948  0.00  0.00    -0.495 OA
ATOM     28  C   UNL     1      -8.551  -8.505   7.769  0.00  0.00    +0.277 C 
ENDBRANCH  23   3
ENDBRANCH  14  16
ENDBRANCH   4  14
TORSDOF 7
ENDMDL
