MODEL 1
REMARK VINA RESULT:      -7.1      0.000      0.000
REMARK  Name = 7165085
REMARK  8 active torsions:
REMARK  status: ('A' for Active; 'I' for Inactive)
REMARK    1  A    between atoms: O_3  and  C_23
REMARK    2  A    between atoms: O_6  and  C_30
REMARK    3  A    between atoms: O_6  and  C_31
REMARK    4  A    between atoms: N_9  and  C_25
REMARK    5  A    between atoms: C_10  and  C_13
REMARK    6  A    between atoms: C_10  and  C_17
REMARK    7  A    between atoms: C_13  and  C_20
REMARK    8  A    between atoms: C_17  and  C_23
REMARK                            x       y       z     vdW  Elec       q    Type
REMARK                         _______ _______ _______ _____ _____    ______ ____
ROOT
ATOM      1  O   UNL     1      -9.312  -7.994  17.587  0.00  0.00    -0.276 OA
ATOM      2  O   UNL     1      -7.651 -10.164  16.121  0.00  0.00    -0.273 OA
ATOM      5  O   UNL     1      -4.936 -12.992  18.719  0.00  0.00    -0.252 OA
ATOM      7  N   UNL     1      -9.551 -10.248  18.051  0.00  0.00    -0.288 N 
ATOM      8  N   UNL     1      -7.011 -12.429  19.414  0.00  0.00    -0.293 N 
ATOM      9  N   UNL     1      -6.222 -11.577  17.343  0.00  0.00    -0.193 N 
ATOM     16  C   UNL     1      -8.161 -10.491  18.442  0.00  0.00    +0.183 C 
ATOM     18  C   UNL     1      -8.263 -11.744  19.287  0.00  0.00    +0.105 C 
ATOM     19  C   UNL     1      -9.360 -12.546  18.590  0.00  0.00    +0.043 C 
ATOM     20  C   UNL     1     -10.023  -8.993  17.703  0.00  0.00    +0.217 C 
ATOM     21  C   UNL     1     -10.357 -11.461  18.201  0.00  0.00    +0.110 C 
ATOM     22  C   UNL     1      -7.338 -10.718  17.177  0.00  0.00    +0.250 C 
ATOM     24  C   UNL     1      -5.987 -12.385  18.487  0.00  0.00    +0.313 C 
ATOM     37  H   UNL     1      -6.870 -13.006  20.237  0.00  0.00    +0.151 HD
ENDROOT
BRANCH   9  25
ATOM     25  C   UNL     1      -5.263 -11.649  16.258  0.00  0.00    +0.046 A 
ATOM     26  C   UNL     1      -5.376 -12.649  15.293  0.00  0.00    +0.027 A 
ATOM     27  C   UNL     1      -4.228 -10.717  16.179  0.00  0.00    +0.027 A 
ATOM     28  C   UNL     1      -4.455 -12.717  14.248  0.00  0.00    +0.048 A 
ATOM     29  C   UNL     1      -3.306 -10.785  15.134  0.00  0.00    +0.048 A 
ATOM     30  C   UNL     1      -3.420 -11.785  14.169  0.00  0.00    +0.129 A 
BRANCH  30   6
ATOM      6  O   UNL     1      -2.522 -11.851  13.149  0.00  0.00    -0.456 OA
BRANCH   6  31
ATOM     31  C   UNL     1      -2.661 -10.947  12.108  0.00  0.00    +0.128 A 
ATOM     32  C   UNL     1      -3.815 -10.960  11.324  0.00  0.00    +0.046 A 
ATOM     33  C   UNL     1      -1.648 -10.026  11.843  0.00  0.00    +0.046 A 
ATOM     34  C   UNL     1      -3.955 -10.051  10.275  0.00  0.00    +0.004 A 
ATOM     35  C   UNL     1      -1.789  -9.117  10.795  0.00  0.00    +0.004 A 
ATOM     36  C   UNL     1      -2.942  -9.130  10.010  0.00  0.00    +0.000 A 
ENDBRANCH   6  31
ENDBRANCH  30   6
ENDBRANCH   9  25
BRANCH  20  13
ATOM     13  C   UNL     1     -11.508  -8.905  17.454  0.00  0.00    +0.103 C 
BRANCH  13  10
ATOM     10  C   UNL     1     -11.773  -8.577  15.979  0.00  0.00    -0.011 C 
ATOM     11  C   UNL     1     -10.437  -8.456  15.206  0.00  0.00    +0.008 C 
ATOM     12  C   UNL     1     -12.534  -9.733  15.290  0.00  0.00    +0.008 C 
ATOM     14  C   UNL     1     -10.586  -9.352  13.983  0.00  0.00    +0.001 C 
ATOM     15  C   UNL     1     -11.484 -10.471  14.472  0.00  0.00    +0.001 C 
BRANCH  10  17
ATOM     17  C   UNL     1     -12.579  -7.276  15.892  0.00  0.00    +0.127 C 
BRANCH  17  23
ATOM      4  O   UNL     1     -11.525  -5.533  14.552  0.00  0.00    -0.251 OA
ATOM     23  C   UNL     1     -11.690  -6.098  15.623  0.00  0.00    +0.305 C 
BRANCH  23   3
ATOM      3  O   UNL     1     -11.070  -5.730  16.773  0.00  0.00    -0.481 OA
ATOM     38  H   UNL     1     -10.340  -6.342  17.007  0.00  0.00    +0.295 HD
ENDBRANCH  23   3
ENDBRANCH  17  23
ENDBRANCH  10  17
ENDBRANCH  13  10
ENDBRANCH  20  13
TORSDOF 8
ENDMDL
MODEL 2
REMARK VINA RESULT:      -7.0     26.589     30.382
REMARK  Name = 7165085
REMARK  8 active torsions:
REMARK  status: ('A' for Active; 'I' for Inactive)
REMARK    1  A    between atoms: O_3  and  C_23
REMARK    2  A    between atoms: O_6  and  C_30
REMARK    3  A    between atoms: O_6  and  C_31
REMARK    4  A    between atoms: N_9  and  C_25
REMARK    5  A    between atoms: C_10  and  C_13
REMARK    6  A    between atoms: C_10  and  C_17
REMARK    7  A    between atoms: C_13  and  C_20
REMARK    8  A    between atoms: C_17  and  C_23
REMARK                            x       y       z     vdW  Elec       q    Type
REMARK                         _______ _______ _______ _____ _____    ______ ____
ROOT
ATOM      1  O   UNL     1      11.350   6.719   0.458  0.00  0.00    -0.276 OA
ATOM      2  O   UNL     1      13.271   6.827   2.891  0.00  0.00    -0.273 OA
ATOM      5  O   UNL     1      11.566   8.414   6.976  0.00  0.00    -0.252 OA
ATOM      7  N   UNL     1      10.917   5.570   2.419  0.00  0.00    -0.288 N 
ATOM      8  N   UNL     1      10.337   7.039   5.671  0.00  0.00    -0.293 N 
ATOM      9  N   UNL     1      12.511   7.666   4.952  0.00  0.00    -0.193 N 
ATOM     16  C   UNL     1      10.909   6.738   3.303  0.00  0.00    +0.183 C 
ATOM     18  C   UNL     1      10.110   6.252   4.495  0.00  0.00    +0.105 C 
ATOM     19  C   UNL     1      10.525   4.787   4.619  0.00  0.00    +0.043 C 
ATOM     20  C   UNL     1      11.087   5.670   1.048  0.00  0.00    +0.217 C 
ATOM     21  C   UNL     1      10.604   4.349   3.162  0.00  0.00    +0.110 C 
ATOM     22  C   UNL     1      12.352   7.067   3.676  0.00  0.00    +0.250 C 
ATOM     24  C   UNL     1      11.495   7.740   5.942  0.00  0.00    +0.313 C 
ATOM     37  H   UNL     1       9.599   7.071   6.366  0.00  0.00    +0.151 HD
ENDROOT
BRANCH   9  25
ATOM     25  C   UNL     1      13.810   8.223   5.275  0.00  0.00    +0.046 A 
ATOM     26  C   UNL     1      14.719   7.482   6.030  0.00  0.00    +0.027 A 
ATOM     27  C   UNL     1      14.151   9.500   4.829  0.00  0.00    +0.027 A 
ATOM     28  C   UNL     1      15.969   8.018   6.338  0.00  0.00    +0.048 A 
ATOM     29  C   UNL     1      15.401  10.037   5.138  0.00  0.00    +0.048 A 
ATOM     30  C   UNL     1      16.310   9.295   5.892  0.00  0.00    +0.129 A 
BRANCH  30   6
ATOM      6  O   UNL     1      17.530   9.817   6.193  0.00  0.00    -0.456 OA
BRANCH   6  31
ATOM     31  C   UNL     1      18.646   9.037   5.938  0.00  0.00    +0.128 A 
ATOM     32  C   UNL     1      18.844   8.498   4.666  0.00  0.00    +0.046 A 
ATOM     33  C   UNL     1      19.570   8.789   6.952  0.00  0.00    +0.046 A 
ATOM     34  C   UNL     1      19.967   7.712   4.410  0.00  0.00    +0.004 A 
ATOM     35  C   UNL     1      20.693   8.002   6.696  0.00  0.00    +0.004 A 
ATOM     36  C   UNL     1      20.891   7.463   5.425  0.00  0.00    +0.000 A 
ENDBRANCH   6  31
ENDBRANCH  30   6
ENDBRANCH   9  25
BRANCH  20  13
ATOM     13  C   UNL     1      10.938   4.380   0.281  0.00  0.00    +0.103 C 
BRANCH  13  10
ATOM     10  C   UNL     1      12.315   3.885  -0.183  0.00  0.00    -0.011 C 
ATOM     11  C   UNL     1      12.166   2.953  -1.409  0.00  0.00    +0.008 C 
ATOM     12  C   UNL     1      13.182   5.067  -0.677  0.00  0.00    +0.008 C 
ATOM     14  C   UNL     1      13.133   3.491  -2.456  0.00  0.00    +0.001 C 
ATOM     15  C   UNL     1      13.139   4.985  -2.196  0.00  0.00    +0.001 C 
BRANCH  10  17
ATOM     17  C   UNL     1      13.005   3.162   0.979  0.00  0.00    +0.127 C 
BRANCH  17  23
ATOM      4  O   UNL     1      15.366   3.546   0.506  0.00  0.00    -0.251 OA
ATOM     23  C   UNL     1      14.384   3.702   1.217  0.00  0.00    +0.305 C 
BRANCH  23   3
ATOM      3  O   UNL     1      14.396   4.415   2.373  0.00  0.00    -0.481 OA
ATOM     38  H   UNL     1      13.513   4.790   2.579  0.00  0.00    +0.295 HD
ENDBRANCH  23   3
ENDBRANCH  17  23
ENDBRANCH  10  17
ENDBRANCH  13  10
ENDBRANCH  20  13
TORSDOF 8
ENDMDL
MODEL 3
REMARK VINA RESULT:      -6.9      1.939      7.717
REMARK  Name = 7165085
REMARK  8 active torsions:
REMARK  status: ('A' for Active; 'I' for Inactive)
REMARK    1  A    between atoms: O_3  and  C_23
REMARK    2  A    between atoms: O_6  and  C_30
REMARK    3  A    between atoms: O_6  and  C_31
REMARK    4  A    between atoms: N_9  and  C_25
REMARK    5  A    between atoms: C_10  and  C_13
REMARK    6  A    between atoms: C_10  and  C_17
REMARK    7  A    between atoms: C_13  and  C_20
REMARK    8  A    between atoms: C_17  and  C_23
REMARK                            x       y       z     vdW  Elec       q    Type
REMARK                         _______ _______ _______ _____ _____    ______ ____
ROOT
ATOM      1  O   UNL     1      -5.993 -13.088  14.777  0.00  0.00    -0.276 OA
ATOM      2  O   UNL     1      -7.535 -10.608  15.820  0.00  0.00    -0.273 OA
ATOM      5  O   UNL     1      -9.439 -10.841  20.114  0.00  0.00    -0.252 OA
ATOM      7  N   UNL     1      -5.385 -11.989  16.720  0.00  0.00    -0.288 N 
ATOM      8  N   UNL     1      -7.383 -11.688  19.718  0.00  0.00    -0.293 N 
ATOM      9  N   UNL     1      -8.569 -10.668  17.932  0.00  0.00    -0.193 N 
ATOM     16  C   UNL     1      -6.659 -12.164  17.422  0.00  0.00    +0.183 C 
ATOM     18  C   UNL     1      -6.267 -12.003  18.876  0.00  0.00    +0.105 C 
ATOM     19  C   UNL     1      -5.181 -10.929  18.828  0.00  0.00    +0.043 C 
ATOM     20  C   UNL     1      -5.144 -12.519  15.463  0.00  0.00    +0.217 C 
ATOM     21  C   UNL     1      -4.409 -11.307  17.570  0.00  0.00    +0.110 C 
ATOM     22  C   UNL     1      -7.615 -11.068  16.961  0.00  0.00    +0.250 C 
ATOM     24  C   UNL     1      -8.525 -11.030  19.305  0.00  0.00    +0.313 C 
ATOM     37  H   UNL     1      -7.325 -11.951  20.696  0.00  0.00    +0.151 HD
ENDROOT
BRANCH   9  25
ATOM     25  C   UNL     1      -9.654  -9.812  17.495  0.00  0.00    +0.046 A 
ATOM     26  C   UNL     1      -9.484  -8.428  17.469  0.00  0.00    +0.027 A 
ATOM     27  C   UNL     1     -10.868 -10.373  17.097  0.00  0.00    +0.027 A 
ATOM     28  C   UNL     1     -10.527  -7.605  17.046  0.00  0.00    +0.048 A 
ATOM     29  C   UNL     1     -11.912  -9.551  16.674  0.00  0.00    +0.048 A 
ATOM     30  C   UNL     1     -11.741  -8.167  16.649  0.00  0.00    +0.129 A 
BRANCH  30   6
ATOM      6  O   UNL     1     -12.760  -7.364  16.235  0.00  0.00    -0.456 OA
BRANCH   6  31
ATOM     31  C   UNL     1     -12.700  -6.860  14.947  0.00  0.00    +0.128 A 
ATOM     32  C   UNL     1     -12.945  -7.699  13.859  0.00  0.00    +0.046 A 
ATOM     33  C   UNL     1     -12.395  -5.515  14.736  0.00  0.00    +0.046 A 
ATOM     34  C   UNL     1     -12.885  -7.192  12.561  0.00  0.00    +0.004 A 
ATOM     35  C   UNL     1     -12.335  -5.009  13.438  0.00  0.00    +0.004 A 
ATOM     36  C   UNL     1     -12.579  -5.847  12.350  0.00  0.00    +0.000 A 
ENDBRANCH   6  31
ENDBRANCH  30   6
ENDBRANCH   9  25
BRANCH  20  13
ATOM     13  C   UNL     1      -3.736 -12.352  14.949  0.00  0.00    +0.103 C 
BRANCH  13  10
ATOM     10  C   UNL     1      -3.719 -11.351  13.786  0.00  0.00    -0.011 C 
ATOM     11  C   UNL     1      -2.314 -10.719  13.640  0.00  0.00    +0.008 C 
ATOM     12  C   UNL     1      -3.980 -12.071  12.442  0.00  0.00    +0.008 C 
ATOM     14  C   UNL     1      -1.939 -10.882  12.172  0.00  0.00    +0.001 C 
ATOM     15  C   UNL     1      -2.615 -12.181  11.777  0.00  0.00    +0.001 C 
BRANCH  10  17
ATOM     17  C   UNL     1      -4.783 -10.276  14.034  0.00  0.00    +0.127 C 
BRANCH  17  23
ATOM      4  O   UNL     1      -5.293  -9.363  11.832  0.00  0.00    -0.251 OA
ATOM     23  C   UNL     1      -5.609 -10.029  12.806  0.00  0.00    +0.305 C 
BRANCH  23   3
ATOM      3  O   UNL     1      -6.799 -10.672  12.927  0.00  0.00    -0.481 OA
ATOM     38  H   UNL     1      -7.553 -10.091  12.693  0.00  0.00    +0.295 HD
ENDBRANCH  23   3
ENDBRANCH  17  23
ENDBRANCH  10  17
ENDBRANCH  13  10
ENDBRANCH  20  13
TORSDOF 8
ENDMDL
MODEL 4
REMARK VINA RESULT:      -6.9      5.288     10.328
REMARK  Name = 7165085
REMARK  8 active torsions:
REMARK  status: ('A' for Active; 'I' for Inactive)
REMARK    1  A    between atoms: O_3  and  C_23
REMARK    2  A    between atoms: O_6  and  C_30
REMARK    3  A    between atoms: O_6  and  C_31
REMARK    4  A    between atoms: N_9  and  C_25
REMARK    5  A    between atoms: C_10  and  C_13
REMARK    6  A    between atoms: C_10  and  C_17
REMARK    7  A    between atoms: C_13  and  C_20
REMARK    8  A    between atoms: C_17  and  C_23
REMARK                            x       y       z     vdW  Elec       q    Type
REMARK                         _______ _______ _______ _____ _____    ______ ____
ROOT
ATOM      1  O   UNL     1      -3.954  -9.160  10.549  0.00  0.00    -0.276 OA
ATOM      2  O   UNL     1      -6.924  -8.819   9.723  0.00  0.00    -0.273 OA
ATOM      5  O   UNL     1      -7.880  -8.112   5.173  0.00  0.00    -0.252 OA
ATOM      7  N   UNL     1      -4.975 -10.566   9.021  0.00  0.00    -0.288 N 
ATOM      8  N   UNL     1      -6.312  -9.612   5.801  0.00  0.00    -0.293 N 
ATOM      9  N   UNL     1      -7.480  -8.401   7.476  0.00  0.00    -0.193 N 
ATOM     16  C   UNL     1      -5.350  -9.529   8.057  0.00  0.00    +0.183 C 
ATOM     18  C   UNL     1      -5.524 -10.312   6.773  0.00  0.00    +0.105 C 
ATOM     19  C   UNL     1      -6.124 -11.634   7.247  0.00  0.00    +0.043 C 
ATOM     20  C   UNL     1      -4.254 -10.293  10.173  0.00  0.00    +0.217 C 
ATOM     21  C   UNL     1      -5.354 -11.894   8.536  0.00  0.00    +0.110 C 
ATOM     22  C   UNL     1      -6.656  -8.892   8.522  0.00  0.00    +0.250 C 
ATOM     24  C   UNL     1      -7.285  -8.677   6.097  0.00  0.00    +0.313 C 
ATOM     37  H   UNL     1      -6.159  -9.832   4.823  0.00  0.00    +0.151 HD
ENDROOT
BRANCH   9  25
ATOM     25  C   UNL     1      -8.612  -7.574   7.845  0.00  0.00    +0.046 A 
ATOM     26  C   UNL     1      -8.429  -6.217   8.107  0.00  0.00    +0.027 A 
ATOM     27  C   UNL     1      -9.886  -8.136   7.935  0.00  0.00    +0.027 A 
ATOM     28  C   UNL     1      -9.518  -5.421   8.459  0.00  0.00    +0.048 A 
ATOM     29  C   UNL     1     -10.976  -7.341   8.287  0.00  0.00    +0.048 A 
ATOM     30  C   UNL     1     -10.792  -5.983   8.549  0.00  0.00    +0.129 A 
BRANCH  30   6
ATOM      6  O   UNL     1     -11.856  -5.207   8.892  0.00  0.00    -0.456 OA
BRANCH   6  31
ATOM     31  C   UNL     1     -12.045  -4.929  10.236  0.00  0.00    +0.128 A 
ATOM     32  C   UNL     1     -12.348  -5.961  11.125  0.00  0.00    +0.046 A 
ATOM     33  C   UNL     1     -11.934  -3.618  10.700  0.00  0.00    +0.046 A 
ATOM     34  C   UNL     1     -12.539  -5.681  12.477  0.00  0.00    +0.004 A 
ATOM     35  C   UNL     1     -12.125  -3.339  12.053  0.00  0.00    +0.004 A 
ATOM     36  C   UNL     1     -12.428  -4.370  12.942  0.00  0.00    +0.000 A 
ENDBRANCH   6  31
ENDBRANCH  30   6
ENDBRANCH   9  25
BRANCH  20  13
ATOM     13  C   UNL     1      -3.846 -11.498  10.982  0.00  0.00    +0.103 C 
BRANCH  13  10
ATOM     10  C   UNL     1      -4.460 -11.418  12.386  0.00  0.00    -0.011 C 
ATOM     11  C   UNL     1      -4.330 -12.780  13.109  0.00  0.00    +0.008 C 
ATOM     12  C   UNL     1      -3.678 -10.417  13.268  0.00  0.00    +0.008 C 
ATOM     14  C   UNL     1      -3.711 -12.469  14.466  0.00  0.00    +0.001 C 
ATOM     15  C   UNL     1      -2.818 -11.277  14.182  0.00  0.00    +0.001 C 
BRANCH  10  17
ATOM     17  C   UNL     1      -5.929 -10.996  12.268  0.00  0.00    +0.127 C 
BRANCH  17  23
ATOM      4  O   UNL     1      -6.430  -9.969  14.421  0.00  0.00    -0.251 OA
ATOM     23  C   UNL     1      -6.255  -9.879  13.215  0.00  0.00    +0.305 C 
BRANCH  23   3
ATOM      3  O   UNL     1      -6.332  -8.712  12.526  0.00  0.00    -0.481 OA
ATOM     38  H   UNL     1      -7.245  -8.528  12.219  0.00  0.00    +0.295 HD
ENDBRANCH  23   3
ENDBRANCH  17  23
ENDBRANCH  10  17
ENDBRANCH  13  10
ENDBRANCH  20  13
TORSDOF 8
ENDMDL
MODEL 5
REMARK VINA RESULT:      -6.8      3.462      6.473
REMARK  Name = 7165085
REMARK  8 active torsions:
REMARK  status: ('A' for Active; 'I' for Inactive)
REMARK    1  A    between atoms: O_3  and  C_23
REMARK    2  A    between atoms: O_6  and  C_30
REMARK    3  A    between atoms: O_6  and  C_31
REMARK    4  A    between atoms: N_9  and  C_25
REMARK    5  A    between atoms: C_10  and  C_13
REMARK    6  A    between atoms: C_10  and  C_17
REMARK    7  A    between atoms: C_13  and  C_20
REMARK    8  A    between atoms: C_17  and  C_23
REMARK                            x       y       z     vdW  Elec       q    Type
REMARK                         _______ _______ _______ _____ _____    ______ ____
ROOT
ATOM      1  O   UNL     1      -7.281  -9.747  15.402  0.00  0.00    -0.276 OA
ATOM      2  O   UNL     1      -6.185 -10.904  12.741  0.00  0.00    -0.273 OA
ATOM      5  O   UNL     1      -1.662 -10.138  11.703  0.00  0.00    -0.252 OA
ATOM      7  N   UNL     1      -5.510 -11.235  15.344  0.00  0.00    -0.288 N 
ATOM      8  N   UNL     1      -2.288 -10.662  13.809  0.00  0.00    -0.293 N 
ATOM      9  N   UNL     1      -3.950 -10.512  12.120  0.00  0.00    -0.193 N 
ATOM     16  C   UNL     1      -4.630 -10.421  14.503  0.00  0.00    +0.183 C 
ATOM     18  C   UNL     1      -3.256 -10.977  14.818  0.00  0.00    +0.105 C 
ATOM     19  C   UNL     1      -3.518 -12.471  15.005  0.00  0.00    +0.043 C 
ATOM     20  C   UNL     1      -6.755 -10.799  15.768  0.00  0.00    +0.217 C 
ATOM     21  C   UNL     1      -4.847 -12.474  15.753  0.00  0.00    +0.110 C 
ATOM     22  C   UNL     1      -5.018 -10.645  13.044  0.00  0.00    +0.250 C 
ATOM     24  C   UNL     1      -2.577 -10.435  12.478  0.00  0.00    +0.313 C 
ATOM     37  H   UNL     1      -1.313 -10.620  14.088  0.00  0.00    +0.151 HD
ENDROOT
BRANCH   9  25
ATOM     25  C   UNL     1      -4.283 -10.471  10.710  0.00  0.00    +0.046 A 
ATOM     26  C   UNL     1      -4.261 -11.643   9.954  0.00  0.00    +0.027 A 
ATOM     27  C   UNL     1      -4.627  -9.260  10.110  0.00  0.00    +0.027 A 
ATOM     28  C   UNL     1      -4.584 -11.604   8.598  0.00  0.00    +0.048 A 
ATOM     29  C   UNL     1      -4.950  -9.220   8.753  0.00  0.00    +0.048 A 
ATOM     30  C   UNL     1      -4.928 -10.392   7.998  0.00  0.00    +0.129 A 
BRANCH  30   6
ATOM      6  O   UNL     1      -5.244 -10.354   6.674  0.00  0.00    -0.456 OA
BRANCH   6  31
ATOM     31  C   UNL     1      -6.535  -9.990   6.330  0.00  0.00    +0.128 A 
ATOM     32  C   UNL     1      -6.749  -8.897   5.489  0.00  0.00    +0.046 A 
ATOM     33  C   UNL     1      -7.620 -10.713   6.824  0.00  0.00    +0.046 A 
ATOM     34  C   UNL     1      -8.049  -8.530   5.142  0.00  0.00    +0.004 A 
ATOM     35  C   UNL     1      -8.920 -10.346   6.477  0.00  0.00    +0.004 A 
ATOM     36  C   UNL     1      -9.135  -9.253   5.637  0.00  0.00    +0.000 A 
ENDBRANCH   6  31
ENDBRANCH  30   6
ENDBRANCH   9  25
BRANCH  20  13
ATOM     13  C   UNL     1      -7.468 -11.713  16.733  0.00  0.00    +0.103 C 
BRANCH  13  10
ATOM     10  C   UNL     1      -7.436 -11.111  18.145  0.00  0.00    -0.011 C 
ATOM     11  C   UNL     1      -7.293 -12.230  19.204  0.00  0.00    +0.008 C 
ATOM     12  C   UNL     1      -6.186 -10.219  18.330  0.00  0.00    +0.008 C 
ATOM     14  C   UNL     1      -6.133 -11.808  20.096  0.00  0.00    +0.001 C 
ATOM     15  C   UNL     1      -5.216 -11.056  19.150  0.00  0.00    +0.001 C 
BRANCH  10  17
ATOM     17  C   UNL     1      -8.715 -10.297  18.372  0.00  0.00    +0.127 C 
BRANCH  17  23
ATOM      4  O   UNL     1     -10.294 -12.030  19.039  0.00  0.00    -0.251 OA
ATOM     23  C   UNL     1      -9.664 -11.013  19.287  0.00  0.00    +0.305 C 
BRANCH  23   3
ATOM      3  O   UNL     1      -9.729 -10.354  20.473  0.00  0.00    -0.481 OA
ATOM     38  H   UNL     1      -9.417 -10.911  21.217  0.00  0.00    +0.295 HD
ENDBRANCH  23   3
ENDBRANCH  17  23
ENDBRANCH  10  17
ENDBRANCH  13  10
ENDBRANCH  20  13
TORSDOF 8
ENDMDL
MODEL 6
REMARK VINA RESULT:      -6.7     26.645     30.295
REMARK  Name = 7165085
REMARK  8 active torsions:
REMARK  status: ('A' for Active; 'I' for Inactive)
REMARK    1  A    between atoms: O_3  and  C_23
REMARK    2  A    between atoms: O_6  and  C_30
REMARK    3  A    between atoms: O_6  and  C_31
REMARK    4  A    between atoms: N_9  and  C_25
REMARK    5  A    between atoms: C_10  and  C_13
REMARK    6  A    between atoms: C_10  and  C_17
REMARK    7  A    between atoms: C_13  and  C_20
REMARK    8  A    between atoms: C_17  and  C_23
REMARK                            x       y       z     vdW  Elec       q    Type
REMARK                         _______ _______ _______ _____ _____    ______ ____
ROOT
ATOM      1  O   UNL     1      11.486   6.626   0.337  0.00  0.00    -0.276 OA
ATOM      2  O   UNL     1      13.356   6.757   2.808  0.00  0.00    -0.273 OA
ATOM      5  O   UNL     1      11.596   8.477   6.816  0.00  0.00    -0.252 OA
ATOM      7  N   UNL     1      10.988   5.535   2.317  0.00  0.00    -0.288 N 
ATOM      8  N   UNL     1      10.368   7.094   5.518  0.00  0.00    -0.293 N 
ATOM      9  N   UNL     1      12.569   7.661   4.832  0.00  0.00    -0.193 N 
ATOM     16  C   UNL     1      10.985   6.724   3.172  0.00  0.00    +0.183 C 
ATOM     18  C   UNL     1      10.151   6.283   4.357  0.00  0.00    +0.105 C 
ATOM     19  C   UNL     1      10.534   4.813   4.526  0.00  0.00    +0.043 C 
ATOM     20  C   UNL     1      11.190   5.597   0.947  0.00  0.00    +0.217 C 
ATOM     21  C   UNL     1      10.636   4.338   3.081  0.00  0.00    +0.110 C 
ATOM     22  C   UNL     1      12.425   7.035   3.568  0.00  0.00    +0.250 C 
ATOM     24  C   UNL     1      11.534   7.779   5.798  0.00  0.00    +0.313 C 
ATOM     37  H   UNL     1       9.616   7.157   6.196  0.00  0.00    +0.151 HD
ENDROOT
BRANCH   9  25
ATOM     25  C   UNL     1      13.871   8.202   5.169  0.00  0.00    +0.046 A 
ATOM     26  C   UNL     1      14.747   7.464   5.965  0.00  0.00    +0.027 A 
ATOM     27  C   UNL     1      14.249   9.458   4.696  0.00  0.00    +0.027 A 
ATOM     28  C   UNL     1      16.001   7.983   6.288  0.00  0.00    +0.048 A 
ATOM     29  C   UNL     1      15.502   9.978   5.019  0.00  0.00    +0.048 A 
ATOM     30  C   UNL     1      16.378   9.240   5.815  0.00  0.00    +0.129 A 
BRANCH  30   6
ATOM      6  O   UNL     1      17.602   9.746   6.129  0.00  0.00    -0.456 OA
BRANCH   6  31
ATOM     31  C   UNL     1      18.709   8.949   5.892  0.00  0.00    +0.128 A 
ATOM     32  C   UNL     1      19.627   8.709   6.916  0.00  0.00    +0.046 A 
ATOM     33  C   UNL     1      18.908   8.387   4.631  0.00  0.00    +0.046 A 
ATOM     34  C   UNL     1      20.742   7.906   6.677  0.00  0.00    +0.004 A 
ATOM     35  C   UNL     1      20.024   7.585   4.393  0.00  0.00    +0.004 A 
ATOM     36  C   UNL     1      20.941   7.345   5.416  0.00  0.00    +0.000 A 
ENDBRANCH   6  31
ENDBRANCH  30   6
ENDBRANCH   9  25
BRANCH  20  13
ATOM     13  C   UNL     1      11.032   4.292   0.209  0.00  0.00    +0.103 C 
BRANCH  13  10
ATOM     10  C   UNL     1      12.408   3.758  -0.211  0.00  0.00    -0.011 C 
ATOM     11  C   UNL     1      13.430   4.917  -0.301  0.00  0.00    +0.008 C 
ATOM     12  C   UNL     1      12.975   2.803   0.864  0.00  0.00    +0.008 C 
ATOM     14  C   UNL     1      14.633   4.470   0.519  0.00  0.00    +0.001 C 
ATOM     15  C   UNL     1      14.018   3.620   1.614  0.00  0.00    +0.001 C 
BRANCH  10  17
ATOM     17  C   UNL     1      12.277   3.035  -1.556  0.00  0.00    +0.127 C 
BRANCH  17  23
ATOM      4  O   UNL     1      11.119   4.705  -2.902  0.00  0.00    -0.251 OA
ATOM     23  C   UNL     1      11.156   3.603  -2.376  0.00  0.00    +0.305 C 
BRANCH  23   3
ATOM      3  O   UNL     1      10.152   2.693  -2.459  0.00  0.00    -0.481 OA
ATOM     38  H   UNL     1       9.340   3.080  -2.848  0.00  0.00    +0.295 HD
ENDBRANCH  23   3
ENDBRANCH  17  23
ENDBRANCH  10  17
ENDBRANCH  13  10
ENDBRANCH  20  13
TORSDOF 8
ENDMDL
MODEL 7
REMARK VINA RESULT:      -6.6      2.096      3.050
REMARK  Name = 7165085
REMARK  8 active torsions:
REMARK  status: ('A' for Active; 'I' for Inactive)
REMARK    1  A    between atoms: O_3  and  C_23
REMARK    2  A    between atoms: O_6  and  C_30
REMARK    3  A    between atoms: O_6  and  C_31
REMARK    4  A    between atoms: N_9  and  C_25
REMARK    5  A    between atoms: C_10  and  C_13
REMARK    6  A    between atoms: C_10  and  C_17
REMARK    7  A    between atoms: C_13  and  C_20
REMARK    8  A    between atoms: C_17  and  C_23
REMARK                            x       y       z     vdW  Elec       q    Type
REMARK                         _______ _______ _______ _____ _____    ______ ____
ROOT
ATOM      1  O   UNL     1     -10.804  -5.808  15.950  0.00  0.00    -0.276 OA
ATOM      2  O   UNL     1      -9.403  -8.482  15.240  0.00  0.00    -0.273 OA
ATOM      5  O   UNL     1      -7.742 -11.105  18.773  0.00  0.00    -0.252 OA
ATOM      7  N   UNL     1     -11.557  -7.842  16.755  0.00  0.00    -0.288 N 
ATOM      8  N   UNL     1      -9.745 -10.075  18.946  0.00  0.00    -0.293 N 
ATOM      9  N   UNL     1      -8.491  -9.820  16.946  0.00  0.00    -0.193 N 
ATOM     16  C   UNL     1     -10.321  -8.223  17.442  0.00  0.00    +0.183 C 
ATOM     18  C   UNL     1     -10.800  -9.235  18.461  0.00  0.00    +0.105 C 
ATOM     19  C   UNL     1     -11.914  -9.974  17.722  0.00  0.00    +0.043 C 
ATOM     20  C   UNL     1     -11.709  -6.628  16.104  0.00  0.00    +0.217 C 
ATOM     21  C   UNL     1     -12.601  -8.846  16.962  0.00  0.00    +0.110 C 
ATOM     22  C   UNL     1      -9.374  -8.844  16.418  0.00  0.00    +0.250 C 
ATOM     24  C   UNL     1      -8.602 -10.396  18.239  0.00  0.00    +0.313 C 
ATOM     37  H   UNL     1      -9.851 -10.479  19.870  0.00  0.00    +0.151 HD
ENDROOT
BRANCH   9  25
ATOM     25  C   UNL     1      -7.409 -10.277  16.095  0.00  0.00    +0.046 A 
ATOM     26  C   UNL     1      -7.610 -11.349  15.226  0.00  0.00    +0.027 A 
ATOM     27  C   UNL     1      -6.168  -9.642  16.144  0.00  0.00    +0.027 A 
ATOM     28  C   UNL     1      -6.571 -11.787  14.407  0.00  0.00    +0.048 A 
ATOM     29  C   UNL     1      -5.128 -10.080  15.325  0.00  0.00    +0.048 A 
ATOM     30  C   UNL     1      -5.329 -11.152  14.456  0.00  0.00    +0.129 A 
BRANCH  30   6
ATOM      6  O   UNL     1      -4.315 -11.579  13.655  0.00  0.00    -0.456 OA
BRANCH   6  31
ATOM     31  C   UNL     1      -3.983 -10.795  12.563  0.00  0.00    +0.128 A 
ATOM     32  C   UNL     1      -4.987 -10.160  11.830  0.00  0.00    +0.046 A 
ATOM     33  C   UNL     1      -2.647 -10.641  12.194  0.00  0.00    +0.046 A 
ATOM     34  C   UNL     1      -4.653  -9.371  10.730  0.00  0.00    +0.004 A 
ATOM     35  C   UNL     1      -2.313  -9.852  11.094  0.00  0.00    +0.004 A 
ATOM     36  C   UNL     1      -3.316  -9.217  10.361  0.00  0.00    +0.000 A 
ENDBRANCH   6  31
ENDBRANCH  30   6
ENDBRANCH   9  25
BRANCH  20  13
ATOM     13  C   UNL     1     -13.090  -6.352  15.564  0.00  0.00    +0.103 C 
BRANCH  13  10
ATOM     10  C   UNL     1     -13.040  -6.233  14.035  0.00  0.00    -0.011 C 
ATOM     11  C   UNL     1     -12.324  -7.460  13.423  0.00  0.00    +0.008 C 
ATOM     12  C   UNL     1     -14.466  -6.258  13.438  0.00  0.00    +0.008 C 
ATOM     14  C   UNL     1     -13.257  -7.983  12.338  0.00  0.00    +0.001 C 
ATOM     15  C   UNL     1     -14.638  -7.661  12.875  0.00  0.00    +0.001 C 
BRANCH  10  17
ATOM     17  C   UNL     1     -12.322  -4.932  13.657  0.00  0.00    +0.127 C 
BRANCH  17  23
ATOM      4  O   UNL     1     -12.945  -4.612  11.322  0.00  0.00    -0.251 OA
ATOM     23  C   UNL     1     -12.986  -4.260  12.491  0.00  0.00    +0.305 C 
BRANCH  23   3
ATOM      3  O   UNL     1     -13.664  -3.168  12.927  0.00  0.00    -0.481 OA
ATOM     38  H   UNL     1     -13.800  -2.512  12.210  0.00  0.00    +0.295 HD
ENDBRANCH  23   3
ENDBRANCH  17  23
ENDBRANCH  10  17
ENDBRANCH  13  10
ENDBRANCH  20  13
TORSDOF 8
ENDMDL
MODEL 8
REMARK VINA RESULT:      -6.5     24.292     28.191
REMARK  Name = 7165085
REMARK  8 active torsions:
REMARK  status: ('A' for Active; 'I' for Inactive)
REMARK    1  A    between atoms: O_3  and  C_23
REMARK    2  A    between atoms: O_6  and  C_30
REMARK    3  A    between atoms: O_6  and  C_31
REMARK    4  A    between atoms: N_9  and  C_25
REMARK    5  A    between atoms: C_10  and  C_13
REMARK    6  A    between atoms: C_10  and  C_17
REMARK    7  A    between atoms: C_13  and  C_20
REMARK    8  A    between atoms: C_17  and  C_23
REMARK                            x       y       z     vdW  Elec       q    Type
REMARK                         _______ _______ _______ _____ _____    ______ ____
ROOT
ATOM      1  O   UNL     1       7.691   5.915   5.327  0.00  0.00    -0.276 OA
ATOM      2  O   UNL     1      10.105   5.906   3.380  0.00  0.00    -0.273 OA
ATOM      5  O   UNL     1       9.829   8.572  -0.485  0.00  0.00    -0.252 OA
ATOM      7  N   UNL     1       8.841   7.848   4.785  0.00  0.00    -0.288 N 
ATOM      8  N   UNL     1       9.079   9.342   1.502  0.00  0.00    -0.293 N 
ATOM      9  N   UNL     1      10.019   7.165   1.394  0.00  0.00    -0.193 N 
ATOM     16  C   UNL     1       8.612   7.784   3.340  0.00  0.00    +0.183 C 
ATOM     18  C   UNL     1       8.809   9.221   2.904  0.00  0.00    +0.105 C 
ATOM     19  C   UNL     1       9.935   9.711   3.814  0.00  0.00    +0.043 C 
ATOM     20  C   UNL     1       8.309   6.924   5.669  0.00  0.00    +0.217 C 
ATOM     21  C   UNL     1       9.581   9.058   5.145  0.00  0.00    +0.110 C 
ATOM     22  C   UNL     1       9.655   6.852   2.729  0.00  0.00    +0.250 C 
ATOM     24  C   UNL     1       9.676   8.369   0.724  0.00  0.00    +0.313 C 
ATOM     37  H   UNL     1       8.831  10.215   1.047  0.00  0.00    +0.151 HD
ENDROOT
BRANCH   9  25
ATOM     25  C   UNL     1      10.815   6.194   0.670  0.00  0.00    +0.046 A 
ATOM     26  C   UNL     1      10.189   5.173  -0.045  0.00  0.00    +0.027 A 
ATOM     27  C   UNL     1      12.207   6.281   0.687  0.00  0.00    +0.027 A 
ATOM     28  C   UNL     1      10.955   4.241  -0.744  0.00  0.00    +0.048 A 
ATOM     29  C   UNL     1      12.974   5.348  -0.011  0.00  0.00    +0.048 A 
ATOM     30  C   UNL     1      12.347   4.328  -0.727  0.00  0.00    +0.129 A 
BRANCH  30   6
ATOM      6  O   UNL     1      13.095   3.418  -1.410  0.00  0.00    -0.456 OA
BRANCH   6  31
ATOM     31  C   UNL     1      13.214   3.580  -2.780  0.00  0.00    +0.128 A 
ATOM     32  C   UNL     1      14.010   4.605  -3.294  0.00  0.00    +0.046 A 
ATOM     33  C   UNL     1      12.540   2.720  -3.646  0.00  0.00    +0.046 A 
ATOM     34  C   UNL     1      14.130   4.769  -4.673  0.00  0.00    +0.004 A 
ATOM     35  C   UNL     1      12.659   2.884  -5.026  0.00  0.00    +0.004 A 
ATOM     36  C   UNL     1      13.454   3.909  -5.540  0.00  0.00    +0.000 A 
ENDBRANCH   6  31
ENDBRANCH  30   6
ENDBRANCH   9  25
BRANCH  20  13
ATOM     13  C   UNL     1       8.540   7.218   7.130  0.00  0.00    +0.103 C 
BRANCH  13  10
ATOM     10  C   UNL     1       9.739   6.410   7.644  0.00  0.00    -0.011 C 
ATOM     11  C   UNL     1       9.436   5.829   9.045  0.00  0.00    +0.008 C 
ATOM     12  C   UNL     1       9.995   5.180   6.743  0.00  0.00    +0.008 C 
ATOM     14  C   UNL     1       9.767   4.344   8.956  0.00  0.00    +0.001 C 
ATOM     15  C   UNL     1       9.437   3.995   7.518  0.00  0.00    +0.001 C 
BRANCH  10  17
ATOM     17  C   UNL     1      10.976   7.316   7.679  0.00  0.00    +0.127 C 
BRANCH  17  23
ATOM      4  O   UNL     1      12.394   6.852   5.751  0.00  0.00    -0.251 OA
ATOM     23  C   UNL     1      12.124   6.703   6.934  0.00  0.00    +0.305 C 
BRANCH  23   3
ATOM      3  O   UNL     1      12.852   5.932   7.783  0.00  0.00    -0.481 OA
ATOM     38  H   UNL     1      12.279   5.422   8.394  0.00  0.00    +0.295 HD
ENDBRANCH  23   3
ENDBRANCH  17  23
ENDBRANCH  10  17
ENDBRANCH  13  10
ENDBRANCH  20  13
TORSDOF 8
ENDMDL
MODEL 9
REMARK VINA RESULT:      -6.3      5.473     10.810
REMARK  Name = 7165085
REMARK  8 active torsions:
REMARK  status: ('A' for Active; 'I' for Inactive)
REMARK    1  A    between atoms: O_3  and  C_23
REMARK    2  A    between atoms: O_6  and  C_30
REMARK    3  A    between atoms: O_6  and  C_31
REMARK    4  A    between atoms: N_9  and  C_25
REMARK    5  A    between atoms: C_10  and  C_13
REMARK    6  A    between atoms: C_10  and  C_17
REMARK    7  A    between atoms: C_13  and  C_20
REMARK    8  A    between atoms: C_17  and  C_23
REMARK                            x       y       z     vdW  Elec       q    Type
REMARK                         _______ _______ _______ _____ _____    ______ ____
ROOT
ATOM      1  O   UNL     1      -4.469  -8.924   8.653  0.00  0.00    -0.276 OA
ATOM      2  O   UNL     1      -7.299  -7.967   9.488  0.00  0.00    -0.273 OA
ATOM      5  O   UNL     1     -10.768  -8.330   6.333  0.00  0.00    -0.252 OA
ATOM      7  N   UNL     1      -6.302 -10.337   8.634  0.00  0.00    -0.288 N 
ATOM      8  N   UNL     1      -9.249  -9.985   6.570  0.00  0.00    -0.293 N 
ATOM      9  N   UNL     1      -9.073  -8.058   7.947  0.00  0.00    -0.193 N 
ATOM     16  C   UNL     1      -7.112  -9.554   7.698  0.00  0.00    +0.183 C 
ATOM     18  C   UNL     1      -8.083 -10.581   7.154  0.00  0.00    +0.105 C 
ATOM     19  C   UNL     1      -8.361 -11.474   8.362  0.00  0.00    +0.043 C 
ATOM     20  C   UNL     1      -5.013  -9.975   8.994  0.00  0.00    +0.217 C 
ATOM     21  C   UNL     1      -6.987 -11.574   9.013  0.00  0.00    +0.110 C 
ATOM     22  C   UNL     1      -7.821  -8.454   8.482  0.00  0.00    +0.250 C 
ATOM     24  C   UNL     1      -9.775  -8.760   6.930  0.00  0.00    +0.313 C 
ATOM     37  H   UNL     1      -9.736 -10.509   5.851  0.00  0.00    +0.151 HD
ENDROOT
BRANCH   9  25
ATOM     25  C   UNL     1      -9.690  -6.864   8.490  0.00  0.00    +0.046 A 
ATOM     26  C   UNL     1     -10.815  -6.970   9.308  0.00  0.00    +0.027 A 
ATOM     27  C   UNL     1      -9.156  -5.609   8.198  0.00  0.00    +0.027 A 
ATOM     28  C   UNL     1     -11.406  -5.822   9.832  0.00  0.00    +0.048 A 
ATOM     29  C   UNL     1      -9.747  -4.460   8.722  0.00  0.00    +0.048 A 
ATOM     30  C   UNL     1     -10.872  -4.566   9.539  0.00  0.00    +0.129 A 
BRANCH  30   6
ATOM      6  O   UNL     1     -11.449  -3.445  10.052  0.00  0.00    -0.456 OA
BRANCH   6  31
ATOM     31  C   UNL     1     -12.503  -3.609  10.935  0.00  0.00    +0.128 A 
ATOM     32  C   UNL     1     -13.816  -3.452  10.489  0.00  0.00    +0.046 A 
ATOM     33  C   UNL     1     -12.253  -3.930  12.269  0.00  0.00    +0.046 A 
ATOM     34  C   UNL     1     -14.878  -3.617  11.378  0.00  0.00    +0.004 A 
ATOM     35  C   UNL     1     -13.315  -4.094  13.158  0.00  0.00    +0.004 A 
ATOM     36  C   UNL     1     -14.628  -3.937  12.713  0.00  0.00    +0.000 A 
ENDBRANCH   6  31
ENDBRANCH  30   6
ENDBRANCH   9  25
BRANCH  20  13
ATOM     13  C   UNL     1      -4.282 -10.966   9.864  0.00  0.00    +0.103 C 
BRANCH  13  10
ATOM     10  C   UNL     1      -4.221 -10.448  11.308  0.00  0.00    -0.011 C 
ATOM     11  C   UNL     1      -5.188  -9.255  11.493  0.00  0.00    +0.008 C 
ATOM     12  C   UNL     1      -4.718 -11.528  12.297  0.00  0.00    +0.008 C 
ATOM     14  C   UNL     1      -6.024  -9.588  12.722  0.00  0.00    +0.001 C 
ATOM     15  C   UNL     1      -6.128 -11.101  12.678  0.00  0.00    +0.001 C 
BRANCH  10  17
ATOM     17  C   UNL     1      -2.778 -10.044  11.635  0.00  0.00    +0.127 C 
BRANCH  17  23
ATOM      4  O   UNL     1      -1.690 -11.931  12.730  0.00  0.00    -0.251 OA
ATOM     23  C   UNL     1      -2.235 -10.839  12.786  0.00  0.00    +0.305 C 
BRANCH  23   3
ATOM      3  O   UNL     1      -2.439 -10.155  13.941  0.00  0.00    -0.481 OA
ATOM     38  H   UNL     1      -2.673 -10.753  14.683  0.00  0.00    +0.295 HD
ENDBRANCH  23   3
ENDBRANCH  17  23
ENDBRANCH  10  17
ENDBRANCH  13  10
ENDBRANCH  20  13
TORSDOF 8
ENDMDL
MODEL 10
REMARK VINA RESULT:      -6.2     26.689     31.314
REMARK  Name = 7165085
REMARK  8 active torsions:
REMARK  status: ('A' for Active; 'I' for Inactive)
REMARK    1  A    between atoms: O_3  and  C_23
REMARK    2  A    between atoms: O_6  and  C_30
REMARK    3  A    between atoms: O_6  and  C_31
REMARK    4  A    between atoms: N_9  and  C_25
REMARK    5  A    between atoms: C_10  and  C_13
REMARK    6  A    between atoms: C_10  and  C_17
REMARK    7  A    between atoms: C_13  and  C_20
REMARK    8  A    between atoms: C_17  and  C_23
REMARK                            x       y       z     vdW  Elec       q    Type
REMARK                         _______ _______ _______ _____ _____    ______ ____
ROOT
ATOM      1  O   UNL     1      12.526   6.490   5.469  0.00  0.00    -0.276 OA
ATOM      2  O   UNL     1      15.311   7.558   6.318  0.00  0.00    -0.273 OA
ATOM      5  O   UNL     1      16.935  11.422   4.186  0.00  0.00    -0.252 OA
ATOM      7  N   UNL     1      12.821   8.625   6.311  0.00  0.00    -0.288 N 
ATOM      8  N   UNL     1      14.766  11.269   4.798  0.00  0.00    -0.293 N 
ATOM      9  N   UNL     1      16.220   9.449   5.256  0.00  0.00    -0.193 N 
ATOM     16  C   UNL     1      13.768   9.082   5.293  0.00  0.00    +0.183 C 
ATOM     18  C   UNL     1      13.639  10.589   5.366  0.00  0.00    +0.105 C 
ATOM     19  C   UNL     1      13.423  10.850   6.856  0.00  0.00    +0.043 C 
ATOM     20  C   UNL     1      12.234   7.370   6.280  0.00  0.00    +0.217 C 
ATOM     21  C   UNL     1      12.506   9.699   7.254  0.00  0.00    +0.110 C 
ATOM     22  C   UNL     1      15.163   8.607   5.687  0.00  0.00    +0.250 C 
ATOM     24  C   UNL     1      16.047  10.757   4.729  0.00  0.00    +0.313 C 
ATOM     37  H   UNL     1      14.618  12.205   4.434  0.00  0.00    +0.151 HD
ENDROOT
BRANCH   9  25
ATOM     25  C   UNL     1      17.574   8.946   5.381  0.00  0.00    +0.046 A 
ATOM     26  C   UNL     1      18.162   8.258   4.321  0.00  0.00    +0.027 A 
ATOM     27  C   UNL     1      18.289   9.154   6.560  0.00  0.00    +0.027 A 
ATOM     28  C   UNL     1      19.465   7.777   4.440  0.00  0.00    +0.048 A 
ATOM     29  C   UNL     1      19.593   8.672   6.680  0.00  0.00    +0.048 A 
ATOM     30  C   UNL     1      20.180   7.983   5.620  0.00  0.00    +0.129 A 
BRANCH  30   6
ATOM      6  O   UNL     1      21.453   7.515   5.736  0.00  0.00    -0.456 OA
BRANCH   6  31
ATOM     31  C   UNL     1      22.473   8.275   5.187  0.00  0.00    +0.128 A 
ATOM     32  C   UNL     1      23.040   7.903   3.968  0.00  0.00    +0.046 A 
ATOM     33  C   UNL     1      22.932   9.411   5.853  0.00  0.00    +0.046 A 
ATOM     34  C   UNL     1      24.067   8.668   3.416  0.00  0.00    +0.004 A 
ATOM     35  C   UNL     1      23.959  10.176   5.301  0.00  0.00    +0.004 A 
ATOM     36  C   UNL     1      24.527   9.804   4.082  0.00  0.00    +0.000 A 
ENDBRANCH   6  31
ENDBRANCH  30   6
ENDBRANCH   9  25
BRANCH  20  13
ATOM     13  C   UNL     1      11.186   7.118   7.335  0.00  0.00    +0.103 C 
BRANCH  13  10
ATOM     10  C   UNL     1       9.820   6.897   6.672  0.00  0.00    -0.011 C 
ATOM     11  C   UNL     1       8.753   7.811   7.321  0.00  0.00    +0.008 C 
ATOM     12  C   UNL     1       9.860   7.317   5.184  0.00  0.00    +0.008 C 
ATOM     14  C   UNL     1       8.064   8.526   6.165  0.00  0.00    +0.001 C 
ATOM     15  C   UNL     1       9.165   8.670   5.132  0.00  0.00    +0.001 C 
BRANCH  10  17
ATOM     17  C   UNL     1       9.432   5.420   6.802  0.00  0.00    +0.127 C 
BRANCH  17  23
ATOM      4  O   UNL     1       9.160   5.300   9.222  0.00  0.00    -0.251 OA
ATOM     23  C   UNL     1       9.684   4.908   8.190  0.00  0.00    +0.305 C 
BRANCH  23   3
ATOM      3  O   UNL     1      10.606   3.913   8.143  0.00  0.00    -0.481 OA
ATOM     38  H   UNL     1      10.494   3.349   7.348  0.00  0.00    +0.295 HD
ENDBRANCH  23   3
ENDBRANCH  17  23
ENDBRANCH  10  17
ENDBRANCH  13  10
ENDBRANCH  20  13
TORSDOF 8
ENDMDL
