MODEL 1
REMARK VINA RESULT:      -5.3      0.000      0.000
REMARK  Name = 25312555
REMARK  11 active torsions:
REMARK  status: ('A' for Active; 'I' for Inactive)
REMARK    1  A    between atoms: O_2  and  C_19
REMARK    2  A    between atoms: N_5  and  C_18
REMARK    3  A    between atoms: N_5  and  C_20
REMARK    4  A    between atoms: N_5  and  C_21
REMARK    5  A    between atoms: C_6  and  C_12
REMARK    6  A    between atoms: C_7  and  C_17
REMARK    7  A    between atoms: C_10  and  C_15
REMARK    8  A    between atoms: C_12  and  C_18
REMARK    9  A    between atoms: C_17  and  C_19
REMARK   10  A    between atoms: C_20  and  C_22
REMARK   11  A    between atoms: C_21  and  C_23
REMARK                            x       y       z     vdW  Elec       q    Type
REMARK                         _______ _______ _______ _____ _____    ______ ____
ROOT
ATOM      1  O   UNL     1     -15.161   5.210  34.604  0.00  0.00    -0.275 OA
ATOM      4  N   UNL     1     -14.066   3.774  33.135  0.00  0.00    -0.301 N 
ATOM      6  C   UNL     1     -14.002   2.418  31.056  0.00  0.00    +0.011 C 
ATOM      7  C   UNL     1     -14.173   1.147  31.925  0.00  0.00    +0.006 C 
ATOM      8  C   UNL     1     -13.337   3.532  31.883  0.00  0.00    +0.111 C 
ATOM      9  C   UNL     1     -14.897   1.457  33.246  0.00  0.00    +0.023 C 
ATOM     11  C   UNL     1     -14.220   2.602  33.994  0.00  0.00    +0.108 C 
ATOM     15  C   UNL     1     -14.573   5.010  33.545  0.00  0.00    +0.219 C 
ENDROOT
BRANCH  15  10
ATOM     10  C   UNL     1     -14.386   6.170  32.619  0.00  0.00    +0.075 C 
ATOM     13  C   UNL     1     -15.553   6.517  31.672  0.00  0.00    +0.013 C 
ATOM     14  C   UNL     1     -14.549   7.585  33.213  0.00  0.00    +0.013 C 
ATOM     16  C   UNL     1     -15.165   7.998  31.860  0.00  0.00    +0.001 C 
ENDBRANCH  15  10
BRANCH   6  12
ATOM     12  C   UNL     1     -15.308   2.926  30.431  0.00  0.00    +0.020 C 
BRANCH  12  18
ATOM     18  C   UNL     1     -15.079   3.397  29.002  0.00  0.00    +0.084 C 
BRANCH  18   5
ATOM      5  N   UNL     1     -16.037   2.754  28.109  0.00  0.00    -0.303 NA
BRANCH   5  20
ATOM     20  C   UNL     1     -16.522   3.703  27.105  0.00  0.00    +0.081 C 
ATOM     22  C   UNL     1     -17.104   4.943  27.761  0.00  0.00    +0.020 C 
ENDBRANCH   5  20
BRANCH   5  21
ATOM     21  C   UNL     1     -17.158   2.200  28.869  0.00  0.00    +0.081 C 
ATOM     23  C   UNL     1     -17.737   0.976  28.181  0.00  0.00    +0.020 C 
ENDBRANCH   5  21
ENDBRANCH  18   5
ENDBRANCH  12  18
ENDBRANCH   6  12
BRANCH   7  17
ATOM     17  C   UNL     1     -14.866   0.002  31.186  0.00  0.00    +0.124 C 
BRANCH  17  19
ATOM      3  O   UNL     1     -14.557  -0.228  28.780  0.00  0.00    -0.251 OA
ATOM     19  C   UNL     1     -14.142  -0.362  29.921  0.00  0.00    +0.305 C 
BRANCH  19   2
ATOM      2  O   UNL     1     -12.921  -0.875  30.224  0.00  0.00    -0.481 OA
ATOM     24  H   UNL     1     -12.532  -1.363  29.467  0.00  0.00    +0.295 HD
ENDBRANCH  19   2
ENDBRANCH  17  19
ENDBRANCH   7  17
TORSDOF 9
ENDMDL
MODEL 2
REMARK VINA RESULT:      -5.2     20.901     24.210
REMARK  Name = 25312555
REMARK  11 active torsions:
REMARK  status: ('A' for Active; 'I' for Inactive)
REMARK    1  A    between atoms: O_2  and  C_19
REMARK    2  A    between atoms: N_5  and  C_18
REMARK    3  A    between atoms: N_5  and  C_20
REMARK    4  A    between atoms: N_5  and  C_21
REMARK    5  A    between atoms: C_6  and  C_12
REMARK    6  A    between atoms: C_7  and  C_17
REMARK    7  A    between atoms: C_10  and  C_15
REMARK    8  A    between atoms: C_12  and  C_18
REMARK    9  A    between atoms: C_17  and  C_19
REMARK   10  A    between atoms: C_20  and  C_22
REMARK   11  A    between atoms: C_21  and  C_23
REMARK                            x       y       z     vdW  Elec       q    Type
REMARK                         _______ _______ _______ _____ _____    ______ ____
ROOT
ATOM      1  O   UNL     1      -1.480  -9.886  12.399  0.00  0.00    -0.275 OA
ATOM      4  N   UNL     1      -2.786 -11.192  13.815  0.00  0.00    -0.301 N 
ATOM      6  C   UNL     1      -4.664 -11.460  15.418  0.00  0.00    +0.011 C 
ATOM      7  C   UNL     1      -3.625 -11.532  16.565  0.00  0.00    +0.006 C 
ATOM      8  C   UNL     1      -4.023 -11.931  14.100  0.00  0.00    +0.111 C 
ATOM      9  C   UNL     1      -2.329 -10.788  16.203  0.00  0.00    +0.023 C 
ATOM     11  C   UNL     1      -1.771 -11.264  14.864  0.00  0.00    +0.108 C 
ATOM     15  C   UNL     1      -2.526 -10.481  12.641  0.00  0.00    +0.219 C 
ENDROOT
BRANCH  15  10
ATOM     10  C   UNL     1      -3.607 -10.444  11.608  0.00  0.00    +0.075 C 
ATOM     13  C   UNL     1      -3.470  -9.404  10.476  0.00  0.00    +0.013 C 
ATOM     14  C   UNL     1      -3.578 -11.528  10.511  0.00  0.00    +0.013 C 
ATOM     16  C   UNL     1      -4.107 -10.452   9.540  0.00  0.00    +0.001 C 
ENDBRANCH  15  10
BRANCH   6  12
ATOM     12  C   UNL     1      -5.296 -10.074  15.237  0.00  0.00    +0.020 C 
BRANCH  12  18
ATOM     18  C   UNL     1      -6.816 -10.168  15.219  0.00  0.00    +0.084 C 
BRANCH  18   5
ATOM      5  N   UNL     1      -7.295 -10.676  16.500  0.00  0.00    -0.303 NA
BRANCH   5  20
ATOM     20  C   UNL     1      -8.468 -11.530  16.308  0.00  0.00    +0.081 C 
ATOM     22  C   UNL     1      -8.155 -12.977  16.654  0.00  0.00    +0.020 C 
ENDBRANCH   5  20
BRANCH   5  21
ATOM     21  C   UNL     1      -7.614  -9.571  17.406  0.00  0.00    +0.081 C 
ATOM     23  C   UNL     1      -8.764  -8.736  16.869  0.00  0.00    +0.020 C 
ENDBRANCH   5  21
ENDBRANCH  18   5
ENDBRANCH  12  18
ENDBRANCH   6  12
BRANCH   7  17
ATOM     17  C   UNL     1      -4.173 -11.040  17.905  0.00  0.00    +0.124 C 
BRANCH  17  19
ATOM      3  O   UNL     1      -3.371 -12.212  19.886  0.00  0.00    -0.251 OA
ATOM     19  C   UNL     1      -4.147 -12.123  18.947  0.00  0.00    +0.305 C 
BRANCH  19   2
ATOM      2  O   UNL     1      -5.136 -13.021  18.697  0.00  0.00    -0.481 OA
ATOM     24  H   UNL     1      -6.017 -12.592  18.657  0.00  0.00    +0.295 HD
ENDBRANCH  19   2
ENDBRANCH  17  19
ENDBRANCH   7  17
TORSDOF 9
ENDMDL
MODEL 3
REMARK VINA RESULT:      -4.8     10.203     12.988
REMARK  Name = 25312555
REMARK  11 active torsions:
REMARK  status: ('A' for Active; 'I' for Inactive)
REMARK    1  A    between atoms: O_2  and  C_19
REMARK    2  A    between atoms: N_5  and  C_18
REMARK    3  A    between atoms: N_5  and  C_20
REMARK    4  A    between atoms: N_5  and  C_21
REMARK    5  A    between atoms: C_6  and  C_12
REMARK    6  A    between atoms: C_7  and  C_17
REMARK    7  A    between atoms: C_10  and  C_15
REMARK    8  A    between atoms: C_12  and  C_18
REMARK    9  A    between atoms: C_17  and  C_19
REMARK   10  A    between atoms: C_20  and  C_22
REMARK   11  A    between atoms: C_21  and  C_23
REMARK                            x       y       z     vdW  Elec       q    Type
REMARK                         _______ _______ _______ _____ _____    ______ ____
ROOT
ATOM      1  O   UNL     1      -9.819   9.297  17.694  0.00  0.00    -0.275 OA
ATOM      4  N   UNL     1     -11.878   8.628  18.550  0.00  0.00    -0.301 N 
ATOM      6  C   UNL     1     -13.546   8.530  20.387  0.00  0.00    +0.011 C 
ATOM      7  C   UNL     1     -13.143   7.052  20.624  0.00  0.00    +0.006 C 
ATOM      8  C   UNL     1     -13.267   8.921  18.925  0.00  0.00    +0.111 C 
ATOM      9  C   UNL     1     -11.698   6.781  20.172  0.00  0.00    +0.023 C 
ATOM     11  C   UNL     1     -11.472   7.236  18.732  0.00  0.00    +0.108 C 
ATOM     15  C   UNL     1     -10.973   9.555  18.028  0.00  0.00    +0.219 C 
ENDROOT
BRANCH  15  10
ATOM     10  C   UNL     1     -11.448  10.964  17.869  0.00  0.00    +0.075 C 
ATOM     13  C   UNL     1     -11.309  11.901  19.086  0.00  0.00    +0.013 C 
ATOM     14  C   UNL     1     -10.529  11.942  17.108  0.00  0.00    +0.013 C 
ATOM     16  C   UNL     1     -11.013  13.035  18.083  0.00  0.00    +0.001 C 
ENDBRANCH  15  10
BRANCH   6  12
ATOM     12  C   UNL     1     -12.869   9.521  21.342  0.00  0.00    +0.020 C 
BRANCH  12  18
ATOM     18  C   UNL     1     -13.821  10.646  21.722  0.00  0.00    +0.084 C 
BRANCH  18   5
ATOM      5  N   UNL     1     -13.662  10.974  23.134  0.00  0.00    -0.303 NA
BRANCH   5  20
ATOM     20  C   UNL     1     -12.286  11.392  23.413  0.00  0.00    +0.081 C 
ATOM     22  C   UNL     1     -11.892  11.061  24.843  0.00  0.00    +0.020 C 
ENDBRANCH   5  20
BRANCH   5  21
ATOM     21  C   UNL     1     -14.026   9.831  23.973  0.00  0.00    +0.081 C 
ATOM     23  C   UNL     1     -15.500   9.867  24.339  0.00  0.00    +0.020 C 
ENDBRANCH   5  21
ENDBRANCH  18   5
ENDBRANCH  12  18
ENDBRANCH   6  12
BRANCH   7  17
ATOM     17  C   UNL     1     -13.351   6.596  22.068  0.00  0.00    +0.124 C 
BRANCH  17  19
ATOM      3  O   UNL     1     -14.553   4.498  21.766  0.00  0.00    -0.251 OA
ATOM     19  C   UNL     1     -13.571   5.112  22.155  0.00  0.00    +0.305 C 
BRANCH  19   2
ATOM      2  O   UNL     1     -12.497   4.523  22.742  0.00  0.00    -0.481 OA
ATOM     24  H   UNL     1     -12.747   4.037  23.556  0.00  0.00    +0.295 HD
ENDBRANCH  19   2
ENDBRANCH  17  19
ENDBRANCH   7  17
TORSDOF 9
ENDMDL
MODEL 4
REMARK VINA RESULT:      -4.7     19.858     22.887
REMARK  Name = 25312555
REMARK  11 active torsions:
REMARK  status: ('A' for Active; 'I' for Inactive)
REMARK    1  A    between atoms: O_2  and  C_19
REMARK    2  A    between atoms: N_5  and  C_18
REMARK    3  A    between atoms: N_5  and  C_20
REMARK    4  A    between atoms: N_5  and  C_21
REMARK    5  A    between atoms: C_6  and  C_12
REMARK    6  A    between atoms: C_7  and  C_17
REMARK    7  A    between atoms: C_10  and  C_15
REMARK    8  A    between atoms: C_12  and  C_18
REMARK    9  A    between atoms: C_17  and  C_19
REMARK   10  A    between atoms: C_20  and  C_22
REMARK   11  A    between atoms: C_21  and  C_23
REMARK                            x       y       z     vdW  Elec       q    Type
REMARK                         _______ _______ _______ _____ _____    ______ ____
ROOT
ATOM      1  O   UNL     1      -7.946 -11.343  19.037  0.00  0.00    -0.275 OA
ATOM      4  N   UNL     1      -6.389 -10.325  17.638  0.00  0.00    -0.301 N 
ATOM      6  C   UNL     1      -5.029 -10.279  15.560  0.00  0.00    +0.011 C 
ATOM      7  C   UNL     1      -3.788 -10.655  16.409  0.00  0.00    +0.006 C 
ATOM      8  C   UNL     1      -6.060  -9.546  16.437  0.00  0.00    +0.111 C 
ATOM      9  C   UNL     1      -4.184 -11.426  17.679  0.00  0.00    +0.023 C 
ATOM     11  C   UNL     1      -5.245 -10.673  18.478  0.00  0.00    +0.108 C 
ATOM     15  C   UNL     1      -7.676 -10.712  18.019  0.00  0.00    +0.219 C 
ENDROOT
BRANCH  15  10
ATOM     10  C   UNL     1      -8.804 -10.329  17.114  0.00  0.00    +0.075 C 
ATOM     13  C   UNL     1     -10.131 -11.100  17.269  0.00  0.00    +0.013 C 
ATOM     14  C   UNL     1      -9.594  -9.051  17.467  0.00  0.00    +0.013 C 
ATOM     16  C   UNL     1     -10.851  -9.775  16.941  0.00  0.00    +0.001 C 
ENDBRANCH  15  10
BRANCH   6  12
ATOM     12  C   UNL     1      -5.684 -11.471  14.851  0.00  0.00    +0.020 C 
BRANCH  12  18
ATOM     18  C   UNL     1      -6.453 -11.015  13.619  0.00  0.00    +0.084 C 
BRANCH  18   5
ATOM      5  N   UNL     1      -5.601 -10.169  12.790  0.00  0.00    -0.303 NA
BRANCH   5  20
ATOM     20  C   UNL     1      -6.376  -9.070  12.210  0.00  0.00    +0.081 C 
ATOM     22  C   UNL     1      -7.091  -9.512  10.944  0.00  0.00    +0.020 C 
ENDBRANCH   5  20
BRANCH   5  21
ATOM     21  C   UNL     1      -4.966 -10.957  11.732  0.00  0.00    +0.081 C 
ATOM     23  C   UNL     1      -3.506 -10.574  11.564  0.00  0.00    +0.020 C 
ENDBRANCH   5  21
ENDBRANCH  18   5
ENDBRANCH  12  18
ENDBRANCH   6  12
BRANCH   7  17
ATOM     17  C   UNL     1      -2.730 -11.426  15.618  0.00  0.00    +0.124 C 
BRANCH  17  19
ATOM      3  O   UNL     1      -1.456  -9.922  14.185  0.00  0.00    -0.251 OA
ATOM     19  C   UNL     1      -1.577 -10.544  15.229  0.00  0.00    +0.305 C 
BRANCH  19   2
ATOM      2  O   UNL     1      -0.655 -10.529  16.228  0.00  0.00    -0.481 OA
ATOM     24  H   UNL     1       0.160 -11.014  15.980  0.00  0.00    +0.295 HD
ENDBRANCH  19   2
ENDBRANCH  17  19
ENDBRANCH   7  17
TORSDOF 9
ENDMDL
MODEL 5
REMARK VINA RESULT:      -4.6     35.963     37.689
REMARK  Name = 25312555
REMARK  11 active torsions:
REMARK  status: ('A' for Active; 'I' for Inactive)
REMARK    1  A    between atoms: O_2  and  C_19
REMARK    2  A    between atoms: N_5  and  C_18
REMARK    3  A    between atoms: N_5  and  C_20
REMARK    4  A    between atoms: N_5  and  C_21
REMARK    5  A    between atoms: C_6  and  C_12
REMARK    6  A    between atoms: C_7  and  C_17
REMARK    7  A    between atoms: C_10  and  C_15
REMARK    8  A    between atoms: C_12  and  C_18
REMARK    9  A    between atoms: C_17  and  C_19
REMARK   10  A    between atoms: C_20  and  C_22
REMARK   11  A    between atoms: C_21  and  C_23
REMARK                            x       y       z     vdW  Elec       q    Type
REMARK                         _______ _______ _______ _____ _____    ______ ____
ROOT
ATOM      1  O   UNL     1       7.400   8.902   2.384  0.00  0.00    -0.275 OA
ATOM      4  N   UNL     1       9.061   8.250   3.879  0.00  0.00    -0.301 N 
ATOM      6  C   UNL     1      10.681   6.577   4.742  0.00  0.00    +0.011 C 
ATOM      7  C   UNL     1       9.725   6.324   5.936  0.00  0.00    +0.006 C 
ATOM      8  C   UNL     1      10.473   8.002   4.198  0.00  0.00    +0.111 C 
ATOM      9  C   UNL     1       8.266   6.643   5.570  0.00  0.00    +0.023 C 
ATOM     11  C   UNL     1       8.134   8.049   4.990  0.00  0.00    +0.108 C 
ATOM     15  C   UNL     1       8.580   8.673   2.637  0.00  0.00    +0.219 C 
ENDROOT
BRANCH  15  10
ATOM     10  C   UNL     1       9.579   8.857   1.540  0.00  0.00    +0.075 C 
ATOM     13  C   UNL     1       9.677   7.744   0.476  0.00  0.00    +0.013 C 
ATOM     14  C   UNL     1       9.203   9.816   0.391  0.00  0.00    +0.013 C 
ATOM     16  C   UNL     1       9.959   8.858  -0.553  0.00  0.00    +0.001 C 
ENDBRANCH  15  10
BRANCH   6  12
ATOM     12  C   UNL     1      10.549   5.550   3.610  0.00  0.00    +0.020 C 
BRANCH  12  18
ATOM     18  C   UNL     1      11.801   5.534   2.744  0.00  0.00    +0.084 C 
BRANCH  18   5
ATOM      5  N   UNL     1      11.841   4.308   1.955  0.00  0.00    -0.303 NA
BRANCH   5  20
ATOM     20  C   UNL     1      13.009   4.303   1.072  0.00  0.00    +0.081 C 
ATOM     22  C   UNL     1      14.109   3.410   1.622  0.00  0.00    +0.020 C 
ENDBRANCH   5  20
BRANCH   5  21
ATOM     21  C   UNL     1      10.612   4.158   1.174  0.00  0.00    +0.081 C 
ATOM     23  C   UNL     1      10.857   4.451  -0.297  0.00  0.00    +0.020 C 
ENDBRANCH   5  21
ENDBRANCH  18   5
ENDBRANCH  12  18
ENDBRANCH   6  12
BRANCH   7  17
ATOM     17  C   UNL     1       9.841   4.911   6.509  0.00  0.00    +0.124 C 
BRANCH  17  19
ATOM      3  O   UNL     1       9.676   5.870   8.743  0.00  0.00    -0.251 OA
ATOM     19  C   UNL     1       9.928   4.927   8.009  0.00  0.00    +0.305 C 
BRANCH  19   2
ATOM      2  O   UNL     1      10.338   3.711   8.456  0.00  0.00    -0.481 OA
ATOM     24  H   UNL     1      10.871   3.236   7.784  0.00  0.00    +0.295 HD
ENDBRANCH  19   2
ENDBRANCH  17  19
ENDBRANCH   7  17
TORSDOF 9
ENDMDL
MODEL 6
REMARK VINA RESULT:      -4.6     20.508     23.864
REMARK  Name = 25312555
REMARK  11 active torsions:
REMARK  status: ('A' for Active; 'I' for Inactive)
REMARK    1  A    between atoms: O_2  and  C_19
REMARK    2  A    between atoms: N_5  and  C_18
REMARK    3  A    between atoms: N_5  and  C_20
REMARK    4  A    between atoms: N_5  and  C_21
REMARK    5  A    between atoms: C_6  and  C_12
REMARK    6  A    between atoms: C_7  and  C_17
REMARK    7  A    between atoms: C_10  and  C_15
REMARK    8  A    between atoms: C_12  and  C_18
REMARK    9  A    between atoms: C_17  and  C_19
REMARK   10  A    between atoms: C_20  and  C_22
REMARK   11  A    between atoms: C_21  and  C_23
REMARK                            x       y       z     vdW  Elec       q    Type
REMARK                         _______ _______ _______ _____ _____    ______ ____
ROOT
ATOM      1  O   UNL     1      -7.622 -11.361  12.639  0.00  0.00    -0.275 OA
ATOM      4  N   UNL     1      -6.893 -10.452  14.653  0.00  0.00    -0.301 N 
ATOM      6  C   UNL     1      -5.375 -10.446  16.619  0.00  0.00    +0.011 C 
ATOM      7  C   UNL     1      -6.541 -11.005  17.473  0.00  0.00    +0.006 C 
ATOM      8  C   UNL     1      -5.935  -9.651  15.426  0.00  0.00    +0.111 C 
ATOM      9  C   UNL     1      -7.543 -11.795  16.614  0.00  0.00    +0.023 C 
ATOM     11  C   UNL     1      -8.022 -10.971  15.422  0.00  0.00    +0.108 C 
ATOM     15  C   UNL     1      -6.804 -10.711  13.283  0.00  0.00    +0.219 C 
ENDROOT
BRANCH  15  10
ATOM     10  C   UNL     1      -5.623 -10.154  12.554  0.00  0.00    +0.075 C 
ATOM     13  C   UNL     1      -5.186 -10.871  11.259  0.00  0.00    +0.013 C 
ATOM     14  C   UNL     1      -5.851  -8.896  11.690  0.00  0.00    +0.013 C 
ATOM     16  C   UNL     1      -4.816  -9.479  10.705  0.00  0.00    +0.001 C 
ENDBRANCH  15  10
BRANCH   6  12
ATOM     12  C   UNL     1      -4.391 -11.517  16.130  0.00  0.00    +0.020 C 
BRANCH  12  18
ATOM     18  C   UNL     1      -2.953 -11.045  16.289  0.00  0.00    +0.084 C 
BRANCH  18   5
ATOM      5  N   UNL     1      -2.172 -11.435  15.120  0.00  0.00    -0.303 NA
BRANCH   5  20
ATOM     20  C   UNL     1      -1.711 -10.252  14.391  0.00  0.00    +0.081 C 
ATOM     22  C   UNL     1      -1.907 -10.421  12.893  0.00  0.00    +0.020 C 
ENDBRANCH   5  20
BRANCH   5  21
ATOM     21  C   UNL     1      -2.959 -12.300  14.240  0.00  0.00    +0.081 C 
ATOM     23  C   UNL     1      -2.345 -13.686  14.139  0.00  0.00    +0.020 C 
ENDBRANCH   5  21
ENDBRANCH  18   5
ENDBRANCH  12  18
ENDBRANCH   6  12
BRANCH   7  17
ATOM     17  C   UNL     1      -6.068 -11.846  18.659  0.00  0.00    +0.124 C 
BRANCH  17  19
ATOM      3  O   UNL     1      -5.779 -11.411  21.039  0.00  0.00    -0.251 OA
ATOM     19  C   UNL     1      -6.294 -11.139  19.966  0.00  0.00    +0.305 C 
BRANCH  19   2
ATOM      2  O   UNL     1      -7.176 -10.121  19.788  0.00  0.00    -0.481 OA
ATOM     24  H   UNL     1      -6.962  -9.586  18.994  0.00  0.00    +0.295 HD
ENDBRANCH  19   2
ENDBRANCH  17  19
ENDBRANCH   7  17
TORSDOF 9
ENDMDL
MODEL 7
REMARK VINA RESULT:      -4.6     21.010     23.656
REMARK  Name = 25312555
REMARK  11 active torsions:
REMARK  status: ('A' for Active; 'I' for Inactive)
REMARK    1  A    between atoms: O_2  and  C_19
REMARK    2  A    between atoms: N_5  and  C_18
REMARK    3  A    between atoms: N_5  and  C_20
REMARK    4  A    between atoms: N_5  and  C_21
REMARK    5  A    between atoms: C_6  and  C_12
REMARK    6  A    between atoms: C_7  and  C_17
REMARK    7  A    between atoms: C_10  and  C_15
REMARK    8  A    between atoms: C_12  and  C_18
REMARK    9  A    between atoms: C_17  and  C_19
REMARK   10  A    between atoms: C_20  and  C_22
REMARK   11  A    between atoms: C_21  and  C_23
REMARK                            x       y       z     vdW  Elec       q    Type
REMARK                         _______ _______ _______ _____ _____    ______ ____
ROOT
ATOM      1  O   UNL     1      -3.520 -11.963  18.864  0.00  0.00    -0.275 OA
ATOM      4  N   UNL     1      -3.877 -10.771  16.896  0.00  0.00    -0.301 N 
ATOM      6  C   UNL     1      -4.727 -10.614  14.568  0.00  0.00    +0.011 C 
ATOM      7  C   UNL     1      -3.262 -10.696  14.069  0.00  0.00    +0.006 C 
ATOM      8  C   UNL     1      -4.762 -10.028  15.991  0.00  0.00    +0.111 C 
ATOM      9  C   UNL     1      -2.363 -11.440  15.070  0.00  0.00    +0.023 C 
ATOM     11  C   UNL     1      -2.481 -10.844  16.471  0.00  0.00    +0.108 C 
ATOM     15  C   UNL     1      -4.270 -11.363  18.100  0.00  0.00    +0.219 C 
ENDROOT
BRANCH  15  10
ATOM     10  C   UNL     1      -5.713 -11.257  18.478  0.00  0.00    +0.075 C 
ATOM     13  C   UNL     1      -6.568 -12.537  18.380  0.00  0.00    +0.013 C 
ATOM     14  C   UNL     1      -6.053 -11.237  19.982  0.00  0.00    +0.013 C 
ATOM     16  C   UNL     1      -7.325 -12.036  19.627  0.00  0.00    +0.001 C 
ENDBRANCH  15  10
BRANCH   6  12
ATOM     12  C   UNL     1      -5.476 -11.952  14.525  0.00  0.00    +0.020 C 
BRANCH  12  18
ATOM     18  C   UNL     1      -6.675 -11.873  13.590  0.00  0.00    +0.084 C 
BRANCH  18   5
ATOM      5  N   UNL     1      -7.383 -10.615  13.800  0.00  0.00    -0.303 NA
BRANCH   5  20
ATOM     20  C   UNL     1      -8.552 -10.820  14.658  0.00  0.00    +0.081 C 
ATOM     22  C   UNL     1      -8.447 -10.000  15.933  0.00  0.00    +0.020 C 
ENDBRANCH   5  20
BRANCH   5  21
ATOM     21  C   UNL     1      -7.788 -10.032  12.520  0.00  0.00    +0.081 C 
ATOM     23  C   UNL     1      -6.728  -9.081  11.991  0.00  0.00    +0.020 C 
ENDBRANCH   5  21
ENDBRANCH  18   5
ENDBRANCH  12  18
ENDBRANCH   6  12
BRANCH   7  17
ATOM     17  C   UNL     1      -3.136 -11.309  12.674  0.00  0.00    +0.124 C 
BRANCH  17  19
ATOM      3  O   UNL     1      -3.344  -9.842  10.739  0.00  0.00    -0.251 OA
ATOM     19  C   UNL     1      -2.683 -10.295  11.661  0.00  0.00    +0.305 C 
BRANCH  19   2
ATOM      2  O   UNL     1      -1.398  -9.936  11.916  0.00  0.00    -0.481 OA
ATOM     24  H   UNL     1      -0.774 -10.331  11.272  0.00  0.00    +0.295 HD
ENDBRANCH  19   2
ENDBRANCH  17  19
ENDBRANCH   7  17
TORSDOF 9
ENDMDL
MODEL 8
REMARK VINA RESULT:      -4.5     13.359     15.709
REMARK  Name = 25312555
REMARK  11 active torsions:
REMARK  status: ('A' for Active; 'I' for Inactive)
REMARK    1  A    between atoms: O_2  and  C_19
REMARK    2  A    between atoms: N_5  and  C_18
REMARK    3  A    between atoms: N_5  and  C_20
REMARK    4  A    between atoms: N_5  and  C_21
REMARK    5  A    between atoms: C_6  and  C_12
REMARK    6  A    between atoms: C_7  and  C_17
REMARK    7  A    between atoms: C_10  and  C_15
REMARK    8  A    between atoms: C_12  and  C_18
REMARK    9  A    between atoms: C_17  and  C_19
REMARK   10  A    between atoms: C_20  and  C_22
REMARK   11  A    between atoms: C_21  and  C_23
REMARK                            x       y       z     vdW  Elec       q    Type
REMARK                         _______ _______ _______ _____ _____    ______ ____
ROOT
ATOM      1  O   UNL     1     -13.788   8.763  20.868  0.00  0.00    -0.275 OA
ATOM      4  N   UNL     1     -11.766   8.819  19.717  0.00  0.00    -0.301 N 
ATOM      6  C   UNL     1     -10.227   9.854  18.065  0.00  0.00    +0.011 C 
ATOM      7  C   UNL     1     -10.577   8.712  17.079  0.00  0.00    +0.006 C 
ATOM      8  C   UNL     1     -10.421   9.373  19.515  0.00  0.00    +0.111 C 
ATOM      9  C   UNL     1     -11.973   8.130  17.360  0.00  0.00    +0.023 C 
ATOM     11  C   UNL     1     -12.119   7.719  18.823  0.00  0.00    +0.108 C 
ATOM     15  C   UNL     1     -12.674   9.247  20.689  0.00  0.00    +0.219 C 
ENDROOT
BRANCH  15  10
ATOM     10  C   UNL     1     -12.254  10.380  21.570  0.00  0.00    +0.075 C 
ATOM     13  C   UNL     1     -13.018  11.712  21.427  0.00  0.00    +0.013 C 
ATOM     14  C   UNL     1     -12.731  10.352  23.037  0.00  0.00    +0.013 C 
ATOM     16  C   UNL     1     -12.843  11.888  22.949  0.00  0.00    +0.001 C 
ENDBRANCH  15  10
BRANCH   6  12
ATOM     12  C   UNL     1     -11.014  11.149  17.824  0.00  0.00    +0.020 C 
BRANCH  12  18
ATOM     18  C   UNL     1     -10.074  12.307  17.521  0.00  0.00    +0.084 C 
BRANCH  18   5
ATOM      5  N   UNL     1      -9.902  12.441  16.078  0.00  0.00    -0.303 NA
BRANCH   5  20
ATOM     20  C   UNL     1      -8.655  13.144  15.772  0.00  0.00    +0.081 C 
ATOM     22  C   UNL     1      -8.023  13.714  17.030  0.00  0.00    +0.020 C 
ENDBRANCH   5  20
BRANCH   5  21
ATOM     21  C   UNL     1     -11.041  13.145  15.487  0.00  0.00    +0.081 C 
ATOM     23  C   UNL     1     -11.294  12.681  14.063  0.00  0.00    +0.020 C 
ENDBRANCH   5  21
ENDBRANCH  18   5
ENDBRANCH  12  18
ENDBRANCH   6  12
BRANCH   7  17
ATOM     17  C   UNL     1     -10.450   9.123  15.612  0.00  0.00    +0.124 C 
BRANCH  17  19
ATOM      3  O   UNL     1     -11.766   8.040  13.871  0.00  0.00    -0.251 OA
ATOM     19  C   UNL     1     -10.858   8.011  14.687  0.00  0.00    +0.305 C 
BRANCH  19   2
ATOM      2  O   UNL     1     -10.054   6.934  14.884  0.00  0.00    -0.481 OA
ATOM     24  H   UNL     1      -9.929   6.416  14.060  0.00  0.00    +0.295 HD
ENDBRANCH  19   2
ENDBRANCH  17  19
ENDBRANCH   7  17
TORSDOF 9
ENDMDL
MODEL 9
REMARK VINA RESULT:      -4.4     18.172     21.026
REMARK  Name = 25312555
REMARK  11 active torsions:
REMARK  status: ('A' for Active; 'I' for Inactive)
REMARK    1  A    between atoms: O_2  and  C_19
REMARK    2  A    between atoms: N_5  and  C_18
REMARK    3  A    between atoms: N_5  and  C_20
REMARK    4  A    between atoms: N_5  and  C_21
REMARK    5  A    between atoms: C_6  and  C_12
REMARK    6  A    between atoms: C_7  and  C_17
REMARK    7  A    between atoms: C_10  and  C_15
REMARK    8  A    between atoms: C_12  and  C_18
REMARK    9  A    between atoms: C_17  and  C_19
REMARK   10  A    between atoms: C_20  and  C_22
REMARK   11  A    between atoms: C_21  and  C_23
REMARK                            x       y       z     vdW  Elec       q    Type
REMARK                         _______ _______ _______ _____ _____    ______ ____
ROOT
ATOM      1  O   UNL     1      -6.520 -12.307  15.162  0.00  0.00    -0.275 OA
ATOM      4  N   UNL     1      -7.248 -10.244  15.959  0.00  0.00    -0.301 N 
ATOM      6  C   UNL     1      -8.843  -8.848  17.253  0.00  0.00    +0.011 C 
ATOM      7  C   UNL     1      -9.453  -8.370  15.912  0.00  0.00    +0.006 C 
ATOM      8  C   UNL     1      -7.375  -9.261  17.043  0.00  0.00    +0.111 C 
ATOM      9  C   UNL     1      -9.253  -9.409  14.796  0.00  0.00    +0.023 C 
ATOM     11  C   UNL     1      -7.787  -9.814  14.671  0.00  0.00    +0.108 C 
ATOM     15  C   UNL     1      -6.644 -11.499  16.078  0.00  0.00    +0.219 C 
ENDROOT
BRANCH  15  10
ATOM     10  C   UNL     1      -6.115 -11.882  17.424  0.00  0.00    +0.075 C 
ATOM     13  C   UNL     1      -5.640 -13.337  17.611  0.00  0.00    +0.013 C 
ATOM     14  C   UNL     1      -4.676 -11.448  17.770  0.00  0.00    +0.013 C 
ATOM     16  C   UNL     1      -4.542 -12.778  18.539  0.00  0.00    +0.001 C 
ENDBRANCH  15  10
BRANCH   6  12
ATOM     12  C   UNL     1      -9.625  -9.985  17.923  0.00  0.00    +0.020 C 
BRANCH  12  18
ATOM     18  C   UNL     1      -8.842 -10.569  19.090  0.00  0.00    +0.084 C 
BRANCH  18   5
ATOM      5  N   UNL     1      -9.755 -10.922  20.172  0.00  0.00    -0.303 NA
BRANCH   5  20
ATOM     20  C   UNL     1     -10.017 -12.362  20.174  0.00  0.00    +0.081 C 
ATOM     22  C   UNL     1      -8.743 -13.152  19.927  0.00  0.00    +0.020 C 
ENDBRANCH   5  20
BRANCH   5  21
ATOM     21  C   UNL     1     -11.009 -10.177  20.051  0.00  0.00    +0.081 C 
ATOM     23  C   UNL     1     -12.205 -11.061  20.361  0.00  0.00    +0.020 C 
ENDBRANCH   5  21
ENDBRANCH  18   5
ENDBRANCH  12  18
ENDBRANCH   6  12
BRANCH   7  17
ATOM     17  C   UNL     1     -10.927  -7.979  16.027  0.00  0.00    +0.124 C 
BRANCH  17  19
ATOM      3  O   UNL     1     -12.195  -5.909  15.817  0.00  0.00    -0.251 OA
ATOM     19  C   UNL     1     -11.133  -6.511  15.778  0.00  0.00    +0.305 C 
BRANCH  19   2
ATOM      2  O   UNL     1      -9.941  -5.923  15.495  0.00  0.00    -0.481 OA
ATOM     24  H   UNL     1      -9.387  -6.484  14.912  0.00  0.00    +0.295 HD
ENDBRANCH  19   2
ENDBRANCH  17  19
ENDBRANCH   7  17
TORSDOF 9
ENDMDL
MODEL 10
REMARK VINA RESULT:      -4.4     27.830     30.149
REMARK  Name = 25312555
REMARK  11 active torsions:
REMARK  status: ('A' for Active; 'I' for Inactive)
REMARK    1  A    between atoms: O_2  and  C_19
REMARK    2  A    between atoms: N_5  and  C_18
REMARK    3  A    between atoms: N_5  and  C_20
REMARK    4  A    between atoms: N_5  and  C_21
REMARK    5  A    between atoms: C_6  and  C_12
REMARK    6  A    between atoms: C_7  and  C_17
REMARK    7  A    between atoms: C_10  and  C_15
REMARK    8  A    between atoms: C_12  and  C_18
REMARK    9  A    between atoms: C_17  and  C_19
REMARK   10  A    between atoms: C_20  and  C_22
REMARK   11  A    between atoms: C_21  and  C_23
REMARK                            x       y       z     vdW  Elec       q    Type
REMARK                         _______ _______ _______ _____ _____    ______ ____
ROOT
ATOM      1  O   UNL     1      -1.719  12.713   7.688  0.00  0.00    -0.275 OA
ATOM      4  N   UNL     1      -2.004  10.499   7.028  0.00  0.00    -0.301 N 
ATOM      6  C   UNL     1      -2.287   8.769   5.269  0.00  0.00    +0.011 C 
ATOM      7  C   UNL     1      -3.788   8.687   5.644  0.00  0.00    +0.006 C 
ATOM      8  C   UNL     1      -1.469   9.245   6.483  0.00  0.00    +0.111 C 
ATOM      9  C   UNL     1      -4.292  10.005   6.256  0.00  0.00    +0.023 C 
ATOM     11  C   UNL     1      -3.411  10.449   7.421  0.00  0.00    +0.108 C 
ATOM     15  C   UNL     1      -1.272  11.675   7.209  0.00  0.00    +0.219 C 
ENDROOT
BRANCH  15  10
ATOM     10  C   UNL     1       0.162  11.663   6.784  0.00  0.00    +0.075 C 
ATOM     13  C   UNL     1       0.578  12.638   5.664  0.00  0.00    +0.013 C 
ATOM     14  C   UNL     1       1.177  12.391   7.690  0.00  0.00    +0.013 C 
ATOM     16  C   UNL     1       1.925  12.790   6.401  0.00  0.00    +0.001 C 
ENDBRANCH  15  10
BRANCH   6  12
ATOM     12  C   UNL     1      -1.997   9.656   4.051  0.00  0.00    +0.020 C 
BRANCH  12  18
ATOM     18  C   UNL     1      -0.507   9.681   3.740  0.00  0.00    +0.084 C 
BRANCH  18   5
ATOM      5  N   UNL     1      -0.303   9.904   2.313  0.00  0.00    -0.303 NA
BRANCH   5  20
ATOM     20  C   UNL     1       0.355  11.191   2.082  0.00  0.00    +0.081 C 
ATOM     22  C   UNL     1       1.832  11.122   2.434  0.00  0.00    +0.020 C 
ENDBRANCH   5  20
BRANCH   5  21
ATOM     21  C   UNL     1      -1.578   9.849   1.595  0.00  0.00    +0.081 C 
ATOM     23  C   UNL     1      -1.379   9.397   0.158  0.00  0.00    +0.020 C 
ENDBRANCH   5  21
ENDBRANCH  18   5
ENDBRANCH  12  18
ENDBRANCH   6  12
BRANCH   7  17
ATOM     17  C   UNL     1      -4.678   8.260   4.476  0.00  0.00    +0.124 C 
BRANCH  17  19
ATOM      3  O   UNL     1      -4.592   5.907   5.106  0.00  0.00    -0.251 OA
ATOM     19  C   UNL     1      -5.206   6.865   4.663  0.00  0.00    +0.305 C 
BRANCH  19   2
ATOM      2  O   UNL     1      -6.503   6.810   4.259  0.00  0.00    -0.481 OA
ATOM     24  H   UNL     1      -7.044   6.239   4.845  0.00  0.00    +0.295 HD
ENDBRANCH  19   2
ENDBRANCH  17  19
ENDBRANCH   7  17
TORSDOF 9
ENDMDL
