MODEL 1
REMARK VINA RESULT:      -6.7      0.000      0.000
REMARK  Name = 75536714
REMARK  9 active torsions:
REMARK  status: ('A' for Active; 'I' for Inactive)
REMARK    1  A    between atoms: S_1  and  N_7
REMARK    2  A    between atoms: S_1  and  C_16
REMARK    3  A    between atoms: O_3  and  C_10
REMARK    4  A    between atoms: N_6  and  C_9
REMARK    5  A    between atoms: N_6  and  C_14
REMARK    6  A    between atoms: N_7  and  C_13
REMARK    7  A    between atoms: C_11  and  C_13
REMARK    8  A    between atoms: C_14  and  C_15
REMARK    9  A    between atoms: C_23  and  C_26
REMARK                            x       y       z     vdW  Elec       q    Type
REMARK                         _______ _______ _______ _____ _____    ______ ____
ROOT
ATOM      2  O   UNL     1     -17.289   1.526  25.547  0.00  0.00    -0.371 OA
ATOM      9  C   UNL     1     -16.347   3.034  27.123  0.00  0.00    +0.111 C 
ATOM     10  C   UNL     1     -16.037   3.526  25.722  0.00  0.00    +0.164 C 
ATOM     11  C   UNL     1     -17.107   2.804  24.914  0.00  0.00    +0.164 C 
ATOM     12  C   UNL     1     -16.703   1.579  26.860  0.00  0.00    +0.181 C 
ENDROOT
BRANCH  10   3
ATOM      3  O   UNL     1     -16.143   4.931  25.600  0.00  0.00    -0.388 OA
ATOM     29  H   UNL     1     -16.472   5.137  24.709  0.00  0.00    +0.210 HD
ENDBRANCH  10   3
BRANCH   9   6
ATOM      6  N   UNL     1     -15.241   3.186  28.054  0.00  0.00    -0.305 NA
ATOM     27  H   UNL     1     -14.525   3.776  27.627  0.00  0.00    +0.123 HD
BRANCH   6  14
ATOM     14  C   UNL     1     -15.682   3.805  29.298  0.00  0.00    +0.118 C 
BRANCH  14  15
ATOM      8  N   UNL     1     -14.872   0.753  31.388  0.00  0.00    -0.263 NA
ATOM     15  C   UNL     1     -15.371   2.944  30.494  0.00  0.00    -0.015 A 
ATOM     17  C   UNL     1     -15.295   3.490  31.769  0.00  0.00    +0.008 A 
ATOM     18  C   UNL     1     -15.153   1.582  30.357  0.00  0.00    +0.115 A 
ATOM     24  C   UNL     1     -15.007   2.671  32.855  0.00  0.00    +0.020 A 
ATOM     25  C   UNL     1     -14.805   1.321  32.613  0.00  0.00    +0.111 A 
ENDBRANCH  14  15
ENDBRANCH   6  14
ENDBRANCH   9   6
BRANCH  11  13
ATOM     13  C   UNL     1     -16.728   2.605  23.457  0.00  0.00    +0.140 C 
BRANCH  13   7
ATOM      7  N   UNL     1     -15.814   3.683  23.031  0.00  0.00    -0.187 NA
ATOM     28  H   UNL     1     -15.003   3.848  23.642  0.00  0.00    +0.148 HD
BRANCH   7   1
ATOM      1  S   UNL     1     -16.399   4.978  22.097  0.00  0.00    +0.058 S 
ATOM      4  O   UNL     1     -17.098   5.914  22.957  0.00  0.00    -0.153 OA
ATOM      5  O   UNL     1     -17.051   4.450  20.915  0.00  0.00    -0.153 OA
BRANCH   1  16
ATOM     16  C   UNL     1     -14.900   5.746  21.561  0.00  0.00    +0.105 A 
ATOM     19  C   UNL     1     -13.672   5.282  22.034  0.00  0.00    +0.029 A 
ATOM     20  C   UNL     1     -14.944   6.816  20.669  0.00  0.00    +0.029 A 
ATOM     21  C   UNL     1     -12.488   5.889  21.615  0.00  0.00    +0.005 A 
ATOM     22  C   UNL     1     -13.761   7.423  20.249  0.00  0.00    +0.005 A 
ATOM     23  C   UNL     1     -12.532   6.959  20.722  0.00  0.00    -0.050 A 
ATOM     26  C   UNL     1     -11.267   7.609  20.273  0.00  0.00    +0.044 C 
ENDBRANCH   1  16
ENDBRANCH   7   1
ENDBRANCH  13   7
ENDBRANCH  11  13
TORSDOF 8
ENDMDL
MODEL 2
REMARK VINA RESULT:      -6.7     29.495     32.556
REMARK  Name = 75536714
REMARK  9 active torsions:
REMARK  status: ('A' for Active; 'I' for Inactive)
REMARK    1  A    between atoms: S_1  and  N_7
REMARK    2  A    between atoms: S_1  and  C_16
REMARK    3  A    between atoms: O_3  and  C_10
REMARK    4  A    between atoms: N_6  and  C_9
REMARK    5  A    between atoms: N_6  and  C_14
REMARK    6  A    between atoms: N_7  and  C_13
REMARK    7  A    between atoms: C_11  and  C_13
REMARK    8  A    between atoms: C_14  and  C_15
REMARK    9  A    between atoms: C_23  and  C_26
REMARK                            x       y       z     vdW  Elec       q    Type
REMARK                         _______ _______ _______ _____ _____    ______ ____
ROOT
ATOM      2  O   UNL     1      16.714   7.684  20.853  0.00  0.00    -0.371 OA
ATOM      9  C   UNL     1      18.389   6.334  19.847  0.00  0.00    +0.111 C 
ATOM     10  C   UNL     1      17.024   5.815  19.436  0.00  0.00    +0.164 C 
ATOM     11  C   UNL     1      16.155   7.038  19.696  0.00  0.00    +0.164 C 
ATOM     12  C   UNL     1      18.039   7.169  21.068  0.00  0.00    +0.181 C 
ENDROOT
BRANCH  10   3
ATOM      3  O   UNL     1      16.976   5.414  18.081  0.00  0.00    -0.388 OA
ATOM     29  H   UNL     1      16.063   5.156  17.869  0.00  0.00    +0.210 HD
ENDBRANCH  10   3
BRANCH   9   6
ATOM      6  N   UNL     1      19.350   5.283  20.136  0.00  0.00    -0.305 NA
ATOM     27  H   UNL     1      19.448   4.685  19.314  0.00  0.00    +0.123 HD
BRANCH   6  14
ATOM     14  C   UNL     1      20.655   5.841  20.470  0.00  0.00    +0.118 C 
BRANCH  14  15
ATOM      8  N   UNL     1      22.170   4.913  23.814  0.00  0.00    -0.263 NA
ATOM     15  C   UNL     1      21.348   5.043  21.544  0.00  0.00    -0.015 A 
ATOM     17  C   UNL     1      21.801   3.752  21.298  0.00  0.00    +0.008 A 
ATOM     18  C   UNL     1      21.554   5.573  22.807  0.00  0.00    +0.115 A 
ATOM     24  C   UNL     1      22.437   3.040  22.308  0.00  0.00    +0.020 A 
ATOM     25  C   UNL     1      22.595   3.660  23.537  0.00  0.00    +0.111 A 
ENDBRANCH  14  15
ENDBRANCH   6  14
ENDBRANCH   9   6
BRANCH  11  13
ATOM     13  C   UNL     1      14.698   6.696  19.954  0.00  0.00    +0.140 C 
BRANCH  13   7
ATOM      7  N   UNL     1      13.830   7.663  19.252  0.00  0.00    -0.187 NA
ATOM     28  H   UNL     1      14.255   8.577  19.049  0.00  0.00    +0.148 HD
BRANCH   7   1
ATOM      1  S   UNL     1      12.141   7.576  19.428  0.00  0.00    +0.058 S 
ATOM      4  O   UNL     1      11.793   6.353  20.126  0.00  0.00    -0.153 OA
ATOM      5  O   UNL     1      11.518   7.893  18.158  0.00  0.00    -0.153 OA
BRANCH   1  16
ATOM     16  C   UNL     1      11.819   8.932  20.514  0.00  0.00    +0.105 A 
ATOM     19  C   UNL     1      12.383  10.182  20.255  0.00  0.00    +0.029 A 
ATOM     20  C   UNL     1      11.005   8.753  21.632  0.00  0.00    +0.029 A 
ATOM     21  C   UNL     1      12.132  11.252  21.113  0.00  0.00    +0.005 A 
ATOM     22  C   UNL     1      10.754   9.823  22.491  0.00  0.00    +0.005 A 
ATOM     23  C   UNL     1      11.317  11.073  22.231  0.00  0.00    -0.050 A 
ATOM     26  C   UNL     1      11.049  12.218  23.149  0.00  0.00    +0.044 C 
ENDBRANCH   1  16
ENDBRANCH   7   1
ENDBRANCH  13   7
ENDBRANCH  11  13
TORSDOF 8
ENDMDL
MODEL 3
REMARK VINA RESULT:      -6.6     27.439     30.391
REMARK  Name = 75536714
REMARK  9 active torsions:
REMARK  status: ('A' for Active; 'I' for Inactive)
REMARK    1  A    between atoms: S_1  and  N_7
REMARK    2  A    between atoms: S_1  and  C_16
REMARK    3  A    between atoms: O_3  and  C_10
REMARK    4  A    between atoms: N_6  and  C_9
REMARK    5  A    between atoms: N_6  and  C_14
REMARK    6  A    between atoms: N_7  and  C_13
REMARK    7  A    between atoms: C_11  and  C_13
REMARK    8  A    between atoms: C_14  and  C_15
REMARK    9  A    between atoms: C_23  and  C_26
REMARK                            x       y       z     vdW  Elec       q    Type
REMARK                         _______ _______ _______ _____ _____    ______ ____
ROOT
ATOM      2  O   UNL     1      13.528   8.345  21.864  0.00  0.00    -0.371 OA
ATOM      9  C   UNL     1      11.377   9.163  22.452  0.00  0.00    +0.111 C 
ATOM     10  C   UNL     1      11.225   8.103  21.377  0.00  0.00    +0.164 C 
ATOM     11  C   UNL     1      12.545   7.355  21.516  0.00  0.00    +0.164 C 
ATOM     12  C   UNL     1      12.845   9.531  22.308  0.00  0.00    +0.181 C 
ENDROOT
BRANCH  10   3
ATOM      3  O   UNL     1      10.115   7.256  21.598  0.00  0.00    -0.388 OA
ATOM     29  H   UNL     1       9.535   7.676  22.255  0.00  0.00    +0.210 HD
ENDBRANCH  10   3
BRANCH   9   6
ATOM      6  N   UNL     1      10.489  10.301  22.278  0.00  0.00    -0.305 NA
ATOM     27  H   UNL     1       9.873  10.370  23.089  0.00  0.00    +0.123 HD
BRANCH   6  14
ATOM     14  C   UNL     1      11.244  11.542  22.152  0.00  0.00    +0.118 C 
BRANCH  14  15
ATOM      8  N   UNL     1      10.534  12.787  25.657  0.00  0.00    -0.263 NA
ATOM     15  C   UNL     1      10.976  12.481  23.299  0.00  0.00    -0.015 A 
ATOM     17  C   UNL     1      10.917  13.855  23.102  0.00  0.00    +0.008 A 
ATOM     18  C   UNL     1      10.780  12.000  24.584  0.00  0.00    +0.115 A 
ATOM     24  C   UNL     1      10.668  14.697  24.180  0.00  0.00    +0.020 A 
ATOM     25  C   UNL     1      10.486  14.118  25.426  0.00  0.00    +0.111 A 
ENDBRANCH  14  15
ENDBRANCH   6  14
ENDBRANCH   9   6
BRANCH  11  13
ATOM     13  C   UNL     1      12.966   6.639  20.244  0.00  0.00    +0.140 C 
BRANCH  13   7
ATOM      7  N   UNL     1      14.414   6.358  20.291  0.00  0.00    -0.187 NA
ATOM     28  H   UNL     1      14.791   6.108  21.214  0.00  0.00    +0.148 HD
BRANCH   7   1
ATOM      1  S   UNL     1      15.459   7.079  19.159  0.00  0.00    +0.058 S 
ATOM      4  O   UNL     1      15.054   8.455  18.940  0.00  0.00    -0.153 OA
ATOM      5  O   UNL     1      15.626   6.182  18.033  0.00  0.00    -0.153 OA
BRANCH   1  16
ATOM     16  C   UNL     1      16.991   7.096  20.039  0.00  0.00    +0.105 A 
ATOM     19  C   UNL     1      17.950   6.115  19.788  0.00  0.00    +0.029 A 
ATOM     20  C   UNL     1      17.241   8.089  20.987  0.00  0.00    +0.029 A 
ATOM     21  C   UNL     1      19.159   6.126  20.484  0.00  0.00    +0.005 A 
ATOM     22  C   UNL     1      18.449   8.099  21.684  0.00  0.00    +0.005 A 
ATOM     23  C   UNL     1      19.408   7.118  21.432  0.00  0.00    -0.050 A 
ATOM     26  C   UNL     1      20.700   7.130  22.177  0.00  0.00    +0.044 C 
ENDBRANCH   1  16
ENDBRANCH   7   1
ENDBRANCH  13   7
ENDBRANCH  11  13
TORSDOF 8
ENDMDL
MODEL 4
REMARK VINA RESULT:      -6.5     27.594     29.322
REMARK  Name = 75536714
REMARK  9 active torsions:
REMARK  status: ('A' for Active; 'I' for Inactive)
REMARK    1  A    between atoms: S_1  and  N_7
REMARK    2  A    between atoms: S_1  and  C_16
REMARK    3  A    between atoms: O_3  and  C_10
REMARK    4  A    between atoms: N_6  and  C_9
REMARK    5  A    between atoms: N_6  and  C_14
REMARK    6  A    between atoms: N_7  and  C_13
REMARK    7  A    between atoms: C_11  and  C_13
REMARK    8  A    between atoms: C_14  and  C_15
REMARK    9  A    between atoms: C_23  and  C_26
REMARK                            x       y       z     vdW  Elec       q    Type
REMARK                         _______ _______ _______ _____ _____    ______ ____
ROOT
ATOM      2  O   UNL     1      14.095   7.879  20.094  0.00  0.00    -0.371 OA
ATOM      9  C   UNL     1      12.584   8.021  21.922  0.00  0.00    +0.111 C 
ATOM     10  C   UNL     1      11.840   7.505  20.704  0.00  0.00    +0.164 C 
ATOM     11  C   UNL     1      12.992   6.988  19.854  0.00  0.00    +0.164 C 
ATOM     12  C   UNL     1      13.815   8.642  21.282  0.00  0.00    +0.181 C 
ENDROOT
BRANCH  10   3
ATOM      3  O   UNL     1      10.918   6.480  21.021  0.00  0.00    -0.388 OA
ATOM     29  H   UNL     1      11.164   6.102  21.882  0.00  0.00    +0.210 HD
ENDBRANCH  10   3
BRANCH   9   6
ATOM      6  N   UNL     1      11.819   8.970  22.714  0.00  0.00    -0.305 NA
ATOM     27  H   UNL     1      12.362   9.230  23.539  0.00  0.00    +0.123 HD
BRANCH   6  14
ATOM     14  C   UNL     1      11.518  10.173  21.948  0.00  0.00    +0.118 C 
BRANCH  14  15
ATOM      8  N   UNL     1      10.552  12.115  25.052  0.00  0.00    -0.263 NA
ATOM     15  C   UNL     1      11.112  11.318  22.839  0.00  0.00    -0.015 A 
ATOM     17  C   UNL     1      10.918  12.593  22.322  0.00  0.00    +0.008 A 
ATOM     18  C   UNL     1      10.918  11.132  24.198  0.00  0.00    +0.115 A 
ATOM     24  C   UNL     1      10.542  13.631  23.168  0.00  0.00    +0.020 A 
ATOM     25  C   UNL     1      10.373  13.342  24.512  0.00  0.00    +0.111 A 
ENDBRANCH  14  15
ENDBRANCH   6  14
ENDBRANCH   9   6
BRANCH  11  13
ATOM     13  C   UNL     1      12.675   6.953  18.369  0.00  0.00    +0.140 C 
BRANCH  13   7
ATOM      7  N   UNL     1      13.673   7.751  17.631  0.00  0.00    -0.187 NA
ATOM     28  H   UNL     1      14.526   7.992  18.151  0.00  0.00    +0.148 HD
BRANCH   7   1
ATOM      1  S   UNL     1      13.178   8.780  16.370  0.00  0.00    +0.058 S 
ATOM      4  O   UNL     1      11.734   8.721  16.242  0.00  0.00    -0.153 OA
ATOM      5  O   UNL     1      14.022   8.549  15.214  0.00  0.00    -0.153 OA
BRANCH   1  16
ATOM     16  C   UNL     1      13.604  10.370  17.011  0.00  0.00    +0.105 A 
ATOM     19  C   UNL     1      14.343  11.261  16.232  0.00  0.00    +0.029 A 
ATOM     20  C   UNL     1      13.204  10.735  18.297  0.00  0.00    +0.029 A 
ATOM     21  C   UNL     1      14.682  12.516  16.739  0.00  0.00    +0.005 A 
ATOM     22  C   UNL     1      13.543  11.989  18.804  0.00  0.00    +0.005 A 
ATOM     23  C   UNL     1      14.282  12.880  18.024  0.00  0.00    -0.050 A 
ATOM     26  C   UNL     1      14.644  14.221  18.567  0.00  0.00    +0.044 C 
ENDBRANCH   1  16
ENDBRANCH   7   1
ENDBRANCH  13   7
ENDBRANCH  11  13
TORSDOF 8
ENDMDL
MODEL 5
REMARK VINA RESULT:      -6.5      2.589      9.650
REMARK  Name = 75536714
REMARK  9 active torsions:
REMARK  status: ('A' for Active; 'I' for Inactive)
REMARK    1  A    between atoms: S_1  and  N_7
REMARK    2  A    between atoms: S_1  and  C_16
REMARK    3  A    between atoms: O_3  and  C_10
REMARK    4  A    between atoms: N_6  and  C_9
REMARK    5  A    between atoms: N_6  and  C_14
REMARK    6  A    between atoms: N_7  and  C_13
REMARK    7  A    between atoms: C_11  and  C_13
REMARK    8  A    between atoms: C_14  and  C_15
REMARK    9  A    between atoms: C_23  and  C_26
REMARK                            x       y       z     vdW  Elec       q    Type
REMARK                         _______ _______ _______ _____ _____    ______ ____
ROOT
ATOM      2  O   UNL     1     -16.142   5.211  22.130  0.00  0.00    -0.371 OA
ATOM      9  C   UNL     1     -13.803   5.380  21.752  0.00  0.00    +0.111 C 
ATOM     10  C   UNL     1     -14.050   5.176  23.235  0.00  0.00    +0.164 C 
ATOM     11  C   UNL     1     -15.450   4.576  23.219  0.00  0.00    +0.164 C 
ATOM     12  C   UNL     1     -15.171   5.846  21.280  0.00  0.00    +0.181 C 
ENDROOT
BRANCH  10   3
ATOM      3  O   UNL     1     -13.110   4.303  23.831  0.00  0.00    -0.388 OA
ATOM     29  H   UNL     1     -13.136   4.437  24.793  0.00  0.00    +0.210 HD
ENDBRANCH  10   3
BRANCH   9   6
ATOM      6  N   UNL     1     -12.748   6.338  21.462  0.00  0.00    -0.305 NA
ATOM     27  H   UNL     1     -12.014   5.872  20.926  0.00  0.00    +0.123 HD
BRANCH   6  14
ATOM     14  C   UNL     1     -13.257   7.463  20.688  0.00  0.00    +0.118 C 
BRANCH  14  15
ATOM      8  N   UNL     1     -10.857   7.975  17.805  0.00  0.00    -0.263 NA
ATOM     15  C   UNL     1     -12.190   8.076  19.820  0.00  0.00    -0.015 A 
ATOM     17  C   UNL     1     -11.556   9.256  20.190  0.00  0.00    +0.008 A 
ATOM     18  C   UNL     1     -11.808   7.479  18.629  0.00  0.00    +0.115 A 
ATOM     24  C   UNL     1     -10.573   9.798  19.369  0.00  0.00    +0.020 A 
ATOM     25  C   UNL     1     -10.264   9.125  18.198  0.00  0.00    +0.111 A 
ENDBRANCH  14  15
ENDBRANCH   6  14
ENDBRANCH   9   6
BRANCH  11  13
ATOM     13  C   UNL     1     -16.214   4.799  24.512  0.00  0.00    +0.140 C 
BRANCH  13   7
ATOM      7  N   UNL     1     -15.736   3.852  25.539  0.00  0.00    -0.187 NA
ATOM     28  H   UNL     1     -14.716   3.759  25.620  0.00  0.00    +0.148 HD
BRANCH   7   1
ATOM      1  S   UNL     1     -16.709   2.536  26.003  0.00  0.00    +0.058 S 
ATOM      4  O   UNL     1     -16.321   1.362  25.245  0.00  0.00    -0.153 OA
ATOM      5  O   UNL     1     -18.095   2.961  26.031  0.00  0.00    -0.153 OA
BRANCH   1  16
ATOM     16  C   UNL     1     -16.209   2.290  27.680  0.00  0.00    +0.105 A 
ATOM     19  C   UNL     1     -15.591   3.325  28.383  0.00  0.00    +0.029 A 
ATOM     20  C   UNL     1     -16.430   1.061  28.301  0.00  0.00    +0.029 A 
ATOM     21  C   UNL     1     -15.195   3.131  29.706  0.00  0.00    +0.005 A 
ATOM     22  C   UNL     1     -16.033   0.867  29.624  0.00  0.00    +0.005 A 
ATOM     23  C   UNL     1     -15.416   1.902  30.327  0.00  0.00    -0.050 A 
ATOM     26  C   UNL     1     -14.991   1.694  31.741  0.00  0.00    +0.044 C 
ENDBRANCH   1  16
ENDBRANCH   7   1
ENDBRANCH  13   7
ENDBRANCH  11  13
TORSDOF 8
ENDMDL
MODEL 6
REMARK VINA RESULT:      -6.5     27.749     30.136
REMARK  Name = 75536714
REMARK  9 active torsions:
REMARK  status: ('A' for Active; 'I' for Inactive)
REMARK    1  A    between atoms: S_1  and  N_7
REMARK    2  A    between atoms: S_1  and  C_16
REMARK    3  A    between atoms: O_3  and  C_10
REMARK    4  A    between atoms: N_6  and  C_9
REMARK    5  A    between atoms: N_6  and  C_14
REMARK    6  A    between atoms: N_7  and  C_13
REMARK    7  A    between atoms: C_11  and  C_13
REMARK    8  A    between atoms: C_14  and  C_15
REMARK    9  A    between atoms: C_23  and  C_26
REMARK                            x       y       z     vdW  Elec       q    Type
REMARK                         _______ _______ _______ _____ _____    ______ ____
ROOT
ATOM      2  O   UNL     1      15.964   8.913  19.530  0.00  0.00    -0.371 OA
ATOM      9  C   UNL     1      15.932   9.235  21.883  0.00  0.00    +0.111 C 
ATOM     10  C   UNL     1      14.953   8.133  21.522  0.00  0.00    +0.164 C 
ATOM     11  C   UNL     1      15.477   7.713  20.155  0.00  0.00    +0.164 C 
ATOM     12  C   UNL     1      16.119   9.924  20.541  0.00  0.00    +0.181 C 
ENDROOT
BRANCH  10   3
ATOM      3  O   UNL     1      14.972   7.062  22.445  0.00  0.00    -0.388 OA
ATOM     29  H   UNL     1      14.059   6.753  22.575  0.00  0.00    +0.210 HD
ENDBRANCH  10   3
BRANCH   9   6
ATOM      6  N   UNL     1      15.444  10.133  22.918  0.00  0.00    -0.305 NA
ATOM     27  H   UNL     1      16.234  10.646  23.313  0.00  0.00    +0.123 HD
BRANCH   6  14
ATOM     14  C   UNL     1      14.485  11.087  22.376  0.00  0.00    +0.118 C 
BRANCH  14  15
ATOM      8  N   UNL     1      12.325  11.981  25.355  0.00  0.00    -0.263 NA
ATOM     15  C   UNL     1      13.275  11.231  23.262  0.00  0.00    -0.015 A 
ATOM     17  C   UNL     1      12.029  10.771  22.852  0.00  0.00    +0.008 A 
ATOM     18  C   UNL     1      13.370  11.823  24.511  0.00  0.00    +0.115 A 
ATOM     24  C   UNL     1      10.930  10.917  23.691  0.00  0.00    +0.020 A 
ATOM     25  C   UNL     1      11.130  11.523  24.921  0.00  0.00    +0.111 A 
ENDBRANCH  14  15
ENDBRANCH   6  14
ENDBRANCH   9   6
BRANCH  11  13
ATOM     13  C   UNL     1      14.417   7.072  19.278  0.00  0.00    +0.140 C 
BRANCH  13   7
ATOM      7  N   UNL     1      13.075   7.444  19.769  0.00  0.00    -0.187 NA
ATOM     28  H   UNL     1      12.721   6.892  20.561  0.00  0.00    +0.148 HD
BRANCH   7   1
ATOM      1  S   UNL     1      11.950   8.159  18.713  0.00  0.00    +0.058 S 
ATOM      4  O   UNL     1      10.746   8.494  19.450  0.00  0.00    -0.153 OA
ATOM      5  O   UNL     1      11.866   7.365  17.504  0.00  0.00    -0.153 OA
BRANCH   1  16
ATOM     16  C   UNL     1      12.763   9.669  18.285  0.00  0.00    +0.105 A 
ATOM     19  C   UNL     1      12.818  10.716  19.206  0.00  0.00    +0.029 A 
ATOM     20  C   UNL     1      13.348   9.814  17.028  0.00  0.00    +0.029 A 
ATOM     21  C   UNL     1      13.458  11.909  18.868  0.00  0.00    +0.005 A 
ATOM     22  C   UNL     1      13.987  11.007  16.690  0.00  0.00    +0.005 A 
ATOM     23  C   UNL     1      14.042  12.054  17.610  0.00  0.00    -0.050 A 
ATOM     26  C   UNL     1      14.726  13.330  17.248  0.00  0.00    +0.044 C 
ENDBRANCH   1  16
ENDBRANCH   7   1
ENDBRANCH  13   7
ENDBRANCH  11  13
TORSDOF 8
ENDMDL
MODEL 7
REMARK VINA RESULT:      -6.4     18.305     20.005
REMARK  Name = 75536714
REMARK  9 active torsions:
REMARK  status: ('A' for Active; 'I' for Inactive)
REMARK    1  A    between atoms: S_1  and  N_7
REMARK    2  A    between atoms: S_1  and  C_16
REMARK    3  A    between atoms: O_3  and  C_10
REMARK    4  A    between atoms: N_6  and  C_9
REMARK    5  A    between atoms: N_6  and  C_14
REMARK    6  A    between atoms: N_7  and  C_13
REMARK    7  A    between atoms: C_11  and  C_13
REMARK    8  A    between atoms: C_14  and  C_15
REMARK    9  A    between atoms: C_23  and  C_26
REMARK                            x       y       z     vdW  Elec       q    Type
REMARK                         _______ _______ _______ _____ _____    ______ ____
ROOT
ATOM      2  O   UNL     1      -6.114 -11.260  18.425  0.00  0.00    -0.371 OA
ATOM      9  C   UNL     1      -7.823  -9.943  17.431  0.00  0.00    +0.111 C 
ATOM     10  C   UNL     1      -6.498  -9.618  16.765  0.00  0.00    +0.164 C 
ATOM     11  C   UNL     1      -5.684 -10.858  17.113  0.00  0.00    +0.164 C 
ATOM     12  C   UNL     1      -7.359 -10.602  18.720  0.00  0.00    +0.181 C 
ENDROOT
BRANCH  10   3
ATOM      3  O   UNL     1      -6.618  -9.443  15.367  0.00  0.00    -0.388 OA
ATOM     29  H   UNL     1      -7.452  -9.849  15.078  0.00  0.00    +0.210 HD
ENDBRANCH  10   3
BRANCH   9   6
ATOM      6  N   UNL     1      -8.662  -8.779  17.661  0.00  0.00    -0.305 NA
ATOM     27  H   UNL     1      -8.459  -8.076  16.948  0.00  0.00    +0.123 HD
BRANCH   6  14
ATOM     14  C   UNL     1     -10.075  -9.127  17.592  0.00  0.00    +0.118 C 
BRANCH  14  15
ATOM      8  N   UNL     1     -10.909  -6.033  15.575  0.00  0.00    -0.263 NA
ATOM     15  C   UNL     1     -10.871  -8.096  16.835  0.00  0.00    -0.015 A 
ATOM     17  C   UNL     1     -12.248  -8.220  16.687  0.00  0.00    +0.008 A 
ATOM     18  C   UNL     1     -10.254  -6.994  16.264  0.00  0.00    +0.115 A 
ATOM     24  C   UNL     1     -12.956  -7.253  15.983  0.00  0.00    +0.020 A 
ATOM     25  C   UNL     1     -12.246  -6.189  15.452  0.00  0.00    +0.111 A 
ENDBRANCH  14  15
ENDBRANCH   6  14
ENDBRANCH   9   6
BRANCH  11  13
ATOM     13  C   UNL     1      -4.186 -10.610  17.118  0.00  0.00    +0.140 C 
BRANCH  13   7
ATOM      7  N   UNL     1      -3.749 -10.187  15.773  0.00  0.00    -0.187 NA
ATOM     28  H   UNL     1      -4.329  -9.468  15.321  0.00  0.00    +0.148 HD
BRANCH   7   1
ATOM      1  S   UNL     1      -2.874 -11.260  14.785  0.00  0.00    +0.058 S 
ATOM      4  O   UNL     1      -3.480 -12.576  14.851  0.00  0.00    -0.153 OA
ATOM      5  O   UNL     1      -1.458 -11.096  15.050  0.00  0.00    -0.153 OA
BRANCH   1  16
ATOM     16  C   UNL     1      -3.179 -10.600  13.174  0.00  0.00    +0.105 A 
ATOM     19  C   UNL     1      -4.483 -10.303  12.778  0.00  0.00    +0.029 A 
ATOM     20  C   UNL     1      -2.117 -10.378  12.298  0.00  0.00    +0.029 A 
ATOM     21  C   UNL     1      -4.726  -9.784  11.506  0.00  0.00    +0.005 A 
ATOM     22  C   UNL     1      -2.359  -9.861  11.026  0.00  0.00    +0.005 A 
ATOM     23  C   UNL     1      -3.663  -9.563  10.630  0.00  0.00    -0.050 A 
ATOM     26  C   UNL     1      -3.921  -9.009   9.269  0.00  0.00    +0.044 C 
ENDBRANCH   1  16
ENDBRANCH   7   1
ENDBRANCH  13   7
ENDBRANCH  11  13
TORSDOF 8
ENDMDL
MODEL 8
REMARK VINA RESULT:      -6.3      2.750      9.711
REMARK  Name = 75536714
REMARK  9 active torsions:
REMARK  status: ('A' for Active; 'I' for Inactive)
REMARK    1  A    between atoms: S_1  and  N_7
REMARK    2  A    between atoms: S_1  and  C_16
REMARK    3  A    between atoms: O_3  and  C_10
REMARK    4  A    between atoms: N_6  and  C_9
REMARK    5  A    between atoms: N_6  and  C_14
REMARK    6  A    between atoms: N_7  and  C_13
REMARK    7  A    between atoms: C_11  and  C_13
REMARK    8  A    between atoms: C_14  and  C_15
REMARK    9  A    between atoms: C_23  and  C_26
REMARK                            x       y       z     vdW  Elec       q    Type
REMARK                         _______ _______ _______ _____ _____    ______ ____
ROOT
ATOM      2  O   UNL     1     -15.740   7.475  21.670  0.00  0.00    -0.371 OA
ATOM      9  C   UNL     1     -13.740   6.453  20.896  0.00  0.00    +0.111 C 
ATOM     10  C   UNL     1     -14.228   5.713  22.127  0.00  0.00    +0.164 C 
ATOM     11  C   UNL     1     -15.696   6.120  22.151  0.00  0.00    +0.164 C 
ATOM     12  C   UNL     1     -14.492   7.768  21.017  0.00  0.00    +0.181 C 
ENDROOT
BRANCH  10   3
ATOM      3  O   UNL     1     -14.073   4.311  22.020  0.00  0.00    -0.388 OA
ATOM     29  H   UNL     1     -14.956   3.905  22.005  0.00  0.00    +0.210 HD
ENDBRANCH  10   3
BRANCH   9   6
ATOM      6  N   UNL     1     -12.298   6.628  20.854  0.00  0.00    -0.305 NA
ATOM     27  H   UNL     1     -11.936   6.211  19.995  0.00  0.00    +0.123 HD
BRANCH   6  14
ATOM     14  C   UNL     1     -11.938   8.040  20.880  0.00  0.00    +0.118 C 
BRANCH  14  15
ATOM      8  N   UNL     1     -10.680   7.977  17.310  0.00  0.00    -0.263 NA
ATOM     15  C   UNL     1     -11.273   8.474  19.601  0.00  0.00    -0.015 A 
ATOM     17  C   UNL     1     -10.652   9.714  19.501  0.00  0.00    +0.008 A 
ATOM     18  C   UNL     1     -11.260   7.650  18.487  0.00  0.00    +0.115 A 
ATOM     24  C   UNL     1     -10.045  10.087  18.306  0.00  0.00    +0.020 A 
ATOM     25  C   UNL     1     -10.087   9.190  17.251  0.00  0.00    +0.111 A 
ENDBRANCH  14  15
ENDBRANCH   6  14
ENDBRANCH   9   6
BRANCH  11  13
ATOM     13  C   UNL     1     -16.317   6.046  23.535  0.00  0.00    +0.140 C 
BRANCH  13   7
ATOM      7  N   UNL     1     -15.896   4.798  24.201  0.00  0.00    -0.187 NA
ATOM     28  H   UNL     1     -14.882   4.675  24.318  0.00  0.00    +0.148 HD
BRANCH   7   1
ATOM      1  S   UNL     1     -16.875   3.411  24.108  0.00  0.00    +0.058 S 
ATOM      4  O   UNL     1     -16.317   2.494  23.132  0.00  0.00    -0.153 OA
ATOM      5  O   UNL     1     -18.263   3.819  24.015  0.00  0.00    -0.153 OA
BRANCH   1  16
ATOM     16  C   UNL     1     -16.651   2.701  25.711  0.00  0.00    +0.105 A 
ATOM     19  C   UNL     1     -17.023   1.377  25.946  0.00  0.00    +0.029 A 
ATOM     20  C   UNL     1     -16.105   3.465  26.743  0.00  0.00    +0.029 A 
ATOM     21  C   UNL     1     -16.849   0.817  27.212  0.00  0.00    +0.005 A 
ATOM     22  C   UNL     1     -15.931   2.906  28.008  0.00  0.00    +0.005 A 
ATOM     23  C   UNL     1     -16.303   1.581  28.243  0.00  0.00    -0.050 A 
ATOM     26  C   UNL     1     -16.117   0.983  29.596  0.00  0.00    +0.044 C 
ENDBRANCH   1  16
ENDBRANCH   7   1
ENDBRANCH  13   7
ENDBRANCH  11  13
TORSDOF 8
ENDMDL
MODEL 9
REMARK VINA RESULT:      -6.1     19.463     22.143
REMARK  Name = 75536714
REMARK  9 active torsions:
REMARK  status: ('A' for Active; 'I' for Inactive)
REMARK    1  A    between atoms: S_1  and  N_7
REMARK    2  A    between atoms: S_1  and  C_16
REMARK    3  A    between atoms: O_3  and  C_10
REMARK    4  A    between atoms: N_6  and  C_9
REMARK    5  A    between atoms: N_6  and  C_14
REMARK    6  A    between atoms: N_7  and  C_13
REMARK    7  A    between atoms: C_11  and  C_13
REMARK    8  A    between atoms: C_14  and  C_15
REMARK    9  A    between atoms: C_23  and  C_26
REMARK                            x       y       z     vdW  Elec       q    Type
REMARK                         _______ _______ _______ _____ _____    ______ ____
ROOT
ATOM      2  O   UNL     1      -5.318 -10.866  15.598  0.00  0.00    -0.371 OA
ATOM      9  C   UNL     1      -3.644 -11.090  13.928  0.00  0.00    +0.111 C 
ATOM     10  C   UNL     1      -3.031 -11.384  15.284  0.00  0.00    +0.164 C 
ATOM     11  C   UNL     1      -4.273 -11.715  16.101  0.00  0.00    +0.164 C 
ATOM     12  C   UNL     1      -4.907 -10.341  14.323  0.00  0.00    +0.181 C 
ENDROOT
BRANCH  10   3
ATOM      3  O   UNL     1      -2.120 -12.465  15.249  0.00  0.00    -0.388 OA
ATOM     29  H   UNL     1      -1.700 -12.483  14.373  0.00  0.00    +0.210 HD
ENDBRANCH  10   3
BRANCH   9   6
ATOM      6  N   UNL     1      -2.779 -10.317  13.051  0.00  0.00    -0.305 NA
ATOM     27  H   UNL     1      -1.920 -10.086  13.551  0.00  0.00    +0.123 HD
BRANCH   6  14
ATOM     14  C   UNL     1      -2.439 -11.070  11.851  0.00  0.00    +0.118 C 
BRANCH  14  15
ATOM      8  N   UNL     1      -4.728 -11.231   8.839  0.00  0.00    -0.263 NA
ATOM     15  C   UNL     1      -3.259 -10.635  10.664  0.00  0.00    -0.015 A 
ATOM     17  C   UNL     1      -3.319  -9.298  10.287  0.00  0.00    +0.008 A 
ATOM     18  C   UNL     1      -3.975 -11.554   9.915  0.00  0.00    +0.115 A 
ATOM     24  C   UNL     1      -4.084  -8.926   9.186  0.00  0.00    +0.020 A 
ATOM     25  C   UNL     1      -4.763  -9.922   8.503  0.00  0.00    +0.111 A 
ENDBRANCH  14  15
ENDBRANCH   6  14
ENDBRANCH   9   6
BRANCH  11  13
ATOM     13  C   UNL     1      -4.093 -11.480  17.590  0.00  0.00    +0.140 C 
BRANCH  13   7
ATOM      7  N   UNL     1      -5.202 -10.649  18.098  0.00  0.00    -0.187 NA
ATOM     28  H   UNL     1      -4.989  -9.652  18.228  0.00  0.00    +0.148 HD
BRANCH   7   1
ATOM      1  S   UNL     1      -6.420 -11.348  19.058  0.00  0.00    +0.058 S 
ATOM      4  O   UNL     1      -6.187 -11.012  20.450  0.00  0.00    -0.153 OA
ATOM      5  O   UNL     1      -6.596 -12.731  18.662  0.00  0.00    -0.153 OA
BRANCH   1  16
ATOM     16  C   UNL     1      -7.855 -10.468  18.519  0.00  0.00    +0.105 A 
ATOM     19  C   UNL     1      -9.109 -10.796  19.035  0.00  0.00    +0.029 A 
ATOM     20  C   UNL     1      -7.735  -9.449  17.575  0.00  0.00    +0.029 A 
ATOM     21  C   UNL     1     -10.242 -10.105  18.609  0.00  0.00    +0.005 A 
ATOM     22  C   UNL     1      -8.868  -8.757  17.147  0.00  0.00    +0.005 A 
ATOM     23  C   UNL     1     -10.122  -9.085  17.665  0.00  0.00    -0.050 A 
ATOM     26  C   UNL     1     -11.334  -8.345  17.207  0.00  0.00    +0.044 C 
ENDBRANCH   1  16
ENDBRANCH   7   1
ENDBRANCH  13   7
ENDBRANCH  11  13
TORSDOF 8
ENDMDL
MODEL 10
REMARK VINA RESULT:      -6.1     31.189     34.239
REMARK  Name = 75536714
REMARK  9 active torsions:
REMARK  status: ('A' for Active; 'I' for Inactive)
REMARK    1  A    between atoms: S_1  and  N_7
REMARK    2  A    between atoms: S_1  and  C_16
REMARK    3  A    between atoms: O_3  and  C_10
REMARK    4  A    between atoms: N_6  and  C_9
REMARK    5  A    between atoms: N_6  and  C_14
REMARK    6  A    between atoms: N_7  and  C_13
REMARK    7  A    between atoms: C_11  and  C_13
REMARK    8  A    between atoms: C_14  and  C_15
REMARK    9  A    between atoms: C_23  and  C_26
REMARK                            x       y       z     vdW  Elec       q    Type
REMARK                         _______ _______ _______ _____ _____    ______ ____
ROOT
ATOM      2  O   UNL     1      17.276   6.915  21.609  0.00  0.00    -0.371 OA
ATOM      9  C   UNL     1      15.484   6.548  20.093  0.00  0.00    +0.111 C 
ATOM     10  C   UNL     1      16.798   6.445  19.340  0.00  0.00    +0.164 C 
ATOM     11  C   UNL     1      17.769   6.172  20.482  0.00  0.00    +0.164 C 
ATOM     12  C   UNL     1      15.913   7.294  21.346  0.00  0.00    +0.181 C 
ENDROOT
BRANCH  10   3
ATOM      3  O   UNL     1      16.801   5.401  18.386  0.00  0.00    -0.388 OA
ATOM     29  H   UNL     1      17.723   5.181  18.175  0.00  0.00    +0.210 HD
ENDBRANCH  10   3
BRANCH   9   6
ATOM      6  N   UNL     1      14.440   7.238  19.353  0.00  0.00    -0.305 NA
ATOM     27  H   UNL     1      14.651   7.188  18.355  0.00  0.00    +0.123 HD
BRANCH   6  14
ATOM     14  C   UNL     1      13.138   6.629  19.591  0.00  0.00    +0.118 C 
BRANCH  14  15
ATOM      8  N   UNL     1      11.636   9.675  21.264  0.00  0.00    -0.263 NA
ATOM     15  C   UNL     1      12.279   7.476  20.493  0.00  0.00    -0.015 A 
ATOM     17  C   UNL     1      11.366   6.894  21.365  0.00  0.00    +0.008 A 
ATOM     18  C   UNL     1      12.375   8.858  20.480  0.00  0.00    +0.115 A 
ATOM     24  C   UNL     1      10.586   7.702  22.187  0.00  0.00    +0.020 A 
ATOM     25  C   UNL     1      10.758   9.074  22.098  0.00  0.00    +0.111 A 
ENDBRANCH  14  15
ENDBRANCH   6  14
ENDBRANCH   9   6
BRANCH  11  13
ATOM     13  C   UNL     1      19.194   6.595  20.172  0.00  0.00    +0.140 C 
BRANCH  13   7
ATOM      7  N   UNL     1      20.131   5.550  20.629  0.00  0.00    -0.187 NA
ATOM     28  H   UNL     1      19.832   4.580  20.466  0.00  0.00    +0.148 HD
BRANCH   7   1
ATOM      1  S   UNL     1      21.194   5.864  21.920  0.00  0.00    +0.058 S 
ATOM      4  O   UNL     1      20.446   5.884  23.163  0.00  0.00    -0.153 OA
ATOM      5  O   UNL     1      22.049   6.980  21.566  0.00  0.00    -0.153 OA
BRANCH   1  16
ATOM     16  C   UNL     1      22.206   4.416  21.916  0.00  0.00    +0.105 A 
ATOM     19  C   UNL     1      22.858   4.024  20.747  0.00  0.00    +0.029 A 
ATOM     20  C   UNL     1      22.351   3.663  23.081  0.00  0.00    +0.029 A 
ATOM     21  C   UNL     1      23.655   2.879  20.743  0.00  0.00    +0.005 A 
ATOM     22  C   UNL     1      23.147   2.518  23.077  0.00  0.00    +0.005 A 
ATOM     23  C   UNL     1      23.800   2.126  21.908  0.00  0.00    -0.050 A 
ATOM     26  C   UNL     1      24.652   0.902  21.903  0.00  0.00    +0.044 C 
ENDBRANCH   1  16
ENDBRANCH   7   1
ENDBRANCH  13   7
ENDBRANCH  11  13
TORSDOF 8
ENDMDL
