MODEL 1
REMARK VINA RESULT:      -6.9      0.000      0.000
REMARK  Name = 11867056
REMARK  9 active torsions:
REMARK  status: ('A' for Active; 'I' for Inactive)
REMARK    1  A    between atoms: O_3  and  C_15
REMARK    2  A    between atoms: O_4  and  C_20
REMARK    3  A    between atoms: N_8  and  C_26
REMARK    4  A    between atoms: C_10  and  C_18
REMARK    5  A    between atoms: C_12  and  C_20
REMARK    6  A    between atoms: C_12  and  C_21
REMARK    7  A    between atoms: C_13  and  C_23
REMARK    8  A    between atoms: C_23  and  C_24
REMARK    9  A    between atoms: C_29  and  C_30
REMARK                            x       y       z     vdW  Elec       q    Type
REMARK                         _______ _______ _______ _____ _____    ______ ____
ROOT
ATOM      1  S   UNL     1      11.240   3.687   2.392  0.00  0.00    -0.057 S 
ATOM      6  O   UNL     1       9.180   7.061   4.851  0.00  0.00    -0.270 OA
ATOM      7  N   UNL     1      10.108   6.009   2.247  0.00  0.00    -0.229 NA
ATOM      9  N   UNL     1      10.266   5.011   4.435  0.00  0.00    -0.261 N 
ATOM     10  C   UNL     1      11.089   6.110  -1.480  0.00  0.00    -0.019 C 
ATOM     11  C   UNL     1      10.989   4.528  -1.631  0.00  0.00    +0.011 C 
ATOM     12  C   UNL     1      11.424   3.911  -3.016  0.00  0.00    +0.021 C 
ATOM     13  C   UNL     1      10.213   6.541  -0.216  0.00  0.00    +0.054 C 
ATOM     14  C   UNL     1      10.494   6.787  -2.742  0.00  0.00    +0.010 C 
ATOM     15  C   UNL     1      10.778   4.734  -4.168  0.00  0.00    +0.123 C 
ATOM     16  C   UNL     1      11.603   3.799  -0.400  0.00  0.00    +0.049 C 
ATOM     17  C   UNL     1      11.034   6.232  -4.053  0.00  0.00    +0.032 C 
ATOM     18  C   UNL     1      12.544   6.604  -1.291  0.00  0.00    +0.012 C 
ATOM     19  C   UNL     1      10.495   5.654   0.968  0.00  0.00    +0.058 A 
ATOM     21  C   UNL     1      10.875   2.461  -3.120  0.00  0.00    +0.016 C 
ATOM     22  C   UNL     1      11.103   4.420   0.861  0.00  0.00    +0.015 A 
ATOM     25  C   UNL     1      10.456   5.051   3.079  0.00  0.00    +0.165 A 
ATOM     29  C   UNL     1       9.653   5.994   5.228  0.00  0.00    +0.250 C 
ATOM     39  H   UNL     1      10.582   4.146   4.862  0.00  0.00    +0.157 HD
ENDROOT
BRANCH  29  30
ATOM      2  F   UNL     1       9.270   4.780  10.698  0.00  0.00    -0.205 F 
ATOM     30  C   UNL     1       9.552   5.673   6.677  0.00  0.00    +0.037 A 
ATOM     31  C   UNL     1       9.149   6.655   7.582  0.00  0.00    +0.016 A 
ATOM     32  C   UNL     1       9.859   4.390   7.129  0.00  0.00    +0.016 A 
ATOM     33  C   UNL     1       9.054   6.353   8.941  0.00  0.00    +0.039 A 
ATOM     34  C   UNL     1       9.765   4.089   8.488  0.00  0.00    +0.039 A 
ATOM     35  C   UNL     1       9.361   5.070   9.394  0.00  0.00    +0.123 A 
ENDBRANCH  29  30
BRANCH  15   3
ATOM      3  O   UNL     1      11.255   4.282  -5.436  0.00  0.00    -0.391 OA
ATOM     36  H   UNL     1      10.538   3.777  -5.857  0.00  0.00    +0.210 HD
ENDBRANCH  15   3
BRANCH  12  20
ATOM     20  C   UNL     1      12.951   3.792  -3.214  0.00  0.00    +0.165 C 
BRANCH  20   4
ATOM      4  O   UNL     1      13.192   2.695  -4.065  0.00  0.00    -0.394 OA
ATOM     37  H   UNL     1      13.607   3.041  -4.874  0.00  0.00    +0.209 HD
ENDBRANCH  20   4
ENDBRANCH  12  20
BRANCH  13  23
ATOM     23  C   UNL     1      10.319   8.026   0.156  0.00  0.00    +0.106 C 
BRANCH  23  24
ATOM      5  O   UNL     1       8.327   9.111  -0.690  0.00  0.00    -0.276 OA
ATOM      8  N   UNL     1       8.536   8.725   1.589  0.00  0.00    -0.312 N 
ATOM     24  C   UNL     1       8.961   8.680   0.269  0.00  0.00    +0.214 C 
ATOM     38  H   UNL     1       9.129   8.348   2.324  0.00  0.00    +0.149 HD
BRANCH   8  26
ATOM     26  C   UNL     1       7.278   9.296   1.976  0.00  0.00    +0.073 C 
ATOM     27  C   UNL     1       6.963   9.578   3.416  0.00  0.00    +0.024 C 
ATOM     28  C   UNL     1       7.187  10.714   2.461  0.00  0.00    +0.024 C 
ENDBRANCH   8  26
ENDBRANCH  23  24
ENDBRANCH  13  23
TORSDOF 7
ENDMDL
MODEL 2
REMARK VINA RESULT:      -6.4     24.048     27.843
REMARK  Name = 11867056
REMARK  9 active torsions:
REMARK  status: ('A' for Active; 'I' for Inactive)
REMARK    1  A    between atoms: O_3  and  C_15
REMARK    2  A    between atoms: O_4  and  C_20
REMARK    3  A    between atoms: N_8  and  C_26
REMARK    4  A    between atoms: C_10  and  C_18
REMARK    5  A    between atoms: C_12  and  C_20
REMARK    6  A    between atoms: C_12  and  C_21
REMARK    7  A    between atoms: C_13  and  C_23
REMARK    8  A    between atoms: C_23  and  C_24
REMARK    9  A    between atoms: C_29  and  C_30
REMARK                            x       y       z     vdW  Elec       q    Type
REMARK                         _______ _______ _______ _____ _____    ______ ____
ROOT
ATOM      1  S   UNL     1      -7.545 -11.043  12.491  0.00  0.00    -0.057 S 
ATOM      6  O   UNL     1      -3.595 -11.396  10.054  0.00  0.00    -0.270 OA
ATOM      7  N   UNL     1      -4.977 -11.300  12.667  0.00  0.00    -0.229 NA
ATOM      9  N   UNL     1      -5.907 -11.170  10.448  0.00  0.00    -0.261 N 
ATOM     10  C   UNL     1      -5.332 -10.923  16.488  0.00  0.00    -0.019 C 
ATOM     11  C   UNL     1      -6.778 -11.591  16.499  0.00  0.00    +0.011 C 
ATOM     12  C   UNL     1      -7.546 -11.615  17.877  0.00  0.00    +0.021 C 
ATOM     13  C   UNL     1      -4.583 -11.391  15.157  0.00  0.00    +0.054 C 
ATOM     14  C   UNL     1      -4.521 -11.428  17.710  0.00  0.00    +0.010 C 
ATOM     15  C   UNL     1      -6.578 -12.099  18.994  0.00  0.00    +0.123 C 
ATOM     16  C   UNL     1      -7.644 -11.092  15.307  0.00  0.00    +0.049 C 
ATOM     17  C   UNL     1      -5.268 -11.322  19.032  0.00  0.00    +0.032 C 
ATOM     18  C   UNL     1      -5.385  -9.376  16.532  0.00  0.00    +0.012 C 
ATOM     19  C   UNL     1      -5.481 -11.260  13.955  0.00  0.00    +0.058 A 
ATOM     21  C   UNL     1      -8.707 -12.645  17.792  0.00  0.00    +0.016 C 
ATOM     22  C   UNL     1      -6.853 -11.146  14.043  0.00  0.00    +0.015 A 
ATOM     25  C   UNL     1      -5.973 -11.187  11.816  0.00  0.00    +0.165 A 
ATOM     29  C   UNL     1      -4.749 -11.274   9.661  0.00  0.00    +0.250 C 
ATOM     39  H   UNL     1      -6.816 -11.115   9.999  0.00  0.00    +0.157 HD
ENDROOT
BRANCH  29  30
ATOM      2  F   UNL     1      -5.604 -11.220   4.110  0.00  0.00    -0.205 F 
ATOM     30  C   UNL     1      -4.975 -11.259   8.191  0.00  0.00    +0.037 A 
ATOM     31  C   UNL     1      -4.410 -12.252   7.388  0.00  0.00    +0.016 A 
ATOM     32  C   UNL     1      -5.752 -10.255   7.614  0.00  0.00    +0.016 A 
ATOM     33  C   UNL     1      -4.623 -12.238   6.010  0.00  0.00    +0.039 A 
ATOM     34  C   UNL     1      -5.963 -10.241   6.236  0.00  0.00    +0.039 A 
ATOM     35  C   UNL     1      -5.400 -11.234   5.434  0.00  0.00    +0.123 A 
ENDBRANCH  29  30
BRANCH  15   3
ATOM      3  O   UNL     1      -7.203 -12.009  20.274  0.00  0.00    -0.391 OA
ATOM     36  H   UNL     1      -6.958 -12.803  20.779  0.00  0.00    +0.210 HD
ENDBRANCH  15   3
BRANCH  12  20
ATOM     20  C   UNL     1      -8.207 -10.274  18.265  0.00  0.00    +0.165 C 
BRANCH  20   4
ATOM      4  O   UNL     1      -9.264 -10.556  19.154  0.00  0.00    -0.394 OA
ATOM     37  H   UNL     1     -10.096 -10.360  18.688  0.00  0.00    +0.209 HD
ENDBRANCH  20   4
ENDBRANCH  12  20
BRANCH  13  23
ATOM     23  C   UNL     1      -3.225 -10.718  14.920  0.00  0.00    +0.106 C 
BRANCH  23  24
ATOM      5  O   UNL     1      -0.964 -11.544  15.184  0.00  0.00    -0.276 OA
ATOM      8  N   UNL     1      -2.553 -12.878  14.144  0.00  0.00    -0.312 N 
ATOM     24  C   UNL     1      -2.109 -11.728  14.782  0.00  0.00    +0.214 C 
ATOM     38  H   UNL     1      -3.520 -12.945  13.837  0.00  0.00    +0.149 HD
BRANCH   8  26
ATOM     26  C   UNL     1      -1.693 -13.997  13.884  0.00  0.00    +0.073 C 
ATOM     27  C   UNL     1      -2.125 -15.399  14.201  0.00  0.00    +0.024 C 
ATOM     28  C   UNL     1      -1.989 -14.961  12.773  0.00  0.00    +0.024 C 
ENDBRANCH   8  26
ENDBRANCH  23  24
ENDBRANCH  13  23
TORSDOF 7
ENDMDL
MODEL 3
REMARK VINA RESULT:      -6.4     27.381     31.189
REMARK  Name = 11867056
REMARK  9 active torsions:
REMARK  status: ('A' for Active; 'I' for Inactive)
REMARK    1  A    between atoms: O_3  and  C_15
REMARK    2  A    between atoms: O_4  and  C_20
REMARK    3  A    between atoms: N_8  and  C_26
REMARK    4  A    between atoms: C_10  and  C_18
REMARK    5  A    between atoms: C_12  and  C_20
REMARK    6  A    between atoms: C_12  and  C_21
REMARK    7  A    between atoms: C_13  and  C_23
REMARK    8  A    between atoms: C_23  and  C_24
REMARK    9  A    between atoms: C_29  and  C_30
REMARK                            x       y       z     vdW  Elec       q    Type
REMARK                         _______ _______ _______ _____ _____    ______ ____
ROOT
ATOM      1  S   UNL     1     -11.719 -10.503  18.987  0.00  0.00    -0.057 S 
ATOM      6  O   UNL     1      -7.910  -8.974  16.789  0.00  0.00    -0.270 OA
ATOM      7  N   UNL     1     -10.845  -8.906  17.149  0.00  0.00    -0.229 NA
ATOM      9  N   UNL     1      -9.199 -10.226  18.314  0.00  0.00    -0.261 N 
ATOM     10  C   UNL     1     -14.516  -8.125  16.266  0.00  0.00    -0.019 C 
ATOM     11  C   UNL     1     -15.006  -8.348  17.765  0.00  0.00    +0.011 C 
ATOM     12  C   UNL     1     -16.560  -8.273  18.029  0.00  0.00    +0.021 C 
ATOM     13  C   UNL     1     -12.951  -7.806  16.302  0.00  0.00    +0.054 C 
ATOM     14  C   UNL     1     -15.251  -6.901  15.659  0.00  0.00    +0.010 C 
ATOM     15  C   UNL     1     -17.141  -7.019  17.316  0.00  0.00    +0.123 C 
ATOM     16  C   UNL     1     -14.319  -9.586  18.410  0.00  0.00    +0.049 C 
ATOM     17  C   UNL     1     -16.762  -6.936  15.842  0.00  0.00    +0.032 C 
ATOM     18  C   UNL     1     -14.771  -9.355  15.362  0.00  0.00    +0.012 C 
ATOM     19  C   UNL     1     -12.221  -8.774  17.196  0.00  0.00    +0.058 A 
ATOM     21  C   UNL     1     -16.807  -8.095  19.553  0.00  0.00    +0.016 C 
ATOM     22  C   UNL     1     -12.852  -9.549  18.147  0.00  0.00    +0.015 A 
ATOM     25  C   UNL     1     -10.471  -9.795  18.043  0.00  0.00    +0.165 A 
ATOM     29  C   UNL     1      -8.017  -9.801  17.688  0.00  0.00    +0.250 C 
ATOM     39  H   UNL     1      -9.152 -10.890  19.080  0.00  0.00    +0.157 HD
ENDROOT
BRANCH  29  30
ATOM      2  F   UNL     1      -3.291 -12.120  19.646  0.00  0.00    -0.205 F 
ATOM     30  C   UNL     1      -6.765 -10.416  18.206  0.00  0.00    +0.037 A 
ATOM     31  C   UNL     1      -5.652 -10.539  17.374  0.00  0.00    +0.016 A 
ATOM     32  C   UNL     1      -6.705 -10.869  19.524  0.00  0.00    +0.016 A 
ATOM     33  C   UNL     1      -4.478 -11.115  17.860  0.00  0.00    +0.039 A 
ATOM     34  C   UNL     1      -5.531 -11.445  20.010  0.00  0.00    +0.039 A 
ATOM     35  C   UNL     1      -4.418 -11.567  19.178  0.00  0.00    +0.123 A 
ENDBRANCH  29  30
BRANCH  15   3
ATOM      3  O   UNL     1     -18.564  -6.992  17.426  0.00  0.00    -0.391 OA
ATOM     36  H   UNL     1     -18.795  -7.277  18.327  0.00  0.00    +0.210 HD
ENDBRANCH  15   3
BRANCH  12  20
ATOM     20  C   UNL     1     -17.339  -9.545  17.628  0.00  0.00    +0.165 C 
BRANCH  20   4
ATOM      4  O   UNL     1     -18.394  -9.713  18.548  0.00  0.00    -0.394 OA
ATOM     37  H   UNL     1     -19.012 -10.360  18.166  0.00  0.00    +0.209 HD
ENDBRANCH  20   4
ENDBRANCH  12  20
BRANCH  13  23
ATOM     23  C   UNL     1     -12.289  -7.707  14.921  0.00  0.00    +0.106 C 
BRANCH  23  24
ATOM      5  O   UNL     1     -10.923  -5.734  15.241  0.00  0.00    -0.276 OA
ATOM      8  N   UNL     1     -12.520  -5.757  13.557  0.00  0.00    -0.312 N 
ATOM     24  C   UNL     1     -11.815  -6.304  14.620  0.00  0.00    +0.214 C 
ATOM     38  H   UNL     1     -13.250  -6.299  13.101  0.00  0.00    +0.149 HD
BRANCH   8  26
ATOM     26  C   UNL     1     -12.269  -4.432  13.066  0.00  0.00    +0.073 C 
ATOM     27  C   UNL     1     -12.189  -4.152  11.593  0.00  0.00    +0.024 C 
ATOM     28  C   UNL     1     -13.350  -3.638  12.392  0.00  0.00    +0.024 C 
ENDBRANCH   8  26
ENDBRANCH  23  24
ENDBRANCH  13  23
TORSDOF 7
ENDMDL
MODEL 4
REMARK VINA RESULT:      -6.3      3.937      6.246
REMARK  Name = 11867056
REMARK  9 active torsions:
REMARK  status: ('A' for Active; 'I' for Inactive)
REMARK    1  A    between atoms: O_3  and  C_15
REMARK    2  A    between atoms: O_4  and  C_20
REMARK    3  A    between atoms: N_8  and  C_26
REMARK    4  A    between atoms: C_10  and  C_18
REMARK    5  A    between atoms: C_12  and  C_20
REMARK    6  A    between atoms: C_12  and  C_21
REMARK    7  A    between atoms: C_13  and  C_23
REMARK    8  A    between atoms: C_23  and  C_24
REMARK    9  A    between atoms: C_29  and  C_30
REMARK                            x       y       z     vdW  Elec       q    Type
REMARK                         _______ _______ _______ _____ _____    ______ ____
ROOT
ATOM      1  S   UNL     1      11.716   9.716   4.228  0.00  0.00    -0.057 S 
ATOM      6  O   UNL     1       9.256   8.694   8.046  0.00  0.00    -0.270 OA
ATOM      7  N   UNL     1      10.603   7.804   5.567  0.00  0.00    -0.229 NA
ATOM      9  N   UNL     1      10.409  10.026   6.480  0.00  0.00    -0.261 N 
ATOM     10  C   UNL     1      11.494   5.428   2.664  0.00  0.00    -0.019 C 
ATOM     11  C   UNL     1      12.804   6.252   2.288  0.00  0.00    +0.011 C 
ATOM     12  C   UNL     1      13.594   5.793   1.002  0.00  0.00    +0.021 C 
ATOM     13  C   UNL     1      11.121   5.761   4.182  0.00  0.00    +0.054 C 
ATOM     14  C   UNL     1      11.790   3.910   2.555  0.00  0.00    +0.010 C 
ATOM     15  C   UNL     1      13.763   4.247   1.030  0.00  0.00    +0.123 C 
ATOM     16  C   UNL     1      12.549   7.786   2.353  0.00  0.00    +0.049 C 
ATOM     17  C   UNL     1      12.450   3.503   1.244  0.00  0.00    +0.032 C 
ATOM     18  C   UNL     1      10.289   5.766   1.752  0.00  0.00    +0.012 C 
ATOM     19  C   UNL     1      11.177   7.244   4.441  0.00  0.00    +0.058 A 
ATOM     21  C   UNL     1      15.019   6.414   1.034  0.00  0.00    +0.016 C 
ATOM     22  C   UNL     1      11.839   8.132   3.618  0.00  0.00    +0.015 A 
ATOM     25  C   UNL     1      10.817   9.101   5.555  0.00  0.00    +0.165 A 
ATOM     29  C   UNL     1       9.669   9.777   7.647  0.00  0.00    +0.250 C 
ATOM     39  H   UNL     1      10.731  10.967   6.280  0.00  0.00    +0.157 HD
ENDROOT
BRANCH  29  30
ATOM      2  F   UNL     1       8.620  14.282  10.833  0.00  0.00    -0.205 F 
ATOM     30  C   UNL     1       9.390  10.970   8.491  0.00  0.00    +0.037 A 
ATOM     31  C   UNL     1       9.235  10.828   9.870  0.00  0.00    +0.016 A 
ATOM     32  C   UNL     1       9.286  12.231   7.903  0.00  0.00    +0.016 A 
ATOM     33  C   UNL     1       8.974  11.947  10.661  0.00  0.00    +0.039 A 
ATOM     34  C   UNL     1       9.025  13.349   8.694  0.00  0.00    +0.039 A 
ATOM     35  C   UNL     1       8.870  13.207  10.074  0.00  0.00    +0.123 A 
ENDBRANCH  29  30
BRANCH  15   3
ATOM      3  O   UNL     1      14.360   3.785  -0.182  0.00  0.00    -0.391 OA
ATOM     36  H   UNL     1      15.134   3.247   0.058  0.00  0.00    +0.210 HD
ENDBRANCH  15   3
BRANCH  12  20
ATOM     20  C   UNL     1      12.970   6.255  -0.333  0.00  0.00    +0.165 C 
BRANCH  20   4
ATOM      4  O   UNL     1      14.021   6.497  -1.240  0.00  0.00    -0.394 OA
ATOM     37  H   UNL     1      14.653   7.092  -0.799  0.00  0.00    +0.209 HD
ENDBRANCH  20   4
ENDBRANCH  12  20
BRANCH  13  23
ATOM     23  C   UNL     1       9.794   5.157   4.659  0.00  0.00    +0.106 C 
BRANCH  23  24
ATOM      5  O   UNL     1       9.954   3.148   6.003  0.00  0.00    -0.276 OA
ATOM      8  N   UNL     1      10.109   5.225   7.029  0.00  0.00    -0.312 N 
ATOM     24  C   UNL     1       9.958   4.375   5.942  0.00  0.00    +0.214 C 
ATOM     38  H   UNL     1      10.094   6.232   6.889  0.00  0.00    +0.149 HD
BRANCH   8  26
ATOM     26  C   UNL     1      10.282   4.741   8.368  0.00  0.00    +0.073 C 
ATOM     27  C   UNL     1       9.501   5.323   9.511  0.00  0.00    +0.024 C 
ATOM     28  C   UNL     1       9.216   3.926   9.041  0.00  0.00    +0.024 C 
ENDBRANCH   8  26
ENDBRANCH  23  24
ENDBRANCH  13  23
TORSDOF 7
ENDMDL
MODEL 5
REMARK VINA RESULT:      -6.3     24.355     27.695
REMARK  Name = 11867056
REMARK  9 active torsions:
REMARK  status: ('A' for Active; 'I' for Inactive)
REMARK    1  A    between atoms: O_3  and  C_15
REMARK    2  A    between atoms: O_4  and  C_20
REMARK    3  A    between atoms: N_8  and  C_26
REMARK    4  A    between atoms: C_10  and  C_18
REMARK    5  A    between atoms: C_12  and  C_20
REMARK    6  A    between atoms: C_12  and  C_21
REMARK    7  A    between atoms: C_13  and  C_23
REMARK    8  A    between atoms: C_23  and  C_24
REMARK    9  A    between atoms: C_29  and  C_30
REMARK                            x       y       z     vdW  Elec       q    Type
REMARK                         _______ _______ _______ _____ _____    ______ ____
ROOT
ATOM      1  S   UNL     1      -9.753  -9.387  13.773  0.00  0.00    -0.057 S 
ATOM      6  O   UNL     1      -8.818 -10.490  18.199  0.00  0.00    -0.270 OA
ATOM      7  N   UNL     1      -7.896 -10.140  15.410  0.00  0.00    -0.229 NA
ATOM      9  N   UNL     1     -10.099  -9.826  16.336  0.00  0.00    -0.261 N 
ATOM     10  C   UNL     1      -5.543 -10.486  12.375  0.00  0.00    -0.019 C 
ATOM     11  C   UNL     1      -6.272  -9.316  11.577  0.00  0.00    +0.011 C 
ATOM     12  C   UNL     1      -5.789  -9.048  10.099  0.00  0.00    +0.021 C 
ATOM     13  C   UNL     1      -5.860 -10.295  13.929  0.00  0.00    +0.054 C 
ATOM     14  C   UNL     1      -4.010 -10.374  12.170  0.00  0.00    +0.010 C 
ATOM     15  C   UNL     1      -4.234  -9.011  10.067  0.00  0.00    +0.123 C 
ATOM     16  C   UNL     1      -7.818  -9.403  11.725  0.00  0.00    +0.049 C 
ATOM     17  C   UNL     1      -3.591 -10.232  10.714  0.00  0.00    +0.032 C 
ATOM     18  C   UNL     1      -6.002 -11.895  11.925  0.00  0.00    +0.012 C 
ATOM     19  C   UNL     1      -7.325 -10.029  14.155  0.00  0.00    +0.058 A 
ATOM     21  C   UNL     1      -6.294  -7.649   9.647  0.00  0.00    +0.016 C 
ATOM     22  C   UNL     1      -8.182  -9.612  13.157  0.00  0.00    +0.015 A 
ATOM     25  C   UNL     1      -9.173  -9.834  15.327  0.00  0.00    +0.165 A 
ATOM     29  C   UNL     1      -9.876 -10.146  17.684  0.00  0.00    +0.250 C 
ATOM     39  H   UNL     1     -11.018  -9.512  16.039  0.00  0.00    +0.157 HD
ENDROOT
BRANCH  29  30
ATOM      2  F   UNL     1     -14.355  -9.680  21.040  0.00  0.00    -0.205 F 
ATOM     30  C   UNL     1     -11.062 -10.022  18.573  0.00  0.00    +0.037 A 
ATOM     31  C   UNL     1     -12.323  -9.786  18.024  0.00  0.00    +0.016 A 
ATOM     32  C   UNL     1     -10.914 -10.143  19.954  0.00  0.00    +0.016 A 
ATOM     33  C   UNL     1     -13.435  -9.670  18.858  0.00  0.00    +0.039 A 
ATOM     34  C   UNL     1     -12.026 -10.027  20.788  0.00  0.00    +0.039 A 
ATOM     35  C   UNL     1     -13.287  -9.791  20.239  0.00  0.00    +0.123 A 
ENDBRANCH  29  30
BRANCH  15   3
ATOM      3  O   UNL     1      -3.762  -8.900   8.725  0.00  0.00    -0.391 OA
ATOM     36  H   UNL     1      -4.525  -9.017   8.133  0.00  0.00    +0.210 HD
ENDBRANCH  15   3
BRANCH  12  20
ATOM     20  C   UNL     1      -6.337 -10.045   9.056  0.00  0.00    +0.165 C 
BRANCH  20   4
ATOM      4  O   UNL     1      -6.515  -9.347   7.843  0.00  0.00    -0.394 OA
ATOM     37  H   UNL     1      -6.063  -8.490   7.934  0.00  0.00    +0.209 HD
ENDBRANCH  20   4
ENDBRANCH  12  20
BRANCH  13  23
ATOM     23  C   UNL     1      -5.349 -11.429  14.828  0.00  0.00    +0.106 C 
BRANCH  23  24
ATOM      5  O   UNL     1      -3.655 -10.331  16.166  0.00  0.00    -0.276 OA
ATOM      8  N   UNL     1      -5.564 -11.160  17.194  0.00  0.00    -0.312 N 
ATOM     24  C   UNL     1      -4.740 -10.905  16.108  0.00  0.00    +0.214 C 
ATOM     38  H   UNL     1      -6.446 -11.648  17.057  0.00  0.00    +0.149 HD
BRANCH   8  26
ATOM     26  C   UNL     1      -5.222 -10.768  18.531  0.00  0.00    +0.073 C 
ATOM     27  C   UNL     1      -5.886 -11.399  19.720  0.00  0.00    +0.024 C 
ATOM     28  C   UNL     1      -4.440 -11.680  19.431  0.00  0.00    +0.024 C 
ENDBRANCH   8  26
ENDBRANCH  23  24
ENDBRANCH  13  23
TORSDOF 7
ENDMDL
MODEL 6
REMARK VINA RESULT:      -6.2     34.204     37.808
REMARK  Name = 11867056
REMARK  9 active torsions:
REMARK  status: ('A' for Active; 'I' for Inactive)
REMARK    1  A    between atoms: O_3  and  C_15
REMARK    2  A    between atoms: O_4  and  C_20
REMARK    3  A    between atoms: N_8  and  C_26
REMARK    4  A    between atoms: C_10  and  C_18
REMARK    5  A    between atoms: C_12  and  C_20
REMARK    6  A    between atoms: C_12  and  C_21
REMARK    7  A    between atoms: C_13  and  C_23
REMARK    8  A    between atoms: C_23  and  C_24
REMARK    9  A    between atoms: C_29  and  C_30
REMARK                            x       y       z     vdW  Elec       q    Type
REMARK                         _______ _______ _______ _____ _____    ______ ____
ROOT
ATOM      1  S   UNL     1      -0.347  10.318  37.428  0.00  0.00    -0.057 S 
ATOM      6  O   UNL     1      -4.527   8.734  38.728  0.00  0.00    -0.270 OA
ATOM      7  N   UNL     1      -2.897  10.550  37.058  0.00  0.00    -0.229 NA
ATOM      9  N   UNL     1      -2.178   8.922  38.683  0.00  0.00    -0.261 N 
ATOM     10  C   UNL     1      -2.156  13.548  34.748  0.00  0.00    -0.019 C 
ATOM     11  C   UNL     1      -0.755  12.946  34.286  0.00  0.00    +0.011 C 
ATOM     12  C   UNL     1       0.139  13.850  33.351  0.00  0.00    +0.021 C 
ATOM     13  C   UNL     1      -3.055  12.343  35.291  0.00  0.00    +0.054 C 
ATOM     14  C   UNL     1      -2.873  14.183  33.528  0.00  0.00    +0.010 C 
ATOM     15  C   UNL     1      -0.743  14.439  32.214  0.00  0.00    +0.123 C 
ATOM     16  C   UNL     1       0.019  12.323  35.483  0.00  0.00    +0.049 C 
ATOM     17  C   UNL     1      -1.998  15.136  32.726  0.00  0.00    +0.032 C 
ATOM     18  C   UNL     1      -2.012  14.622  35.854  0.00  0.00    +0.012 C 
ATOM     19  C   UNL     1      -2.270  11.460  36.225  0.00  0.00    +0.058 A 
ATOM     21  C   UNL     1       1.227  12.964  32.681  0.00  0.00    +0.016 C 
ATOM     22  C   UNL     1      -0.892  11.453  36.282  0.00  0.00    +0.015 A 
ATOM     25  C   UNL     1      -1.982   9.900  37.744  0.00  0.00    +0.165 A 
ATOM     29  C   UNL     1      -3.411   8.405  39.113  0.00  0.00    +0.250 C 
ATOM     39  H   UNL     1      -1.315   8.535  39.050  0.00  0.00    +0.157 HD
ENDROOT
BRANCH  29  30
ATOM      2  F   UNL     1      -3.092   4.313  42.947  0.00  0.00    -0.205 F 
ATOM     30  C   UNL     1      -3.327   7.321  40.128  0.00  0.00    +0.037 A 
ATOM     31  C   UNL     1      -2.374   6.310  39.992  0.00  0.00    +0.016 A 
ATOM     32  C   UNL     1      -4.199   7.315  41.216  0.00  0.00    +0.016 A 
ATOM     33  C   UNL     1      -2.295   5.294  40.944  0.00  0.00    +0.039 A 
ATOM     34  C   UNL     1      -4.121   6.299  42.167  0.00  0.00    +0.039 A 
ATOM     35  C   UNL     1      -3.168   5.288  42.032  0.00  0.00    +0.123 A 
ENDBRANCH  29  30
BRANCH  15   3
ATOM      3  O   UNL     1       0.007  15.365  31.426  0.00  0.00    -0.391 OA
ATOM     36  H   UNL     1      -0.618  15.828  30.842  0.00  0.00    +0.210 HD
ENDBRANCH  15   3
BRANCH  12  20
ATOM     20  C   UNL     1       0.908  14.968  34.087  0.00  0.00    +0.165 C 
BRANCH  20   4
ATOM      4  O   UNL     1       2.256  14.907  33.676  0.00  0.00    -0.394 OA
ATOM     37  H   UNL     1       2.490  15.783  33.322  0.00  0.00    +0.209 HD
ENDBRANCH  20   4
ENDBRANCH  12  20
BRANCH  13  23
ATOM     23  C   UNL     1      -4.389  12.774  35.912  0.00  0.00    +0.106 C 
BRANCH  23  24
ATOM      5  O   UNL     1      -6.147  12.403  34.288  0.00  0.00    -0.276 OA
ATOM      8  N   UNL     1      -5.879  10.908  36.044  0.00  0.00    -0.312 N 
ATOM     24  C   UNL     1      -5.561  12.038  35.304  0.00  0.00    +0.214 C 
ATOM     38  H   UNL     1      -5.343  10.683  36.878  0.00  0.00    +0.149 HD
BRANCH   8  26
ATOM     26  C   UNL     1      -6.954  10.029  35.685  0.00  0.00    +0.073 C 
ATOM     27  C   UNL     1      -7.490   9.019  36.658  0.00  0.00    +0.024 C 
ATOM     28  C   UNL     1      -8.326  10.203  36.269  0.00  0.00    +0.024 C 
ENDBRANCH   8  26
ENDBRANCH  23  24
ENDBRANCH  13  23
TORSDOF 7
ENDMDL
MODEL 7
REMARK VINA RESULT:      -6.1      3.110      6.231
REMARK  Name = 11867056
REMARK  9 active torsions:
REMARK  status: ('A' for Active; 'I' for Inactive)
REMARK    1  A    between atoms: O_3  and  C_15
REMARK    2  A    between atoms: O_4  and  C_20
REMARK    3  A    between atoms: N_8  and  C_26
REMARK    4  A    between atoms: C_10  and  C_18
REMARK    5  A    between atoms: C_12  and  C_20
REMARK    6  A    between atoms: C_12  and  C_21
REMARK    7  A    between atoms: C_13  and  C_23
REMARK    8  A    between atoms: C_23  and  C_24
REMARK    9  A    between atoms: C_29  and  C_30
REMARK                            x       y       z     vdW  Elec       q    Type
REMARK                         _______ _______ _______ _____ _____    ______ ____
ROOT
ATOM      1  S   UNL     1       8.864   8.649   0.468  0.00  0.00    -0.057 S 
ATOM      6  O   UNL     1       7.269   9.115   4.817  0.00  0.00    -0.270 OA
ATOM      7  N   UNL     1       9.064   7.767   2.892  0.00  0.00    -0.229 NA
ATOM      9  N   UNL     1       7.474   9.537   2.507  0.00  0.00    -0.261 N 
ATOM     10  C   UNL     1      11.449   5.044   1.564  0.00  0.00    -0.019 C 
ATOM     11  C   UNL     1      11.999   5.982   0.400  0.00  0.00    +0.011 C 
ATOM     12  C   UNL     1      13.001   5.331  -0.631  0.00  0.00    +0.021 C 
ATOM     13  C   UNL     1      10.835   5.981   2.703  0.00  0.00    +0.054 C 
ATOM     14  C   UNL     1      12.625   4.237   2.175  0.00  0.00    +0.010 C 
ATOM     15  C   UNL     1      14.082   4.527   0.145  0.00  0.00    +0.123 C 
ATOM     16  C   UNL     1      10.850   6.792  -0.268  0.00  0.00    +0.049 C 
ATOM     17  C   UNL     1      13.494   3.535   1.141  0.00  0.00    +0.032 C 
ATOM     18  C   UNL     1      10.367   4.051   1.075  0.00  0.00    +0.012 C 
ATOM     19  C   UNL     1       9.947   7.043   2.111  0.00  0.00    +0.058 A 
ATOM     21  C   UNL     1      13.733   6.462  -1.407  0.00  0.00    +0.016 C 
ATOM     22  C   UNL     1       9.983   7.404   0.779  0.00  0.00    +0.015 A 
ATOM     25  C   UNL     1       8.435   8.636   2.131  0.00  0.00    +0.165 A 
ATOM     29  C   UNL     1       6.956   9.723   3.799  0.00  0.00    +0.250 C 
ATOM     39  H   UNL     1       7.162  10.136   1.750  0.00  0.00    +0.157 HD
ENDROOT
BRANCH  29  30
ATOM      2  F   UNL     1       3.114  13.790   4.283  0.00  0.00    -0.205 F 
ATOM     30  C   UNL     1       5.938  10.800   3.928  0.00  0.00    +0.037 A 
ATOM     31  C   UNL     1       6.159  11.867   4.799  0.00  0.00    +0.016 A 
ATOM     32  C   UNL     1       4.765  10.743   3.177  0.00  0.00    +0.016 A 
ATOM     33  C   UNL     1       5.205  12.877   4.919  0.00  0.00    +0.039 A 
ATOM     34  C   UNL     1       3.810  11.753   3.298  0.00  0.00    +0.039 A 
ATOM     35  C   UNL     1       4.031  12.821   4.168  0.00  0.00    +0.123 A 
ENDBRANCH  29  30
BRANCH  15   3
ATOM      3  O   UNL     1      14.929   3.820  -0.762  0.00  0.00    -0.391 OA
ATOM     36  H   UNL     1      15.818   3.783  -0.368  0.00  0.00    +0.210 HD
ENDBRANCH  15   3
BRANCH  12  20
ATOM     20  C   UNL     1      12.330   4.454  -1.710  0.00  0.00    +0.165 C 
BRANCH  20   4
ATOM      4  O   UNL     1      13.079   4.583  -2.897  0.00  0.00    -0.394 OA
ATOM     37  H   UNL     1      13.664   5.353  -2.789  0.00  0.00    +0.209 HD
ENDBRANCH  20   4
ENDBRANCH  12  20
BRANCH  13  23
ATOM     23  C   UNL     1      10.129   5.226   3.837  0.00  0.00    +0.106 C 
BRANCH  23  24
ATOM      5  O   UNL     1      11.647   6.341   5.359  0.00  0.00    -0.276 OA
ATOM      8  N   UNL     1      10.022   4.916   6.206  0.00  0.00    -0.312 N 
ATOM     24  C   UNL     1      10.702   5.575   5.191  0.00  0.00    +0.214 C 
ATOM     38  H   UNL     1       9.253   4.292   5.977  0.00  0.00    +0.149 HD
BRANCH   8  26
ATOM     26  C   UNL     1      10.365   5.070   7.591  0.00  0.00    +0.073 C 
ATOM     27  C   UNL     1       9.456   5.793   8.540  0.00  0.00    +0.024 C 
ATOM     28  C   UNL     1       9.636   4.308   8.659  0.00  0.00    +0.024 C 
ENDBRANCH   8  26
ENDBRANCH  23  24
ENDBRANCH  13  23
TORSDOF 7
ENDMDL
MODEL 8
REMARK VINA RESULT:      -6.1      3.314      5.181
REMARK  Name = 11867056
REMARK  9 active torsions:
REMARK  status: ('A' for Active; 'I' for Inactive)
REMARK    1  A    between atoms: O_3  and  C_15
REMARK    2  A    between atoms: O_4  and  C_20
REMARK    3  A    between atoms: N_8  and  C_26
REMARK    4  A    between atoms: C_10  and  C_18
REMARK    5  A    between atoms: C_12  and  C_20
REMARK    6  A    between atoms: C_12  and  C_21
REMARK    7  A    between atoms: C_13  and  C_23
REMARK    8  A    between atoms: C_23  and  C_24
REMARK    9  A    between atoms: C_29  and  C_30
REMARK                            x       y       z     vdW  Elec       q    Type
REMARK                         _______ _______ _______ _____ _____    ______ ____
ROOT
ATOM      1  S   UNL     1      13.724   7.442   4.165  0.00  0.00    -0.057 S 
ATOM      6  O   UNL     1       9.787   4.979   4.485  0.00  0.00    -0.270 OA
ATOM      7  N   UNL     1      11.958   6.109   2.825  0.00  0.00    -0.229 NA
ATOM      9  N   UNL     1      11.625   6.265   5.206  0.00  0.00    -0.261 N 
ATOM     10  C   UNL     1      13.746   7.235  -0.400  0.00  0.00    -0.019 C 
ATOM     11  C   UNL     1      15.169   7.287   0.313  0.00  0.00    +0.011 C 
ATOM     12  C   UNL     1      16.378   7.835  -0.539  0.00  0.00    +0.021 C 
ATOM     13  C   UNL     1      12.802   6.270   0.453  0.00  0.00    +0.054 C 
ATOM     14  C   UNL     1      13.903   6.635  -1.822  0.00  0.00    +0.010 C 
ATOM     15  C   UNL     1      16.359   7.167  -1.943  0.00  0.00    +0.123 C 
ATOM     16  C   UNL     1      15.070   7.912   1.735  0.00  0.00    +0.049 C 
ATOM     17  C   UNL     1      15.011   7.279  -2.644  0.00  0.00    +0.032 C 
ATOM     18  C   UNL     1      13.084   8.630  -0.520  0.00  0.00    +0.012 C 
ATOM     19  C   UNL     1      12.895   6.582   1.924  0.00  0.00    +0.058 A 
ATOM     21  C   UNL     1      17.710   7.426   0.149  0.00  0.00    +0.016 C 
ATOM     22  C   UNL     1      13.931   7.304   2.481  0.00  0.00    +0.015 A 
ATOM     25  C   UNL     1      12.289   6.508   4.034  0.00  0.00    +0.165 A 
ATOM     29  C   UNL     1      10.439   5.531   5.365  0.00  0.00    +0.250 C 
ATOM     39  H   UNL     1      12.096   6.640   6.023  0.00  0.00    +0.157 HD
ENDROOT
BRANCH  29  30
ATOM      2  F   UNL     1       8.601   5.030  10.648  0.00  0.00    -0.205 F 
ATOM     30  C   UNL     1       9.953   5.399   6.764  0.00  0.00    +0.037 A 
ATOM     31  C   UNL     1       9.432   6.509   7.429  0.00  0.00    +0.016 A 
ATOM     32  C   UNL     1      10.017   4.164   7.411  0.00  0.00    +0.016 A 
ATOM     33  C   UNL     1       8.976   6.384   8.741  0.00  0.00    +0.039 A 
ATOM     34  C   UNL     1       9.562   4.040   8.723  0.00  0.00    +0.039 A 
ATOM     35  C   UNL     1       9.040   5.150   9.388  0.00  0.00    +0.123 A 
ENDBRANCH  29  30
BRANCH  15   3
ATOM      3  O   UNL     1      17.363   7.736  -2.785  0.00  0.00    -0.391 OA
ATOM     36  H   UNL     1      17.571   8.620  -2.438  0.00  0.00    +0.210 HD
ENDBRANCH  15   3
BRANCH  12  20
ATOM     20  C   UNL     1      16.430   9.374  -0.663  0.00  0.00    +0.165 C 
BRANCH  20   4
ATOM      4  O   UNL     1      17.782   9.752  -0.785  0.00  0.00    -0.394 OA
ATOM     37  H   UNL     1      18.107   9.399  -1.632  0.00  0.00    +0.209 HD
ENDBRANCH  20   4
ENDBRANCH  12  20
BRANCH  13  23
ATOM     23  C   UNL     1      11.343   6.224  -0.020  0.00  0.00    +0.106 C 
BRANCH  23  24
ATOM      5  O   UNL     1      10.293   4.077   0.374  0.00  0.00    -0.276 OA
ATOM      8  N   UNL     1      11.302   4.497  -1.674  0.00  0.00    -0.312 N 
ATOM     24  C   UNL     1      10.910   4.822  -0.383  0.00  0.00    +0.214 C 
ATOM     38  H   UNL     1      11.817   5.173  -2.232  0.00  0.00    +0.149 HD
BRANCH   8  26
ATOM     26  C   UNL     1      11.018   3.222  -2.268  0.00  0.00    +0.073 C 
ATOM     27  C   UNL     1      11.637   2.819  -3.575  0.00  0.00    +0.024 C 
ATOM     28  C   UNL     1      12.053   2.136  -2.306  0.00  0.00    +0.024 C 
ENDBRANCH   8  26
ENDBRANCH  23  24
ENDBRANCH  13  23
TORSDOF 7
ENDMDL
MODEL 9
REMARK VINA RESULT:      -6.1      2.347      4.938
REMARK  Name = 11867056
REMARK  9 active torsions:
REMARK  status: ('A' for Active; 'I' for Inactive)
REMARK    1  A    between atoms: O_3  and  C_15
REMARK    2  A    between atoms: O_4  and  C_20
REMARK    3  A    between atoms: N_8  and  C_26
REMARK    4  A    between atoms: C_10  and  C_18
REMARK    5  A    between atoms: C_12  and  C_20
REMARK    6  A    between atoms: C_12  and  C_21
REMARK    7  A    between atoms: C_13  and  C_23
REMARK    8  A    between atoms: C_23  and  C_24
REMARK    9  A    between atoms: C_29  and  C_30
REMARK                            x       y       z     vdW  Elec       q    Type
REMARK                         _______ _______ _______ _____ _____    ______ ____
ROOT
ATOM      1  S   UNL     1       9.120   8.208   2.408  0.00  0.00    -0.057 S 
ATOM      6  O   UNL     1      10.549   4.260   4.419  0.00  0.00    -0.270 OA
ATOM      7  N   UNL     1      10.273   5.929   1.993  0.00  0.00    -0.229 NA
ATOM      9  N   UNL     1       9.579   6.401   4.252  0.00  0.00    -0.261 N 
ATOM     10  C   UNL     1      10.227   6.740  -1.776  0.00  0.00    -0.019 C 
ATOM     11  C   UNL     1      10.348   8.307  -1.521  0.00  0.00    +0.011 C 
ATOM     12  C   UNL     1      10.258   9.248  -2.784  0.00  0.00    +0.021 C 
ATOM     13  C   UNL     1      10.775   5.985  -0.478  0.00  0.00    +0.054 C 
ATOM     14  C   UNL     1      11.117   6.344  -2.984  0.00  0.00    +0.010 C 
ATOM     15  C   UNL     1      11.171   8.683  -3.909  0.00  0.00    +0.123 C 
ATOM     16  C   UNL     1       9.448   8.761  -0.335  0.00  0.00    +0.049 C 
ATOM     17  C   UNL     1      10.907   7.214  -4.215  0.00  0.00    +0.032 C 
ATOM     18  C   UNL     1       8.774   6.288  -2.061  0.00  0.00    +0.012 C 
ATOM     19  C   UNL     1      10.205   6.588   0.779  0.00  0.00    +0.058 A 
ATOM     21  C   UNL     1      10.803  10.654  -2.408  0.00  0.00    +0.016 C 
ATOM     22  C   UNL     1       9.631   7.842   0.825  0.00  0.00    +0.015 A 
ATOM     25  C   UNL     1       9.725   6.684   2.920  0.00  0.00    +0.165 A 
ATOM     29  C   UNL     1       9.990   5.232   4.913  0.00  0.00    +0.250 C 
ATOM     39  H   UNL     1       9.162   7.158   4.784  0.00  0.00    +0.157 HD
ENDROOT
BRANCH  29  30
ATOM      2  F   UNL     1       9.022   5.130  10.445  0.00  0.00    -0.205 F 
ATOM     30  C   UNL     1       9.733   5.205   6.378  0.00  0.00    +0.037 A 
ATOM     31  C   UNL     1       9.938   4.028   7.100  0.00  0.00    +0.016 A 
ATOM     32  C   UNL     1       9.288   6.355   7.029  0.00  0.00    +0.016 A 
ATOM     33  C   UNL     1       9.697   4.003   8.474  0.00  0.00    +0.039 A 
ATOM     34  C   UNL     1       9.047   6.329   8.403  0.00  0.00    +0.039 A 
ATOM     35  C   UNL     1       9.253   5.154   9.125  0.00  0.00    +0.123 A 
ENDBRANCH  29  30
BRANCH  15   3
ATOM      3  O   UNL     1      11.013   9.438  -5.111  0.00  0.00    -0.391 OA
ATOM     36  H   UNL     1      10.105   9.297  -5.430  0.00  0.00    +0.210 HD
ENDBRANCH  15   3
BRANCH  12  20
ATOM     20  C   UNL     1       8.823   9.484  -3.305  0.00  0.00    +0.165 C 
BRANCH  20   4
ATOM      4  O   UNL     1       8.793  10.751  -3.925  0.00  0.00    -0.394 OA
ATOM     37  H   UNL     1       9.677  11.145  -3.823  0.00  0.00    +0.209 HD
ENDBRANCH  20   4
ENDBRANCH  12  20
BRANCH  13  23
ATOM     23  C   UNL     1      10.593   4.462  -0.503  0.00  0.00    +0.106 C 
BRANCH  23  24
ATOM      5  O   UNL     1      12.149   2.892  -1.493  0.00  0.00    -0.276 OA
ATOM      8  N   UNL     1      12.810   4.155   0.339  0.00  0.00    -0.312 N 
ATOM     24  C   UNL     1      11.913   3.738  -0.634  0.00  0.00    +0.214 C 
ATOM     38  H   UNL     1      12.530   4.858   1.017  0.00  0.00    +0.149 HD
BRANCH   8  26
ATOM     26  C   UNL     1      14.140   3.624   0.441  0.00  0.00    +0.073 C 
ATOM     27  C   UNL     1      15.324   4.527   0.624  0.00  0.00    +0.024 C 
ATOM     28  C   UNL     1      14.881   3.635   1.746  0.00  0.00    +0.024 C 
ENDBRANCH   8  26
ENDBRANCH  23  24
ENDBRANCH  13  23
TORSDOF 7
ENDMDL
MODEL 10
REMARK VINA RESULT:      -6.0      4.235      8.151
REMARK  Name = 11867056
REMARK  9 active torsions:
REMARK  status: ('A' for Active; 'I' for Inactive)
REMARK    1  A    between atoms: O_3  and  C_15
REMARK    2  A    between atoms: O_4  and  C_20
REMARK    3  A    between atoms: N_8  and  C_26
REMARK    4  A    between atoms: C_10  and  C_18
REMARK    5  A    between atoms: C_12  and  C_20
REMARK    6  A    between atoms: C_12  and  C_21
REMARK    7  A    between atoms: C_13  and  C_23
REMARK    8  A    between atoms: C_23  and  C_24
REMARK    9  A    between atoms: C_29  and  C_30
REMARK                            x       y       z     vdW  Elec       q    Type
REMARK                         _______ _______ _______ _____ _____    ______ ____
ROOT
ATOM      1  S   UNL     1       9.764   8.159  -0.336  0.00  0.00    -0.057 S 
ATOM      6  O   UNL     1      12.331   6.092   2.952  0.00  0.00    -0.270 OA
ATOM      7  N   UNL     1       9.961   7.693   2.201  0.00  0.00    -0.229 NA
ATOM      9  N   UNL     1      11.694   6.788   0.792  0.00  0.00    -0.261 N 
ATOM     10  C   UNL     1       6.930  10.018   2.729  0.00  0.00    -0.019 C 
ATOM     11  C   UNL     1       6.298   9.646   1.315  0.00  0.00    +0.011 C 
ATOM     12  C   UNL     1       5.002  10.433   0.880  0.00  0.00    +0.021 C 
ATOM     13  C   UNL     1       7.924   8.840   3.150  0.00  0.00    +0.054 C 
ATOM     14  C   UNL     1       5.802  10.109   3.790  0.00  0.00    +0.010 C 
ATOM     15  C   UNL     1       4.001  10.467   2.070  0.00  0.00    +0.123 C 
ATOM     16  C   UNL     1       7.388   9.573   0.207  0.00  0.00    +0.049 C 
ATOM     17  C   UNL     1       4.624  10.975   3.365  0.00  0.00    +0.032 C 
ATOM     18  C   UNL     1       7.701  11.360   2.707  0.00  0.00    +0.012 C 
ATOM     19  C   UNL     1       8.822   8.453   2.004  0.00  0.00    +0.058 A 
ATOM     21  C   UNL     1       4.311   9.667  -0.283  0.00  0.00    +0.016 C 
ATOM     22  C   UNL     1       8.553   8.776   0.689  0.00  0.00    +0.015 A 
ATOM     25  C   UNL     1      10.540   7.484   1.039  0.00  0.00    +0.165 A 
ATOM     29  C   UNL     1      12.506   6.145   1.739  0.00  0.00    +0.250 C 
ATOM     39  H   UNL     1      11.925   6.724  -0.194  0.00  0.00    +0.157 HD
ENDROOT
BRANCH  29  30
ATOM      2  F   UNL     1      16.976   3.461  -0.349  0.00  0.00    -0.205 F 
ATOM     30  C   UNL     1      13.690   5.434   1.186  0.00  0.00    +0.037 A 
ATOM     31  C   UNL     1      14.401   5.988   0.120  0.00  0.00    +0.016 A 
ATOM     32  C   UNL     1      14.089   4.214   1.732  0.00  0.00    +0.016 A 
ATOM     33  C   UNL     1      15.511   5.321  -0.398  0.00  0.00    +0.039 A 
ATOM     34  C   UNL     1      15.198   3.548   1.213  0.00  0.00    +0.039 A 
ATOM     35  C   UNL     1      15.910   4.101   0.149  0.00  0.00    +0.123 A 
ENDBRANCH  29  30
BRANCH  15   3
ATOM      3  O   UNL     1       2.872  11.282   1.754  0.00  0.00    -0.391 OA
ATOM     36  H   UNL     1       2.100  10.697   1.672  0.00  0.00    +0.210 HD
ENDBRANCH  15   3
BRANCH  12  20
ATOM     20  C   UNL     1       5.266  11.856   0.342  0.00  0.00    +0.165 C 
BRANCH  20   4
ATOM      4  O   UNL     1       4.319  12.118  -0.669  0.00  0.00    -0.394 OA
ATOM     37  H   UNL     1       4.507  13.006  -1.019  0.00  0.00    +0.209 HD
ENDBRANCH  20   4
ENDBRANCH  12  20
BRANCH  13  23
ATOM     23  C   UNL     1       8.729   9.112   4.427  0.00  0.00    +0.106 C 
BRANCH  23  24
ATOM      5  O   UNL     1       7.941   8.254   6.550  0.00  0.00    -0.276 OA
ATOM      8  N   UNL     1       9.008   6.825   5.065  0.00  0.00    -0.312 N 
ATOM     24  C   UNL     1       8.501   8.049   5.477  0.00  0.00    +0.214 C 
ATOM     38  H   UNL     1       9.464   6.744   4.160  0.00  0.00    +0.149 HD
BRANCH   8  26
ATOM     26  C   UNL     1       8.925   5.644   5.876  0.00  0.00    +0.073 C 
ATOM     27  C   UNL     1       9.840   4.477   5.644  0.00  0.00    +0.024 C 
ATOM     28  C   UNL     1       9.991   5.315   6.880  0.00  0.00    +0.024 C 
ENDBRANCH   8  26
ENDBRANCH  23  24
ENDBRANCH  13  23
TORSDOF 7
ENDMDL
