MODEL 1
REMARK VINA RESULT:      -7.0      0.000      0.000
REMARK  Name = 40777706
REMARK  10 active torsions:
REMARK  status: ('A' for Active; 'I' for Inactive)
REMARK    1  A    between atoms: N_3  and  C_15
REMARK    2  A    between atoms: N_4  and  C_8
REMARK    3  A    between atoms: C_6  and  C_9
REMARK    4  A    between atoms: C_12  and  C_16
REMARK    5  A    between atoms: C_13  and  C_18
REMARK    6  A    between atoms: C_14  and  C_17
REMARK    7  A    between atoms: C_14  and  C_24
REMARK    8  A    between atoms: C_14  and  C_25
REMARK    9  A    between atoms: C_14  and  C_26
REMARK   10  A    between atoms: C_21  and  C_27
REMARK                            x       y       z     vdW  Elec       q    Type
REMARK                         _______ _______ _______ _____ _____    ______ ____
ROOT
ATOM      3  N   UNL     1      -7.201 -10.273  16.974  0.00  0.00    -0.236 N 
ATOM      5  N   UNL     1      -7.924  -9.160  16.770  0.00  0.00    -0.171 NA
ATOM      9  C   UNL     1      -9.020 -10.633  18.129  0.00  0.00    +0.003 A 
ATOM     12  C   UNL     1      -7.812 -11.188  17.781  0.00  0.00    +0.046 A 
ATOM     13  C   UNL     1      -9.035  -9.385  17.477  0.00  0.00    +0.064 A 
ATOM     16  C   UNL     1      -7.205 -12.485  18.142  0.00  0.00    +0.066 C 
ATOM     18  C   UNL     1     -10.099  -8.366  17.501  0.00  0.00    +0.068 C 
ENDROOT
BRANCH   3  15
ATOM     15  C   UNL     1      -5.946 -10.403  16.377  0.00  0.00    +0.066 A 
ATOM     17  C   UNL     1      -3.438 -10.654  15.183  0.00  0.00    -0.042 A 
ATOM     19  C   UNL     1      -4.793 -10.373  17.163  0.00  0.00    +0.028 A 
ATOM     20  C   UNL     1      -5.845 -10.558  14.995  0.00  0.00    +0.028 A 
ATOM     22  C   UNL     1      -3.539 -10.499  16.565  0.00  0.00    +0.006 A 
ATOM     23  C   UNL     1      -4.591 -10.683  14.397  0.00  0.00    +0.006 A 
BRANCH  17  14
ATOM     14  C   UNL     1      -2.096 -10.788  14.545  0.00  0.00    -0.013 C 
ATOM     24  C   UNL     1      -1.671 -12.284  14.429  0.00  0.00    +0.015 C 
ATOM     25  C   UNL     1      -0.999 -10.049  15.374  0.00  0.00    +0.015 C 
ATOM     26  C   UNL     1      -1.982 -10.209  13.096  0.00  0.00    +0.015 C 
ENDBRANCH  17  14
ENDBRANCH   3  15
BRANCH   9   6
ATOM      6  C   UNL     1     -10.091 -11.232  19.011  0.00  0.00    +0.047 C 
ATOM      7  C   UNL     1     -10.665 -10.234  20.038  0.00  0.00    +0.039 C 
ATOM      8  C   UNL     1     -12.147 -10.597  20.192  0.00  0.00    +0.097 C 
ATOM     10  C   UNL     1     -11.321 -11.688  18.282  0.00  0.00    -0.021 C 
ATOM     11  C   UNL     1     -12.438 -11.343  18.932  0.00  0.00    -0.009 C 
BRANCH   8   4
ATOM      2  O   UNL     1     -14.635 -10.921  21.589  0.00  0.00    -0.270 OA
ATOM      4  N   UNL     1     -12.395 -11.457  21.318  0.00  0.00    -0.305 N 
ATOM     21  C   UNL     1     -13.638 -11.549  21.933  0.00  0.00    +0.251 C 
ATOM     31  H   UNL     1     -11.620 -11.992  21.702  0.00  0.00    +0.150 HD
BRANCH  21  27
ATOM      1  S   UNL     1     -12.657 -13.802  23.191  0.00  0.00    -0.092 S 
ATOM     27  C   UNL     1     -13.723 -12.464  23.100  0.00  0.00    +0.074 A 
ATOM     28  C   UNL     1     -14.570 -12.405  24.185  0.00  0.00    +0.021 A 
ATOM     29  C   UNL     1     -14.342 -13.471  25.102  0.00  0.00    +0.008 A 
ATOM     30  C   UNL     1     -13.329 -14.305  24.683  0.00  0.00    +0.046 A 
ENDBRANCH  21  27
ENDBRANCH   8   4
ENDBRANCH   9   6
TORSDOF 5
ENDMDL
MODEL 2
REMARK VINA RESULT:      -6.9     17.296     18.375
REMARK  Name = 40777706
REMARK  10 active torsions:
REMARK  status: ('A' for Active; 'I' for Inactive)
REMARK    1  A    between atoms: N_3  and  C_15
REMARK    2  A    between atoms: N_4  and  C_8
REMARK    3  A    between atoms: C_6  and  C_9
REMARK    4  A    between atoms: C_12  and  C_16
REMARK    5  A    between atoms: C_13  and  C_18
REMARK    6  A    between atoms: C_14  and  C_17
REMARK    7  A    between atoms: C_14  and  C_24
REMARK    8  A    between atoms: C_14  and  C_25
REMARK    9  A    between atoms: C_14  and  C_26
REMARK   10  A    between atoms: C_21  and  C_27
REMARK                            x       y       z     vdW  Elec       q    Type
REMARK                         _______ _______ _______ _____ _____    ______ ____
ROOT
ATOM      3  N   UNL     1     -14.669   6.211  21.727  0.00  0.00    -0.236 N 
ATOM      5  N   UNL     1     -15.974   6.528  21.764  0.00  0.00    -0.171 NA
ATOM      9  C   UNL     1     -15.476   4.858  23.242  0.00  0.00    +0.003 A 
ATOM     12  C   UNL     1     -14.319   5.216  22.594  0.00  0.00    +0.046 A 
ATOM     13  C   UNL     1     -16.462   5.698  22.690  0.00  0.00    +0.064 A 
ATOM     16  C   UNL     1     -12.940   4.704  22.725  0.00  0.00    +0.066 C 
ATOM     18  C   UNL     1     -17.898   5.743  23.019  0.00  0.00    +0.068 C 
ENDROOT
BRANCH   3  15
ATOM     15  C   UNL     1     -13.816   6.887  20.854  0.00  0.00    +0.066 A 
ATOM     17  C   UNL     1     -12.115   8.245  19.111  0.00  0.00    -0.042 A 
ATOM     19  C   UNL     1     -12.465   7.031  21.170  0.00  0.00    +0.028 A 
ATOM     20  C   UNL     1     -14.317   7.421  19.666  0.00  0.00    +0.028 A 
ATOM     22  C   UNL     1     -11.614   7.711  20.298  0.00  0.00    +0.006 A 
ATOM     23  C   UNL     1     -13.466   8.100  18.795  0.00  0.00    +0.006 A 
BRANCH  17  14
ATOM     14  C   UNL     1     -11.204   8.972  18.179  0.00  0.00    -0.013 C 
ATOM     24  C   UNL     1     -10.083   9.726  18.958  0.00  0.00    +0.015 C 
ATOM     25  C   UNL     1     -11.984  10.029  17.336  0.00  0.00    +0.015 C 
ATOM     26  C   UNL     1     -10.457   8.077  17.135  0.00  0.00    +0.015 C 
ENDBRANCH  17  14
ENDBRANCH   3  15
BRANCH   9   6
ATOM      6  C   UNL     1     -15.648   3.799  24.305  0.00  0.00    +0.047 C 
ATOM      7  C   UNL     1     -16.268   4.339  25.611  0.00  0.00    +0.039 C 
ATOM      8  C   UNL     1     -17.139   3.202  26.162  0.00  0.00    +0.097 C 
ATOM     10  C   UNL     1     -16.588   2.687  23.937  0.00  0.00    -0.021 C 
ATOM     11  C   UNL     1     -17.395   2.364  24.954  0.00  0.00    -0.009 C 
BRANCH   8   4
ATOM      2  O   UNL     1     -16.701   3.899  28.913  0.00  0.00    -0.270 OA
ATOM      4  N   UNL     1     -16.458   2.410  27.151  0.00  0.00    -0.305 N 
ATOM     21  C   UNL     1     -16.293   2.832  28.466  0.00  0.00    +0.251 C 
ATOM     31  H   UNL     1     -16.049   1.523  26.868  0.00  0.00    +0.150 HD
BRANCH  21  27
ATOM      1  S   UNL     1     -14.182   2.498  30.214  0.00  0.00    -0.092 S 
ATOM     27  C   UNL     1     -15.544   1.909  29.357  0.00  0.00    +0.074 A 
ATOM     28  C   UNL     1     -15.784   0.578  29.622  0.00  0.00    +0.021 A 
ATOM     29  C   UNL     1     -14.838   0.035  30.538  0.00  0.00    +0.008 A 
ATOM     30  C   UNL     1     -13.911   0.971  30.940  0.00  0.00    +0.046 A 
ENDBRANCH  21  27
ENDBRANCH   8   4
ENDBRANCH   9   6
TORSDOF 5
ENDMDL
MODEL 3
REMARK VINA RESULT:      -6.9     22.907     25.824
REMARK  Name = 40777706
REMARK  10 active torsions:
REMARK  status: ('A' for Active; 'I' for Inactive)
REMARK    1  A    between atoms: N_3  and  C_15
REMARK    2  A    between atoms: N_4  and  C_8
REMARK    3  A    between atoms: C_6  and  C_9
REMARK    4  A    between atoms: C_12  and  C_16
REMARK    5  A    between atoms: C_13  and  C_18
REMARK    6  A    between atoms: C_14  and  C_17
REMARK    7  A    between atoms: C_14  and  C_24
REMARK    8  A    between atoms: C_14  and  C_25
REMARK    9  A    between atoms: C_14  and  C_26
REMARK   10  A    between atoms: C_21  and  C_27
REMARK                            x       y       z     vdW  Elec       q    Type
REMARK                         _______ _______ _______ _____ _____    ______ ____
ROOT
ATOM      3  N   UNL     1     -13.690   6.516  33.370  0.00  0.00    -0.236 N 
ATOM      5  N   UNL     1     -13.073   7.624  32.928  0.00  0.00    -0.171 NA
ATOM      9  C   UNL     1     -12.954   7.451  35.202  0.00  0.00    +0.003 A 
ATOM     12  C   UNL     1     -13.648   6.365  34.725  0.00  0.00    +0.046 A 
ATOM     13  C   UNL     1     -12.626   8.192  34.051  0.00  0.00    +0.064 A 
ATOM     16  C   UNL     1     -14.260   5.222  35.434  0.00  0.00    +0.066 C 
ATOM     18  C   UNL     1     -11.880   9.461  33.975  0.00  0.00    +0.068 C 
ENDROOT
BRANCH   3  15
ATOM     15  C   UNL     1     -14.295   5.649  32.458  0.00  0.00    +0.066 A 
ATOM     17  C   UNL     1     -15.506   3.913  30.643  0.00  0.00    -0.042 A 
ATOM     19  C   UNL     1     -15.519   5.987  31.880  0.00  0.00    +0.028 A 
ATOM     20  C   UNL     1     -13.676   4.444  32.129  0.00  0.00    +0.028 A 
ATOM     22  C   UNL     1     -16.125   5.119  30.973  0.00  0.00    +0.006 A 
ATOM     23  C   UNL     1     -14.282   3.575  31.221  0.00  0.00    +0.006 A 
BRANCH  17  14
ATOM     14  C   UNL     1     -16.155   2.984  29.672  0.00  0.00    -0.013 C 
ATOM     24  C   UNL     1     -15.865   1.495  30.034  0.00  0.00    +0.015 C 
ATOM     25  C   UNL     1     -15.632   3.227  28.221  0.00  0.00    +0.015 C 
ATOM     26  C   UNL     1     -17.713   3.095  29.576  0.00  0.00    +0.015 C 
ENDBRANCH  17  14
ENDBRANCH   3  15
BRANCH   9   6
ATOM      6  C   UNL     1     -12.623   7.775  36.641  0.00  0.00    +0.047 C 
ATOM      7  C   UNL     1     -11.137   7.546  36.991  0.00  0.00    +0.039 C 
ATOM      8  C   UNL     1     -10.776   8.633  38.013  0.00  0.00    +0.097 C 
ATOM     10  C   UNL     1     -12.826   9.212  37.023  0.00  0.00    -0.021 C 
ATOM     11  C   UNL     1     -11.820   9.673  37.773  0.00  0.00    -0.009 C 
BRANCH   8   4
ATOM      2  O   UNL     1      -8.678   8.629  39.973  0.00  0.00    -0.270 OA
ATOM      4  N   UNL     1     -10.871   8.171  39.371  0.00  0.00    -0.305 N 
ATOM     21  C   UNL     1      -9.797   8.208  40.253  0.00  0.00    +0.251 C 
ATOM     31  H   UNL     1     -11.749   7.768  39.689  0.00  0.00    +0.150 HD
BRANCH  21  27
ATOM      1  S   UNL     1      -8.943   6.553  42.291  0.00  0.00    -0.092 S 
ATOM     27  C   UNL     1     -10.051   7.671  41.615  0.00  0.00    +0.074 A 
ATOM     28  C   UNL     1     -11.097   7.944  42.470  0.00  0.00    +0.021 A 
ATOM     29  C   UNL     1     -10.987   7.227  43.696  0.00  0.00    +0.008 A 
ATOM     30  C   UNL     1      -9.862   6.433  43.732  0.00  0.00    +0.046 A 
ENDBRANCH  21  27
ENDBRANCH   8   4
ENDBRANCH   9   6
TORSDOF 5
ENDMDL
MODEL 4
REMARK VINA RESULT:      -6.8      4.223     11.046
REMARK  Name = 40777706
REMARK  10 active torsions:
REMARK  status: ('A' for Active; 'I' for Inactive)
REMARK    1  A    between atoms: N_3  and  C_15
REMARK    2  A    between atoms: N_4  and  C_8
REMARK    3  A    between atoms: C_6  and  C_9
REMARK    4  A    between atoms: C_12  and  C_16
REMARK    5  A    between atoms: C_13  and  C_18
REMARK    6  A    between atoms: C_14  and  C_17
REMARK    7  A    between atoms: C_14  and  C_24
REMARK    8  A    between atoms: C_14  and  C_25
REMARK    9  A    between atoms: C_14  and  C_26
REMARK   10  A    between atoms: C_21  and  C_27
REMARK                            x       y       z     vdW  Elec       q    Type
REMARK                         _______ _______ _______ _____ _____    ______ ____
ROOT
ATOM      3  N   UNL     1      -9.314 -11.147  19.194  0.00  0.00    -0.236 N 
ATOM      5  N   UNL     1      -8.320 -11.176  20.097  0.00  0.00    -0.171 NA
ATOM      9  C   UNL     1      -7.512 -11.204  17.960  0.00  0.00    +0.003 A 
ATOM     12  C   UNL     1      -8.884 -11.162  17.899  0.00  0.00    +0.046 A 
ATOM     13  C   UNL     1      -7.221 -11.212  19.338  0.00  0.00    +0.064 A 
ATOM     16  C   UNL     1      -9.799 -11.136  16.740  0.00  0.00    +0.066 C 
ATOM     18  C   UNL     1      -5.896 -11.253  19.982  0.00  0.00    +0.068 C 
ENDROOT
BRANCH   3  15
ATOM     15  C   UNL     1     -10.641 -11.105  19.626  0.00  0.00    +0.066 A 
ATOM     17  C   UNL     1     -13.294 -11.020  20.481  0.00  0.00    -0.042 A 
ATOM     19  C   UNL     1     -11.331 -12.291  19.877  0.00  0.00    +0.028 A 
ATOM     20  C   UNL     1     -11.277  -9.876  19.802  0.00  0.00    +0.028 A 
ATOM     22  C   UNL     1     -12.658 -12.248  20.304  0.00  0.00    +0.006 A 
ATOM     23  C   UNL     1     -12.604  -9.834  20.229  0.00  0.00    +0.006 A 
BRANCH  17  14
ATOM     14  C   UNL     1     -14.714 -10.975  20.937  0.00  0.00    -0.013 C 
ATOM     24  C   UNL     1     -14.887 -11.684  22.316  0.00  0.00    +0.015 C 
ATOM     25  C   UNL     1     -15.658 -11.688  19.919  0.00  0.00    +0.015 C 
ATOM     26  C   UNL     1     -15.313  -9.542  21.127  0.00  0.00    +0.015 C 
ENDBRANCH  17  14
ENDBRANCH   3  15
BRANCH   9   6
ATOM      6  C   UNL     1      -6.537 -11.237  16.806  0.00  0.00    +0.047 C 
ATOM      7  C   UNL     1      -5.404 -10.198  16.934  0.00  0.00    +0.039 C 
ATOM      8  C   UNL     1      -4.161 -10.856  16.321  0.00  0.00    +0.097 C 
ATOM     10  C   UNL     1      -5.779 -12.525  16.662  0.00  0.00    -0.021 C 
ATOM     11  C   UNL     1      -4.487 -12.311  16.394  0.00  0.00    -0.009 C 
BRANCH   8   4
ATOM      2  O   UNL     1      -1.831 -11.389  14.729  0.00  0.00    -0.270 OA
ATOM      4  N   UNL     1      -3.957 -10.486  14.946  0.00  0.00    -0.305 N 
ATOM     21  C   UNL     1      -2.791 -10.788  14.253  0.00  0.00    +0.251 C 
ATOM     31  H   UNL     1      -4.681  -9.951  14.473  0.00  0.00    +0.150 HD
BRANCH  21  27
ATOM      1  S   UNL     1      -4.169 -10.226  11.928  0.00  0.00    -0.092 S 
ATOM     27  C   UNL     1      -2.726 -10.313  12.847  0.00  0.00    +0.074 A 
ATOM     28  C   UNL     1      -1.626  -9.908  12.121  0.00  0.00    +0.021 A 
ATOM     29  C   UNL     1      -1.973  -9.521  10.795  0.00  0.00    +0.008 A 
ATOM     30  C   UNL     1      -3.324  -9.646  10.556  0.00  0.00    +0.046 A 
ENDBRANCH  21  27
ENDBRANCH   8   4
ENDBRANCH   9   6
TORSDOF 5
ENDMDL
MODEL 5
REMARK VINA RESULT:      -6.7      7.216     12.840
REMARK  Name = 40777706
REMARK  10 active torsions:
REMARK  status: ('A' for Active; 'I' for Inactive)
REMARK    1  A    between atoms: N_3  and  C_15
REMARK    2  A    between atoms: N_4  and  C_8
REMARK    3  A    between atoms: C_6  and  C_9
REMARK    4  A    between atoms: C_12  and  C_16
REMARK    5  A    between atoms: C_13  and  C_18
REMARK    6  A    between atoms: C_14  and  C_17
REMARK    7  A    between atoms: C_14  and  C_24
REMARK    8  A    between atoms: C_14  and  C_25
REMARK    9  A    between atoms: C_14  and  C_26
REMARK   10  A    between atoms: C_21  and  C_27
REMARK                            x       y       z     vdW  Elec       q    Type
REMARK                         _______ _______ _______ _____ _____    ______ ____
ROOT
ATOM      3  N   UNL     1      -4.122 -10.688  13.583  0.00  0.00    -0.236 N 
ATOM      5  N   UNL     1      -2.815 -10.375  13.572  0.00  0.00    -0.171 NA
ATOM      9  C   UNL     1      -3.651 -10.559  11.453  0.00  0.00    +0.003 A 
ATOM     12  C   UNL     1      -4.670 -10.810  12.339  0.00  0.00    +0.046 A 
ATOM     13  C   UNL     1      -2.532 -10.298  12.269  0.00  0.00    +0.064 A 
ATOM     16  C   UNL     1      -6.089 -11.149  12.108  0.00  0.00    +0.066 C 
ATOM     18  C   UNL     1      -1.161  -9.969  11.843  0.00  0.00    +0.068 C 
ENDROOT
BRANCH   3  15
ATOM     15  C   UNL     1      -4.784 -10.854  14.800  0.00  0.00    +0.066 A 
ATOM     17  C   UNL     1      -6.113 -11.190  17.229  0.00  0.00    -0.042 A 
ATOM     19  C   UNL     1      -4.655 -12.051  15.506  0.00  0.00    +0.028 A 
ATOM     20  C   UNL     1      -5.577  -9.826  15.308  0.00  0.00    +0.028 A 
ATOM     22  C   UNL     1      -5.320 -12.218  16.721  0.00  0.00    +0.006 A 
ATOM     23  C   UNL     1      -6.242  -9.993  16.523  0.00  0.00    +0.006 A 
BRANCH  17  14
ATOM     14  C   UNL     1      -6.825 -11.370  18.528  0.00  0.00    -0.013 C 
ATOM     24  C   UNL     1      -8.164 -10.571  18.555  0.00  0.00    +0.015 C 
ATOM     25  C   UNL     1      -5.955 -10.870  19.723  0.00  0.00    +0.015 C 
ATOM     26  C   UNL     1      -7.211 -12.844  18.883  0.00  0.00    +0.015 C 
ENDBRANCH  17  14
ENDBRANCH   3  15
BRANCH   9   6
ATOM      6  C   UNL     1      -3.717 -10.566   9.944  0.00  0.00    +0.047 C 
ATOM      7  C   UNL     1      -4.694 -11.619   9.380  0.00  0.00    +0.039 C 
ATOM      8  C   UNL     1      -5.303 -10.993   8.119  0.00  0.00    +0.097 C 
ATOM     10  C   UNL     1      -4.228  -9.294   9.333  0.00  0.00    -0.021 C 
ATOM     11  C   UNL     1      -5.088  -9.532   8.337  0.00  0.00    -0.009 C 
BRANCH   8   4
ATOM      2  O   UNL     1      -6.526 -11.835   5.661  0.00  0.00    -0.270 OA
ATOM      4  N   UNL     1      -4.625 -11.397   6.916  0.00  0.00    -0.305 N 
ATOM     21  C   UNL     1      -5.303 -11.790   5.768  0.00  0.00    +0.251 C 
ATOM     31  H   UNL     1      -3.609 -11.430   6.917  0.00  0.00    +0.150 HD
BRANCH  21  27
ATOM      1  S   UNL     1      -5.208 -12.612   3.135  0.00  0.00    -0.092 S 
ATOM     27  C   UNL     1      -4.457 -12.202   4.619  0.00  0.00    +0.074 A 
ATOM     28  C   UNL     1      -3.085 -12.311   4.551  0.00  0.00    +0.021 A 
ATOM     29  C   UNL     1      -2.645 -12.737   3.265  0.00  0.00    +0.008 A 
ATOM     30  C   UNL     1      -3.697 -12.938   2.399  0.00  0.00    +0.046 A 
ENDBRANCH  21  27
ENDBRANCH   8   4
ENDBRANCH   9   6
TORSDOF 5
ENDMDL
MODEL 6
REMARK VINA RESULT:      -6.5     11.431     15.226
REMARK  Name = 40777706
REMARK  10 active torsions:
REMARK  status: ('A' for Active; 'I' for Inactive)
REMARK    1  A    between atoms: N_3  and  C_15
REMARK    2  A    between atoms: N_4  and  C_8
REMARK    3  A    between atoms: C_6  and  C_9
REMARK    4  A    between atoms: C_12  and  C_16
REMARK    5  A    between atoms: C_13  and  C_18
REMARK    6  A    between atoms: C_14  and  C_17
REMARK    7  A    between atoms: C_14  and  C_24
REMARK    8  A    between atoms: C_14  and  C_25
REMARK    9  A    between atoms: C_14  and  C_26
REMARK   10  A    between atoms: C_21  and  C_27
REMARK                            x       y       z     vdW  Elec       q    Type
REMARK                         _______ _______ _______ _____ _____    ______ ____
ROOT
ATOM      3  N   UNL     1      -6.664  -8.769   8.373  0.00  0.00    -0.236 N 
ATOM      5  N   UNL     1      -7.444  -7.724   8.699  0.00  0.00    -0.171 NA
ATOM      9  C   UNL     1      -7.903  -8.489   6.595  0.00  0.00    +0.003 A 
ATOM     12  C   UNL     1      -6.899  -9.264   7.123  0.00  0.00    +0.046 A 
ATOM     13  C   UNL     1      -8.198  -7.557   7.609  0.00  0.00    +0.064 A 
ATOM     16  C   UNL     1      -6.162 -10.409   6.552  0.00  0.00    +0.066 C 
ATOM     18  C   UNL     1      -9.202  -6.478   7.581  0.00  0.00    +0.068 C 
ENDROOT
BRANCH   3  15
ATOM     15  C   UNL     1      -5.724  -9.243   9.288  0.00  0.00    +0.066 A 
ATOM     17  C   UNL     1      -3.845 -10.185  11.122  0.00  0.00    -0.042 A 
ATOM     19  C   UNL     1      -6.107 -10.152  10.275  0.00  0.00    +0.028 A 
ATOM     20  C   UNL     1      -4.401  -8.806   9.217  0.00  0.00    +0.028 A 
ATOM     22  C   UNL     1      -5.168 -10.622  11.193  0.00  0.00    +0.006 A 
ATOM     23  C   UNL     1      -3.462  -9.277  10.135  0.00  0.00    +0.006 A 
BRANCH  17  14
ATOM     14  C   UNL     1      -2.841 -10.689  12.103  0.00  0.00    -0.013 C 
ATOM     24  C   UNL     1      -1.456 -10.002  11.899  0.00  0.00    +0.015 C 
ATOM     25  C   UNL     1      -2.629 -12.228  11.956  0.00  0.00    +0.015 C 
ATOM     26  C   UNL     1      -3.201 -10.461  13.609  0.00  0.00    +0.015 C 
ENDBRANCH  17  14
ENDBRANCH   3  15
BRANCH   9   6
ATOM      6  C   UNL     1      -8.543  -8.610   5.232  0.00  0.00    +0.047 C 
ATOM      7  C   UNL     1      -7.609  -8.183   4.079  0.00  0.00    +0.039 C 
ATOM      8  C   UNL     1      -7.954  -9.101   2.899  0.00  0.00    +0.097 C 
ATOM     10  C   UNL     1      -8.922 -10.008   4.838  0.00  0.00    -0.021 C 
ATOM     11  C   UNL     1      -8.602 -10.268   3.566  0.00  0.00    -0.009 C 
BRANCH   8   4
ATOM      2  O   UNL     1      -8.183  -9.638   0.088  0.00  0.00    -0.270 OA
ATOM      4  N   UNL     1      -8.887  -8.501   1.983  0.00  0.00    -0.305 N 
ATOM     21  C   UNL     1      -8.924  -8.825   0.632  0.00  0.00    +0.251 C 
ATOM     31  H   UNL     1      -9.520  -7.785   2.331  0.00  0.00    +0.150 HD
BRANCH  21  27
ATOM      1  S   UNL     1     -10.146  -8.537  -1.827  0.00  0.00    -0.092 S 
ATOM     27  C   UNL     1      -9.930  -8.098  -0.185  0.00  0.00    +0.074 A 
ATOM     28  C   UNL     1     -10.766  -7.068   0.188  0.00  0.00    +0.021 A 
ATOM     29  C   UNL     1     -11.594  -6.634  -0.887  0.00  0.00    +0.008 A 
ATOM     30  C   UNL     1     -11.360  -7.348  -2.041  0.00  0.00    +0.046 A 
ENDBRANCH  21  27
ENDBRANCH   8   4
ENDBRANCH   9   6
TORSDOF 5
ENDMDL
MODEL 7
REMARK VINA RESULT:      -6.4     27.952     30.563
REMARK  Name = 40777706
REMARK  10 active torsions:
REMARK  status: ('A' for Active; 'I' for Inactive)
REMARK    1  A    between atoms: N_3  and  C_15
REMARK    2  A    between atoms: N_4  and  C_8
REMARK    3  A    between atoms: C_6  and  C_9
REMARK    4  A    between atoms: C_12  and  C_16
REMARK    5  A    between atoms: C_13  and  C_18
REMARK    6  A    between atoms: C_14  and  C_17
REMARK    7  A    between atoms: C_14  and  C_24
REMARK    8  A    between atoms: C_14  and  C_25
REMARK    9  A    between atoms: C_14  and  C_26
REMARK   10  A    between atoms: C_21  and  C_27
REMARK                            x       y       z     vdW  Elec       q    Type
REMARK                         _______ _______ _______ _____ _____    ______ ____
ROOT
ATOM      3  N   UNL     1      10.527   5.226   3.302  0.00  0.00    -0.236 N 
ATOM      5  N   UNL     1      10.413   4.327   4.294  0.00  0.00    -0.171 NA
ATOM      9  C   UNL     1       9.860   6.429   5.000  0.00  0.00    +0.003 A 
ATOM     12  C   UNL     1      10.207   6.500   3.672  0.00  0.00    +0.046 A 
ATOM     13  C   UNL     1      10.007   5.067   5.329  0.00  0.00    +0.064 A 
ATOM     16  C   UNL     1      10.259   7.651   2.748  0.00  0.00    +0.066 C 
ATOM     18  C   UNL     1       9.768   4.422   6.632  0.00  0.00    +0.068 C 
ENDROOT
BRANCH   3  15
ATOM     15  C   UNL     1      10.940   4.811   2.035  0.00  0.00    +0.066 A 
ATOM     17  C   UNL     1      11.764   3.973  -0.494  0.00  0.00    -0.042 A 
ATOM     19  C   UNL     1      10.069   4.910   0.950  0.00  0.00    +0.028 A 
ATOM     20  C   UNL     1      12.223   4.293   1.856  0.00  0.00    +0.028 A 
ATOM     22  C   UNL     1      10.481   4.491  -0.315  0.00  0.00    +0.006 A 
ATOM     23  C   UNL     1      12.635   3.874   0.592  0.00  0.00    +0.006 A 
BRANCH  17  14
ATOM     14  C   UNL     1      12.204   3.525  -1.847  0.00  0.00    -0.013 C 
ATOM     24  C   UNL     1      13.688   3.921  -2.120  0.00  0.00    +0.015 C 
ATOM     25  C   UNL     1      11.331   4.170  -2.969  0.00  0.00    +0.015 C 
ATOM     26  C   UNL     1      12.131   1.982  -2.100  0.00  0.00    +0.015 C 
ENDBRANCH  17  14
ENDBRANCH   3  15
BRANCH   9   6
ATOM      6  C   UNL     1       9.423   7.560   5.901  0.00  0.00    +0.047 C 
ATOM      7  C   UNL     1      10.502   8.649   6.082  0.00  0.00    +0.039 C 
ATOM      8  C   UNL     1       9.742   9.976   6.200  0.00  0.00    +0.097 C 
ATOM     10  C   UNL     1       8.251   8.349   5.395  0.00  0.00    -0.021 C 
ATOM     11  C   UNL     1       8.428   9.663   5.564  0.00  0.00    -0.009 C 
BRANCH   8   4
ATOM      2  O   UNL     1      10.815  12.296   7.507  0.00  0.00    -0.270 OA
ATOM      4  N   UNL     1       9.523  10.371   7.566  0.00  0.00    -0.305 N 
ATOM     21  C   UNL     1      10.087  11.517   8.115  0.00  0.00    +0.251 C 
ATOM     31  H   UNL     1       8.963   9.768   8.164  0.00  0.00    +0.150 HD
BRANCH  21  27
ATOM      1  S   UNL     1      11.080  11.977  10.650  0.00  0.00    -0.092 S 
ATOM     27  C   UNL     1       9.785  11.771   9.547  0.00  0.00    +0.074 A 
ATOM     28  C   UNL     1       8.558  11.874  10.167  0.00  0.00    +0.021 A 
ATOM     29  C   UNL     1       8.683  12.125  11.563  0.00  0.00    +0.008 A 
ATOM     30  C   UNL     1      10.000  12.205  11.959  0.00  0.00    +0.046 A 
ENDBRANCH  21  27
ENDBRANCH   8   4
ENDBRANCH   9   6
TORSDOF 5
ENDMDL
MODEL 8
REMARK VINA RESULT:      -6.3     24.501     26.860
REMARK  Name = 40777706
REMARK  10 active torsions:
REMARK  status: ('A' for Active; 'I' for Inactive)
REMARK    1  A    between atoms: N_3  and  C_15
REMARK    2  A    between atoms: N_4  and  C_8
REMARK    3  A    between atoms: C_6  and  C_9
REMARK    4  A    between atoms: C_12  and  C_16
REMARK    5  A    between atoms: C_13  and  C_18
REMARK    6  A    between atoms: C_14  and  C_17
REMARK    7  A    between atoms: C_14  and  C_24
REMARK    8  A    between atoms: C_14  and  C_25
REMARK    9  A    between atoms: C_14  and  C_26
REMARK   10  A    between atoms: C_21  and  C_27
REMARK                            x       y       z     vdW  Elec       q    Type
REMARK                         _______ _______ _______ _____ _____    ______ ____
ROOT
ATOM      3  N   UNL     1     -12.776   8.498  33.203  0.00  0.00    -0.236 N 
ATOM      5  N   UNL     1     -13.461   7.349  33.330  0.00  0.00    -0.171 NA
ATOM      9  C   UNL     1     -12.591   8.031  35.330  0.00  0.00    +0.003 A 
ATOM     12  C   UNL     1     -12.235   8.950  34.372  0.00  0.00    +0.046 A 
ATOM     13  C   UNL     1     -13.344   7.068  34.631  0.00  0.00    +0.064 A 
ATOM     16  C   UNL     1     -11.441  10.191  34.471  0.00  0.00    +0.066 C 
ATOM     18  C   UNL     1     -13.977   5.851  35.169  0.00  0.00    +0.068 C 
ENDROOT
BRANCH   3  15
ATOM     15  C   UNL     1     -12.675   9.110  31.953  0.00  0.00    +0.066 A 
ATOM     17  C   UNL     1     -12.476  10.326  29.451  0.00  0.00    -0.042 A 
ATOM     19  C   UNL     1     -13.800   9.695  31.370  0.00  0.00    +0.028 A 
ATOM     20  C   UNL     1     -11.451   9.133  31.286  0.00  0.00    +0.028 A 
ATOM     22  C   UNL     1     -13.700  10.302  30.119  0.00  0.00    +0.006 A 
ATOM     23  C   UNL     1     -11.351   9.741  30.034  0.00  0.00    +0.006 A 
BRANCH  17  14
ATOM     14  C   UNL     1     -12.370  10.976  28.112  0.00  0.00    -0.013 C 
ATOM     24  C   UNL     1     -13.640  10.703  27.249  0.00  0.00    +0.015 C 
ATOM     25  C   UNL     1     -11.137  10.439  27.319  0.00  0.00    +0.015 C 
ATOM     26  C   UNL     1     -12.206  12.532  28.133  0.00  0.00    +0.015 C 
ENDBRANCH  17  14
ENDBRANCH   3  15
BRANCH   9   6
ATOM      6  C   UNL     1     -12.248   8.052  36.801  0.00  0.00    +0.047 C 
ATOM      7  C   UNL     1     -10.729   8.015  37.074  0.00  0.00    +0.039 C 
ATOM      8  C   UNL     1     -10.508   8.869  38.330  0.00  0.00    +0.097 C 
ATOM     10  C   UNL     1     -12.675   9.294  37.527  0.00  0.00    -0.021 C 
ATOM     11  C   UNL     1     -11.725   9.732  38.361  0.00  0.00    -0.009 C 
BRANCH   8   4
ATOM      2  O   UNL     1      -9.214   9.587  40.790  0.00  0.00    -0.270 OA
ATOM      4  N   UNL     1     -10.454   8.083  39.533  0.00  0.00    -0.305 N 
ATOM     21  C   UNL     1      -9.801   8.515  40.682  0.00  0.00    +0.251 C 
ATOM     31  H   UNL     1     -10.881   7.160  39.532  0.00  0.00    +0.150 HD
BRANCH  21  27
ATOM      1  S   UNL     1     -10.921   7.842  43.114  0.00  0.00    -0.092 S 
ATOM     27  C   UNL     1      -9.815   7.575  41.833  0.00  0.00    +0.074 A 
ATOM     28  C   UNL     1      -9.037   6.458  42.046  0.00  0.00    +0.021 A 
ATOM     29  C   UNL     1      -9.351   5.814  43.277  0.00  0.00    +0.008 A 
ATOM     30  C   UNL     1     -10.358   6.462  43.958  0.00  0.00    +0.046 A 
ENDBRANCH  21  27
ENDBRANCH   8   4
ENDBRANCH   9   6
TORSDOF 5
ENDMDL
MODEL 9
REMARK VINA RESULT:      -6.2     22.110     25.199
REMARK  Name = 40777706
REMARK  10 active torsions:
REMARK  status: ('A' for Active; 'I' for Inactive)
REMARK    1  A    between atoms: N_3  and  C_15
REMARK    2  A    between atoms: N_4  and  C_8
REMARK    3  A    between atoms: C_6  and  C_9
REMARK    4  A    between atoms: C_12  and  C_16
REMARK    5  A    between atoms: C_13  and  C_18
REMARK    6  A    between atoms: C_14  and  C_17
REMARK    7  A    between atoms: C_14  and  C_24
REMARK    8  A    between atoms: C_14  and  C_25
REMARK    9  A    between atoms: C_14  and  C_26
REMARK   10  A    between atoms: C_21  and  C_27
REMARK                            x       y       z     vdW  Elec       q    Type
REMARK                         _______ _______ _______ _____ _____    ______ ____
ROOT
ATOM      3  N   UNL     1     -12.332   8.120  35.392  0.00  0.00    -0.236 N 
ATOM      5  N   UNL     1     -12.155   8.963  34.361  0.00  0.00    -0.171 NA
ATOM      9  C   UNL     1     -13.536   7.232  33.799  0.00  0.00    +0.003 A 
ATOM     12  C   UNL     1     -13.151   7.067  35.108  0.00  0.00    +0.046 A 
ATOM     13  C   UNL     1     -12.891   8.416  33.391  0.00  0.00    +0.064 A 
ATOM     16  C   UNL     1     -13.489   6.014  36.088  0.00  0.00    +0.066 C 
ATOM     18  C   UNL     1     -12.950   9.067  32.070  0.00  0.00    +0.068 C 
ENDROOT
BRANCH   3  15
ATOM     15  C   UNL     1     -11.700   8.373  36.610  0.00  0.00    +0.066 A 
ATOM     17  C   UNL     1     -10.441   8.873  39.048  0.00  0.00    -0.042 A 
ATOM     19  C   UNL     1     -10.495   7.740  36.915  0.00  0.00    +0.028 A 
ATOM     20  C   UNL     1     -12.276   9.257  37.523  0.00  0.00    +0.028 A 
ATOM     22  C   UNL     1      -9.866   7.990  38.135  0.00  0.00    +0.006 A 
ATOM     23  C   UNL     1     -11.646   9.506  38.742  0.00  0.00    +0.006 A 
BRANCH  17  14
ATOM     14  C   UNL     1      -9.768   9.140  40.352  0.00  0.00    -0.013 C 
ATOM     24  C   UNL     1     -10.266  10.476  40.983  0.00  0.00    +0.015 C 
ATOM     25  C   UNL     1      -8.220   9.249  40.178  0.00  0.00    +0.015 C 
ATOM     26  C   UNL     1      -9.986   8.051  41.455  0.00  0.00    +0.015 C 
ENDBRANCH  17  14
ENDBRANCH   3  15
BRANCH   9   6
ATOM      6  C   UNL     1     -14.444   6.341  32.985  0.00  0.00    +0.047 C 
ATOM      7  C   UNL     1     -13.997   4.865  32.968  0.00  0.00    +0.039 C 
ATOM      8  C   UNL     1     -15.288   4.036  32.932  0.00  0.00    +0.097 C 
ATOM     10  C   UNL     1     -15.853   6.246  33.495  0.00  0.00    -0.021 C 
ATOM     11  C   UNL     1     -16.308   4.989  33.461  0.00  0.00    -0.009 C 
BRANCH   8   4
ATOM      2  O   UNL     1     -14.997   1.424  31.776  0.00  0.00    -0.270 OA
ATOM      4  N   UNL     1     -15.657   3.641  31.599  0.00  0.00    -0.305 N 
ATOM     21  C   UNL     1     -15.478   2.347  31.124  0.00  0.00    +0.251 C 
ATOM     31  H   UNL     1     -16.030   4.345  30.967  0.00  0.00    +0.150 HD
BRANCH  21  27
ATOM      1  S   UNL     1     -15.820   3.400  28.595  0.00  0.00    -0.092 S 
ATOM     27  C   UNL     1     -15.886   2.106  29.716  0.00  0.00    +0.074 A 
ATOM     28  C   UNL     1     -16.335   0.940  29.133  0.00  0.00    +0.021 A 
ATOM     29  C   UNL     1     -16.629   1.112  27.751  0.00  0.00    +0.008 A 
ATOM     30  C   UNL     1     -16.393   2.401  27.327  0.00  0.00    +0.046 A 
ENDBRANCH  21  27
ENDBRANCH   8   4
ENDBRANCH   9   6
TORSDOF 5
ENDMDL
MODEL 10
REMARK VINA RESULT:      -6.2     22.440     24.614
REMARK  Name = 40777706
REMARK  10 active torsions:
REMARK  status: ('A' for Active; 'I' for Inactive)
REMARK    1  A    between atoms: N_3  and  C_15
REMARK    2  A    between atoms: N_4  and  C_8
REMARK    3  A    between atoms: C_6  and  C_9
REMARK    4  A    between atoms: C_12  and  C_16
REMARK    5  A    between atoms: C_13  and  C_18
REMARK    6  A    between atoms: C_14  and  C_17
REMARK    7  A    between atoms: C_14  and  C_24
REMARK    8  A    between atoms: C_14  and  C_25
REMARK    9  A    between atoms: C_14  and  C_26
REMARK   10  A    between atoms: C_21  and  C_27
REMARK                            x       y       z     vdW  Elec       q    Type
REMARK                         _______ _______ _______ _____ _____    ______ ____
ROOT
ATOM      3  N   UNL     1     -11.124   9.870  33.277  0.00  0.00    -0.236 N 
ATOM      5  N   UNL     1     -11.404   9.605  34.564  0.00  0.00    -0.171 NA
ATOM      9  C   UNL     1     -12.616   8.279  33.153  0.00  0.00    +0.003 A 
ATOM     12  C   UNL     1     -11.823   9.104  32.391  0.00  0.00    +0.046 A 
ATOM     13  C   UNL     1     -12.316   8.633  34.483  0.00  0.00    +0.064 A 
ATOM     16  C   UNL     1     -11.679   9.221  30.926  0.00  0.00    +0.066 C 
ATOM     18  C   UNL     1     -12.882   8.065  35.719  0.00  0.00    +0.068 C 
ENDROOT
BRANCH   3  15
ATOM     15  C   UNL     1     -10.188  10.857  32.961  0.00  0.00    +0.066 A 
ATOM     17  C   UNL     1      -8.322  12.832  32.334  0.00  0.00    -0.042 A 
ATOM     19  C   UNL     1      -8.881  10.757  33.437  0.00  0.00    +0.028 A 
ATOM     20  C   UNL     1     -10.563  11.943  32.170  0.00  0.00    +0.028 A 
ATOM     22  C   UNL     1      -7.948  11.745  33.124  0.00  0.00    +0.006 A 
ATOM     23  C   UNL     1      -9.629  12.931  31.857  0.00  0.00    +0.006 A 
BRANCH  17  14
ATOM     14  C   UNL     1      -7.323  13.889  31.999  0.00  0.00    -0.013 C 
ATOM     24  C   UNL     1      -7.999  15.100  31.287  0.00  0.00    +0.015 C 
ATOM     25  C   UNL     1      -6.216  13.339  31.046  0.00  0.00    +0.015 C 
ATOM     26  C   UNL     1      -6.556  14.497  33.220  0.00  0.00    +0.015 C 
ENDBRANCH  17  14
ENDBRANCH   3  15
BRANCH   9   6
ATOM      6  C   UNL     1     -13.591   7.232  32.669  0.00  0.00    +0.047 C 
ATOM      7  C   UNL     1     -13.588   5.950  33.529  0.00  0.00    +0.039 C 
ATOM      8  C   UNL     1     -15.036   5.444  33.533  0.00  0.00    +0.097 C 
ATOM     10  C   UNL     1     -15.033   7.647  32.717  0.00  0.00    -0.021 C 
ATOM     11  C   UNL     1     -15.815   6.669  33.185  0.00  0.00    -0.009 C 
BRANCH   8   4
ATOM      2  O   UNL     1     -14.536   2.629  33.797  0.00  0.00    -0.270 OA
ATOM      4  N   UNL     1     -15.274   4.433  32.539  0.00  0.00    -0.305 N 
ATOM     21  C   UNL     1     -15.000   3.088  32.757  0.00  0.00    +0.251 C 
ATOM     31  H   UNL     1     -15.623   4.718  31.627  0.00  0.00    +0.150 HD
BRANCH  21  27
ATOM      1  S   UNL     1     -16.115   2.772  30.251  0.00  0.00    -0.092 S 
ATOM     27  C   UNL     1     -15.278   2.172  31.620  0.00  0.00    +0.074 A 
ATOM     28  C   UNL     1     -14.950   0.841  31.482  0.00  0.00    +0.021 A 
ATOM     29  C   UNL     1     -15.392   0.307  30.238  0.00  0.00    +0.008 A 
ATOM     30  C   UNL     1     -16.041   1.249  29.472  0.00  0.00    +0.046 A 
ENDBRANCH  21  27
ENDBRANCH   8   4
ENDBRANCH   9   6
TORSDOF 5
ENDMDL
