MODEL 1
REMARK VINA RESULT:      -6.7      0.000      0.000
REMARK  Name = 75536245
REMARK  7 active torsions:
REMARK  status: ('A' for Active; 'I' for Inactive)
REMARK    1  A    between atoms: O_3  and  C_13
REMARK    2  A    between atoms: N_6  and  C_17
REMARK    3  A    between atoms: C_8  and  C_18
REMARK    4  A    between atoms: C_11  and  C_17
REMARK    5  A    between atoms: C_14  and  C_19
REMARK    6  A    between atoms: C_19  and  C_20
REMARK    7  A    between atoms: C_22  and  C_23
REMARK                            x       y       z     vdW  Elec       q    Type
REMARK                         _______ _______ _______ _____ _____    ______ ____
ROOT
ATOM      2  O   UNL     1      10.745  11.365  22.030  0.00  0.00    -0.369 OA
ATOM     11  C   UNL     1      11.079  12.745  22.224  0.00  0.00    +0.164 C 
ATOM     13  C   UNL     1      10.894  13.164  23.688  0.00  0.00    +0.145 C 
ATOM     14  C   UNL     1      11.450  10.445  22.866  0.00  0.00    +0.125 C 
ATOM     15  C   UNL     1      11.571  12.200  24.658  0.00  0.00    +0.036 C 
ATOM     16  C   UNL     1      11.198  10.755  24.341  0.00  0.00    +0.034 C 
ENDROOT
BRANCH  13   3
ATOM      3  O   UNL     1       9.496  13.177  23.991  0.00  0.00    -0.389 OA
ATOM     30  H   UNL     1       9.047  13.670  23.283  0.00  0.00    +0.210 HD
ENDBRANCH  13   3
BRANCH  11  17
ATOM     17  C   UNL     1      12.474  13.054  21.687  0.00  0.00    +0.138 C 
BRANCH  17   6
ATOM      4  O   UNL     1      14.714  11.394  20.999  0.00  0.00    -0.276 OA
ATOM      6  N   UNL     1      12.701  12.393  20.437  0.00  0.00    -0.313 N 
ATOM     18  C   UNL     1      13.817  11.599  20.174  0.00  0.00    +0.216 C 
ATOM     29  H   UNL     1      12.024  12.538  19.694  0.00  0.00    +0.149 HD
BRANCH  18   8
ATOM      8  C   UNL     1      13.837  11.009  18.762  0.00  0.00    +0.075 C 
ATOM      9  C   UNL     1      14.970  10.009  18.408  0.00  0.00    +0.013 C 
ATOM     10  C   UNL     1      12.847   9.856  18.452  0.00  0.00    +0.013 C 
ATOM     12  C   UNL     1      13.940   9.244  17.555  0.00  0.00    +0.001 C 
ENDBRANCH  18   8
ENDBRANCH  17   6
ENDBRANCH  11  17
BRANCH  14  19
ATOM     19  C   UNL     1      10.966   9.043  22.515  0.00  0.00    +0.090 C 
BRANCH  19  20
ATOM      5  O   UNL     1      12.880   6.761  20.487  0.00  0.00    -0.354 OA
ATOM      7  N   UNL     1      11.678   7.282  20.951  0.00  0.00    -0.083 NA
ATOM     20  C   UNL     1      12.027   8.247  21.806  0.00  0.00    +0.087 A 
ATOM     21  C   UNL     1      13.422   8.378  21.921  0.00  0.00    +0.076 A 
ATOM     22  C   UNL     1      13.911   7.421  21.071  0.00  0.00    +0.167 A 
BRANCH  22  23
ATOM      1  F   UNL     1      19.004   5.755  19.577  0.00  0.00    -0.205 F 
ATOM     23  C   UNL     1      15.224   6.992  20.685  0.00  0.00    +0.020 A 
ATOM     24  C   UNL     1      15.446   6.496  19.401  0.00  0.00    +0.014 A 
ATOM     25  C   UNL     1      16.278   7.071  21.595  0.00  0.00    +0.014 A 
ATOM     26  C   UNL     1      16.723   6.078  19.026  0.00  0.00    +0.039 A 
ATOM     27  C   UNL     1      17.555   6.652  21.221  0.00  0.00    +0.039 A 
ATOM     28  C   UNL     1      17.778   6.157  19.936  0.00  0.00    +0.123 A 
ENDBRANCH  22  23
ENDBRANCH  19  20
ENDBRANCH  14  19
TORSDOF 7
ENDMDL
MODEL 2
REMARK VINA RESULT:      -6.6      2.551      5.287
REMARK  Name = 75536245
REMARK  7 active torsions:
REMARK  status: ('A' for Active; 'I' for Inactive)
REMARK    1  A    between atoms: O_3  and  C_13
REMARK    2  A    between atoms: N_6  and  C_17
REMARK    3  A    between atoms: C_8  and  C_18
REMARK    4  A    between atoms: C_11  and  C_17
REMARK    5  A    between atoms: C_14  and  C_19
REMARK    6  A    between atoms: C_19  and  C_20
REMARK    7  A    between atoms: C_22  and  C_23
REMARK                            x       y       z     vdW  Elec       q    Type
REMARK                         _______ _______ _______ _____ _____    ______ ____
ROOT
ATOM      2  O   UNL     1      12.983   9.003  19.930  0.00  0.00    -0.369 OA
ATOM     11  C   UNL     1      12.092   9.314  21.008  0.00  0.00    +0.164 C 
ATOM     13  C   UNL     1      11.104   8.169  21.263  0.00  0.00    +0.145 C 
ATOM     14  C   UNL     1      13.717   7.786  20.079  0.00  0.00    +0.125 C 
ATOM     15  C   UNL     1      11.800   6.816  21.380  0.00  0.00    +0.036 C 
ATOM     16  C   UNL     1      12.766   6.597  20.220  0.00  0.00    +0.034 C 
ENDROOT
BRANCH  13   3
ATOM      3  O   UNL     1      10.190   8.095  20.166  0.00  0.00    -0.389 OA
ATOM     30  H   UNL     1       9.452   7.522  20.437  0.00  0.00    +0.210 HD
ENDBRANCH  13   3
BRANCH  11  17
ATOM     17  C   UNL     1      12.863   9.727  22.259  0.00  0.00    +0.138 C 
BRANCH  17   6
ATOM      4  O   UNL     1      11.471  12.179  21.717  0.00  0.00    -0.276 OA
ATOM      6  N   UNL     1      12.025  10.455  23.162  0.00  0.00    -0.313 N 
ATOM     18  C   UNL     1      11.378  11.645  22.827  0.00  0.00    +0.216 C 
ATOM     29  H   UNL     1      11.923  10.098  24.107  0.00  0.00    +0.149 HD
BRANCH  18   8
ATOM      8  C   UNL     1      10.546  12.238  23.968  0.00  0.00    +0.075 C 
ATOM      9  C   UNL     1      11.121  12.155  25.406  0.00  0.00    +0.013 C 
ATOM     10  C   UNL     1      10.569  13.779  24.145  0.00  0.00    +0.013 C 
ATOM     12  C   UNL     1      10.499  13.540  25.665  0.00  0.00    +0.001 C 
ENDBRANCH  18   8
ENDBRANCH  17   6
ENDBRANCH  11  17
BRANCH  14  19
ATOM     19  C   UNL     1      14.602   7.630  18.849  0.00  0.00    +0.090 C 
BRANCH  19  20
ATOM      5  O   UNL     1      17.520   5.521  19.009  0.00  0.00    -0.354 OA
ATOM      7  N   UNL     1      16.312   5.908  18.441  0.00  0.00    -0.083 NA
ATOM     20  C   UNL     1      15.899   6.943  19.178  0.00  0.00    +0.087 A 
ATOM     21  C   UNL     1      16.797   7.251  20.214  0.00  0.00    +0.076 A 
ATOM     22  C   UNL     1      17.799   6.328  20.064  0.00  0.00    +0.167 A 
BRANCH  22  23
ATOM      1  F   UNL     1      22.556   5.251  22.739  0.00  0.00    -0.205 F 
ATOM     23  C   UNL     1      19.025   6.050  20.754  0.00  0.00    +0.020 A 
ATOM     24  C   UNL     1      19.327   6.724  21.937  0.00  0.00    +0.014 A 
ATOM     25  C   UNL     1      19.914   5.106  20.241  0.00  0.00    +0.014 A 
ATOM     26  C   UNL     1      20.520   6.454  22.608  0.00  0.00    +0.039 A 
ATOM     27  C   UNL     1      21.108   4.837  20.912  0.00  0.00    +0.039 A 
ATOM     28  C   UNL     1      21.410   5.510  22.096  0.00  0.00    +0.123 A 
ENDBRANCH  22  23
ENDBRANCH  19  20
ENDBRANCH  14  19
TORSDOF 7
ENDMDL
MODEL 3
REMARK VINA RESULT:      -6.4      3.441      6.512
REMARK  Name = 75536245
REMARK  7 active torsions:
REMARK  status: ('A' for Active; 'I' for Inactive)
REMARK    1  A    between atoms: O_3  and  C_13
REMARK    2  A    between atoms: N_6  and  C_17
REMARK    3  A    between atoms: C_8  and  C_18
REMARK    4  A    between atoms: C_11  and  C_17
REMARK    5  A    between atoms: C_14  and  C_19
REMARK    6  A    between atoms: C_19  and  C_20
REMARK    7  A    between atoms: C_22  and  C_23
REMARK                            x       y       z     vdW  Elec       q    Type
REMARK                         _______ _______ _______ _____ _____    ______ ____
ROOT
ATOM      2  O   UNL     1      10.818   8.527  19.752  0.00  0.00    -0.369 OA
ATOM     11  C   UNL     1      11.052   8.457  21.164  0.00  0.00    +0.164 C 
ATOM     13  C   UNL     1      11.641   7.098  21.565  0.00  0.00    +0.145 C 
ATOM     14  C   UNL     1      11.958   8.258  18.932  0.00  0.00    +0.125 C 
ATOM     15  C   UNL     1      12.834   6.703  20.699  0.00  0.00    +0.036 C 
ATOM     16  C   UNL     1      12.508   6.861  19.217  0.00  0.00    +0.034 C 
ENDROOT
BRANCH  13   3
ATOM      3  O   UNL     1      10.634   6.094  21.405  0.00  0.00    -0.389 OA
ATOM     30  H   UNL     1      11.016   5.247  21.692  0.00  0.00    +0.210 HD
ENDBRANCH  13   3
BRANCH  11  17
ATOM     17  C   UNL     1      11.895   9.636  21.642  0.00  0.00    +0.138 C 
BRANCH  17   6
ATOM      4  O   UNL     1      11.798  12.482  22.014  0.00  0.00    -0.276 OA
ATOM      6  N   UNL     1      11.237  10.342  22.700  0.00  0.00    -0.313 N 
ATOM     18  C   UNL     1      11.233  11.732  22.816  0.00  0.00    +0.216 C 
ATOM     29  H   UNL     1      10.775   9.794  23.420  0.00  0.00    +0.149 HD
BRANCH  18   8
ATOM      8  C   UNL     1      10.470  12.248  24.039  0.00  0.00    +0.075 C 
ATOM      9  C   UNL     1      11.218  12.292  25.398  0.00  0.00    +0.013 C 
ATOM     10  C   UNL     1      10.302  13.782  24.185  0.00  0.00    +0.013 C 
ATOM     12  C   UNL     1      10.447  13.589  25.706  0.00  0.00    +0.001 C 
ENDBRANCH  18   8
ENDBRANCH  17   6
ENDBRANCH  11  17
BRANCH  14  19
ATOM     19  C   UNL     1      11.516   8.382  17.479  0.00  0.00    +0.090 C 
BRANCH  19  20
ATOM      5  O   UNL     1      13.411  10.057  14.913  0.00  0.00    -0.354 OA
ATOM      7  N   UNL     1      12.368   9.244  15.337  0.00  0.00    -0.083 NA
ATOM     20  C   UNL     1      12.491   9.189  16.666  0.00  0.00    +0.087 A 
ATOM     21  C   UNL     1      13.584   9.941  17.132  0.00  0.00    +0.076 A 
ATOM     22  C   UNL     1      14.128  10.467  15.989  0.00  0.00    +0.167 A 
BRANCH  22  23
ATOM      1  F   UNL     1      18.456  13.785  14.889  0.00  0.00    -0.205 F 
ATOM     23  C   UNL     1      15.244  11.322  15.706  0.00  0.00    +0.020 A 
ATOM     24  C   UNL     1      15.515  12.412  16.534  0.00  0.00    +0.014 A 
ATOM     25  C   UNL     1      16.057  11.063  14.603  0.00  0.00    +0.014 A 
ATOM     26  C   UNL     1      16.600  13.244  16.258  0.00  0.00    +0.039 A 
ATOM     27  C   UNL     1      17.142  11.897  14.326  0.00  0.00    +0.039 A 
ATOM     28  C   UNL     1      17.414  12.986  15.154  0.00  0.00    +0.123 A 
ENDBRANCH  22  23
ENDBRANCH  19  20
ENDBRANCH  14  19
TORSDOF 7
ENDMDL
MODEL 4
REMARK VINA RESULT:      -6.3      3.986      7.273
REMARK  Name = 75536245
REMARK  7 active torsions:
REMARK  status: ('A' for Active; 'I' for Inactive)
REMARK    1  A    between atoms: O_3  and  C_13
REMARK    2  A    between atoms: N_6  and  C_17
REMARK    3  A    between atoms: C_8  and  C_18
REMARK    4  A    between atoms: C_11  and  C_17
REMARK    5  A    between atoms: C_14  and  C_19
REMARK    6  A    between atoms: C_19  and  C_20
REMARK    7  A    between atoms: C_22  and  C_23
REMARK                            x       y       z     vdW  Elec       q    Type
REMARK                         _______ _______ _______ _____ _____    ______ ____
ROOT
ATOM      2  O   UNL     1      19.506   7.121  22.199  0.00  0.00    -0.369 OA
ATOM     11  C   UNL     1      20.042   8.271  22.867  0.00  0.00    +0.164 C 
ATOM     13  C   UNL     1      21.573   8.300  22.785  0.00  0.00    +0.145 C 
ATOM     14  C   UNL     1      19.898   6.973  20.833  0.00  0.00    +0.125 C 
ATOM     15  C   UNL     1      22.083   8.092  21.362  0.00  0.00    +0.036 C 
ATOM     16  C   UNL     1      21.419   6.880  20.716  0.00  0.00    +0.034 C 
ENDROOT
BRANCH  13   3
ATOM      3  O   UNL     1      22.098   7.246  23.595  0.00  0.00    -0.389 OA
ATOM     30  H   UNL     1      22.254   7.608  24.484  0.00  0.00    +0.210 HD
ENDBRANCH  13   3
BRANCH  11  17
ATOM     17  C   UNL     1      19.392   9.555  22.357  0.00  0.00    +0.138 C 
BRANCH  17   6
ATOM      4  O   UNL     1      17.565  11.202  20.875  0.00  0.00    -0.276 OA
ATOM      6  N   UNL     1      17.967   9.423  22.303  0.00  0.00    -0.313 N 
ATOM     18  C   UNL     1      17.141  10.264  21.558  0.00  0.00    +0.216 C 
ATOM     29  H   UNL     1      17.537   8.694  22.865  0.00  0.00    +0.149 HD
BRANCH  18   8
ATOM      8  C   UNL     1      15.652   9.926  21.671  0.00  0.00    +0.075 C 
ATOM      9  C   UNL     1      14.846  10.570  22.830  0.00  0.00    +0.013 C 
ATOM     10  C   UNL     1      14.677  10.654  20.710  0.00  0.00    +0.013 C 
ATOM     12  C   UNL     1      13.653  10.666  21.861  0.00  0.00    +0.001 C 
ENDBRANCH  18   8
ENDBRANCH  17   6
ENDBRANCH  11  17
BRANCH  14  19
ATOM     19  C   UNL     1      19.234   5.710  20.300  0.00  0.00    +0.090 C 
BRANCH  19  20
ATOM      5  O   UNL     1      16.150   5.948  18.452  0.00  0.00    -0.354 OA
ATOM      7  N   UNL     1      17.467   5.530  18.597  0.00  0.00    -0.083 NA
ATOM     20  C   UNL     1      17.842   5.979  19.798  0.00  0.00    +0.087 A 
ATOM     21  C   UNL     1      16.814   6.682  20.449  0.00  0.00    +0.076 A 
ATOM     22  C   UNL     1      15.772   6.633  19.561  0.00  0.00    +0.167 A 
BRANCH  22  23
ATOM      1  F   UNL     1      10.551   8.554  19.549  0.00  0.00    -0.205 F 
ATOM     23  C   UNL     1      14.426   7.129  19.558  0.00  0.00    +0.020 A 
ATOM     24  C   UNL     1      13.607   6.927  20.669  0.00  0.00    +0.014 A 
ATOM     25  C   UNL     1      13.938   7.812  18.445  0.00  0.00    +0.014 A 
ATOM     26  C   UNL     1      12.298   7.409  20.666  0.00  0.00    +0.039 A 
ATOM     27  C   UNL     1      12.627   8.293  18.442  0.00  0.00    +0.039 A 
ATOM     28  C   UNL     1      11.808   8.092  19.553  0.00  0.00    +0.123 A 
ENDBRANCH  22  23
ENDBRANCH  19  20
ENDBRANCH  14  19
TORSDOF 7
ENDMDL
MODEL 5
REMARK VINA RESULT:      -6.3     27.939     30.498
REMARK  Name = 75536245
REMARK  7 active torsions:
REMARK  status: ('A' for Active; 'I' for Inactive)
REMARK    1  A    between atoms: O_3  and  C_13
REMARK    2  A    between atoms: N_6  and  C_17
REMARK    3  A    between atoms: C_8  and  C_18
REMARK    4  A    between atoms: C_11  and  C_17
REMARK    5  A    between atoms: C_14  and  C_19
REMARK    6  A    between atoms: C_19  and  C_20
REMARK    7  A    between atoms: C_22  and  C_23
REMARK                            x       y       z     vdW  Elec       q    Type
REMARK                         _______ _______ _______ _____ _____    ______ ____
ROOT
ATOM      2  O   UNL     1     -16.193   2.131  24.621  0.00  0.00    -0.369 OA
ATOM     11  C   UNL     1     -16.108   3.257  23.738  0.00  0.00    +0.164 C 
ATOM     13  C   UNL     1     -17.446   4.004  23.656  0.00  0.00    +0.145 C 
ATOM     14  C   UNL     1     -16.637   2.429  25.946  0.00  0.00    +0.125 C 
ATOM     15  C   UNL     1     -18.024   4.314  25.034  0.00  0.00    +0.036 C 
ATOM     16  C   UNL     1     -18.024   3.071  25.918  0.00  0.00    +0.034 C 
ENDROOT
BRANCH  13   3
ATOM      3  O   UNL     1     -18.389   3.184  22.961  0.00  0.00    -0.389 OA
ATOM     30  H   UNL     1     -18.474   2.351  23.456  0.00  0.00    +0.210 HD
ENDBRANCH  13   3
BRANCH  11  17
ATOM     17  C   UNL     1     -14.940   4.165  24.115  0.00  0.00    +0.138 C 
BRANCH  17   6
ATOM      4  O   UNL     1     -15.001   6.873  23.159  0.00  0.00    -0.276 OA
ATOM      6  N   UNL     1     -14.290   4.678  22.947  0.00  0.00    -0.313 N 
ATOM     18  C   UNL     1     -14.365   6.011  22.543  0.00  0.00    +0.216 C 
ATOM     29  H   UNL     1     -13.773   4.024  22.366  0.00  0.00    +0.149 HD
BRANCH  18   8
ATOM      8  C   UNL     1     -13.594   6.311  21.255  0.00  0.00    +0.075 C 
ATOM      9  C   UNL     1     -13.431   7.795  20.834  0.00  0.00    +0.013 C 
ATOM     10  C   UNL     1     -12.045   6.254  21.317  0.00  0.00    +0.013 C 
ATOM     12  C   UNL     1     -12.026   7.428  20.321  0.00  0.00    +0.001 C 
ENDBRANCH  18   8
ENDBRANCH  17   6
ENDBRANCH  11  17
BRANCH  14  19
ATOM     19  C   UNL     1     -16.661   1.121  26.727  0.00  0.00    +0.090 C 
BRANCH  19  20
ATOM      5  O   UNL     1     -15.963   0.837  30.250  0.00  0.00    -0.354 OA
ATOM      7  N   UNL     1     -16.389   0.314  29.036  0.00  0.00    -0.083 NA
ATOM     20  C   UNL     1     -16.279   1.324  28.168  0.00  0.00    +0.087 A 
ATOM     21  C   UNL     1     -15.796   2.497  28.773  0.00  0.00    +0.076 A 
ATOM     22  C   UNL     1     -15.613   2.137  30.082  0.00  0.00    +0.167 A 
BRANCH  22  23
ATOM      1  F   UNL     1     -13.811   4.766  34.641  0.00  0.00    -0.205 F 
ATOM     23  C   UNL     1     -15.148   2.814  31.258  0.00  0.00    +0.020 A 
ATOM     24  C   UNL     1     -15.016   2.117  32.459  0.00  0.00    +0.014 A 
ATOM     25  C   UNL     1     -14.827   4.170  31.199  0.00  0.00    +0.014 A 
ATOM     26  C   UNL     1     -14.564   2.776  33.602  0.00  0.00    +0.039 A 
ATOM     27  C   UNL     1     -14.376   4.830  32.343  0.00  0.00    +0.039 A 
ATOM     28  C   UNL     1     -14.244   4.133  33.544  0.00  0.00    +0.123 A 
ENDBRANCH  22  23
ENDBRANCH  19  20
ENDBRANCH  14  19
TORSDOF 7
ENDMDL
MODEL 6
REMARK VINA RESULT:      -6.1     27.039     28.915
REMARK  Name = 75536245
REMARK  7 active torsions:
REMARK  status: ('A' for Active; 'I' for Inactive)
REMARK    1  A    between atoms: O_3  and  C_13
REMARK    2  A    between atoms: N_6  and  C_17
REMARK    3  A    between atoms: C_8  and  C_18
REMARK    4  A    between atoms: C_11  and  C_17
REMARK    5  A    between atoms: C_14  and  C_19
REMARK    6  A    between atoms: C_19  and  C_20
REMARK    7  A    between atoms: C_22  and  C_23
REMARK                            x       y       z     vdW  Elec       q    Type
REMARK                         _______ _______ _______ _____ _____    ______ ____
ROOT
ATOM      2  O   UNL     1      -4.118 -12.356  15.893  0.00  0.00    -0.369 OA
ATOM     11  C   UNL     1      -5.368 -12.753  16.472  0.00  0.00    +0.164 C 
ATOM     13  C   UNL     1      -5.245 -12.939  17.990  0.00  0.00    +0.145 C 
ATOM     14  C   UNL     1      -3.533 -11.180  16.457  0.00  0.00    +0.125 C 
ATOM     15  C   UNL     1      -4.576 -11.748  18.670  0.00  0.00    +0.036 C 
ATOM     16  C   UNL     1      -3.284 -11.366  17.953  0.00  0.00    +0.034 C 
ENDROOT
BRANCH  13   3
ATOM      3  O   UNL     1      -4.445 -14.096  18.250  0.00  0.00    -0.389 OA
ATOM     30  H   UNL     1      -3.856 -14.223  17.486  0.00  0.00    +0.210 HD
ENDBRANCH  13   3
BRANCH  11  17
ATOM     17  C   UNL     1      -6.487 -11.793  16.077  0.00  0.00    +0.138 C 
BRANCH  17   6
ATOM      4  O   UNL     1      -8.002  -9.787  14.689  0.00  0.00    -0.276 OA
ATOM      6  N   UNL     1      -6.436 -11.494  14.678  0.00  0.00    -0.313 N 
ATOM     18  C   UNL     1      -7.205 -10.501  14.071  0.00  0.00    +0.216 C 
ATOM     29  H   UNL     1      -5.828 -12.060  14.094  0.00  0.00    +0.149 HD
BRANCH  18   8
ATOM      8  C   UNL     1      -6.980 -10.381  12.561  0.00  0.00    +0.075 C 
ATOM      9  C   UNL     1      -8.226 -10.397  11.637  0.00  0.00    +0.013 C 
ATOM     10  C   UNL     1      -6.688  -8.969  11.991  0.00  0.00    +0.013 C 
ATOM     12  C   UNL     1      -7.497  -9.375  10.745  0.00  0.00    +0.001 C 
ENDBRANCH  18   8
ENDBRANCH  17   6
ENDBRANCH  11  17
BRANCH  14  19
ATOM     19  C   UNL     1      -2.226 -10.920  15.717  0.00  0.00    +0.090 C 
BRANCH  19  20
ATOM      5  O   UNL     1      -2.028 -11.654  12.195  0.00  0.00    -0.354 OA
ATOM      7  N   UNL     1      -1.602 -11.807  13.509  0.00  0.00    -0.083 NA
ATOM     20  C   UNL     1      -2.400 -11.012  14.226  0.00  0.00    +0.087 A 
ATOM     21  C   UNL     1      -3.339 -10.338  13.427  0.00  0.00    +0.076 A 
ATOM     22  C   UNL     1      -3.063 -10.777  12.158  0.00  0.00    +0.167 A 
BRANCH  22  23
ATOM      1  F   UNL     1      -5.199  -9.772   7.121  0.00  0.00    -0.205 F 
ATOM     23  C   UNL     1      -3.614 -10.518  10.860  0.00  0.00    +0.020 A 
ATOM     24  C   UNL     1      -4.283 -11.531  10.172  0.00  0.00    +0.014 A 
ATOM     25  C   UNL     1      -3.481  -9.254  10.286  0.00  0.00    +0.014 A 
ATOM     26  C   UNL     1      -4.819 -11.279   8.909  0.00  0.00    +0.039 A 
ATOM     27  C   UNL     1      -4.016  -9.003   9.022  0.00  0.00    +0.039 A 
ATOM     28  C   UNL     1      -4.686 -10.014   8.334  0.00  0.00    +0.123 A 
ENDBRANCH  22  23
ENDBRANCH  19  20
ENDBRANCH  14  19
TORSDOF 7
ENDMDL
MODEL 7
REMARK VINA RESULT:      -6.1     26.946     28.864
REMARK  Name = 75536245
REMARK  7 active torsions:
REMARK  status: ('A' for Active; 'I' for Inactive)
REMARK    1  A    between atoms: O_3  and  C_13
REMARK    2  A    between atoms: N_6  and  C_17
REMARK    3  A    between atoms: C_8  and  C_18
REMARK    4  A    between atoms: C_11  and  C_17
REMARK    5  A    between atoms: C_14  and  C_19
REMARK    6  A    between atoms: C_19  and  C_20
REMARK    7  A    between atoms: C_22  and  C_23
REMARK                            x       y       z     vdW  Elec       q    Type
REMARK                         _______ _______ _______ _____ _____    ______ ____
ROOT
ATOM      2  O   UNL     1      -3.157  -9.573  10.297  0.00  0.00    -0.369 OA
ATOM     11  C   UNL     1      -4.255  -9.303   9.416  0.00  0.00    +0.164 C 
ATOM     13  C   UNL     1      -5.000 -10.591   9.041  0.00  0.00    +0.145 C 
ATOM     14  C   UNL     1      -3.497 -10.276  11.494  0.00  0.00    +0.125 C 
ATOM     15  C   UNL     1      -5.353 -11.434  10.262  0.00  0.00    +0.036 C 
ATOM     16  C   UNL     1      -4.138 -11.624  11.165  0.00  0.00    +0.034 C 
ENDROOT
BRANCH  13   3
ATOM      3  O   UNL     1      -4.159 -11.379   8.194  0.00  0.00    -0.389 OA
ATOM     30  H   UNL     1      -3.816 -12.117   8.727  0.00  0.00    +0.210 HD
ENDBRANCH  13   3
BRANCH  11  17
ATOM     17  C   UNL     1      -5.173  -8.230   9.996  0.00  0.00    +0.138 C 
BRANCH  17   6
ATOM      4  O   UNL     1      -8.031  -8.514   9.939  0.00  0.00    -0.276 OA
ATOM      6  N   UNL     1      -6.067  -7.725   8.997  0.00  0.00    -0.313 N 
ATOM     18  C   UNL     1      -7.450  -7.903   9.036  0.00  0.00    +0.216 C 
ATOM     29  H   UNL     1      -5.663  -7.238   8.202  0.00  0.00    +0.149 HD
BRANCH  18   8
ATOM      8  C   UNL     1      -8.187  -7.280   7.848  0.00  0.00    +0.075 C 
ATOM      9  C   UNL     1      -9.515  -7.939   7.389  0.00  0.00    +0.013 C 
ATOM     10  C   UNL     1      -9.020  -5.999   8.113  0.00  0.00    +0.013 C 
ATOM     12  C   UNL     1     -10.035  -6.522   7.080  0.00  0.00    +0.001 C 
ENDBRANCH  18   8
ENDBRANCH  17   6
ENDBRANCH  11  17
BRANCH  14  19
ATOM     19  C   UNL     1      -2.213 -10.467  12.293  0.00  0.00    +0.090 C 
BRANCH  19  20
ATOM      5  O   UNL     1      -2.073 -10.434  15.894  0.00  0.00    -0.354 OA
ATOM      7  N   UNL     1      -1.491 -10.297  14.640  0.00  0.00    -0.083 NA
ATOM     20  C   UNL     1      -2.480 -10.529  13.772  0.00  0.00    +0.087 A 
ATOM     21  C   UNL     1      -3.697 -10.815  14.416  0.00  0.00    +0.076 A 
ATOM     22  C   UNL     1      -3.386 -10.743  15.748  0.00  0.00    +0.167 A 
BRANCH  22  23
ATOM      1  F   UNL     1      -6.254 -11.409  20.468  0.00  0.00    -0.205 F 
ATOM     23  C   UNL     1      -4.125 -10.914  16.966  0.00  0.00    +0.020 A 
ATOM     24  C   UNL     1      -3.582 -11.660  18.012  0.00  0.00    +0.014 A 
ATOM     25  C   UNL     1      -5.386 -10.335  17.102  0.00  0.00    +0.014 A 
ATOM     26  C   UNL     1      -4.301 -11.827  19.195  0.00  0.00    +0.039 A 
ATOM     27  C   UNL     1      -6.106 -10.503  18.286  0.00  0.00    +0.039 A 
ATOM     28  C   UNL     1      -5.563 -11.248  19.333  0.00  0.00    +0.123 A 
ENDBRANCH  22  23
ENDBRANCH  19  20
ENDBRANCH  14  19
TORSDOF 7
ENDMDL
MODEL 8
REMARK VINA RESULT:      -6.0     27.341     28.870
REMARK  Name = 75536245
REMARK  7 active torsions:
REMARK  status: ('A' for Active; 'I' for Inactive)
REMARK    1  A    between atoms: O_3  and  C_13
REMARK    2  A    between atoms: N_6  and  C_17
REMARK    3  A    between atoms: C_8  and  C_18
REMARK    4  A    between atoms: C_11  and  C_17
REMARK    5  A    between atoms: C_14  and  C_19
REMARK    6  A    between atoms: C_19  and  C_20
REMARK    7  A    between atoms: C_22  and  C_23
REMARK                            x       y       z     vdW  Elec       q    Type
REMARK                         _______ _______ _______ _____ _____    ______ ____
ROOT
ATOM      2  O   UNL     1      -6.794 -11.558  17.245  0.00  0.00    -0.369 OA
ATOM     11  C   UNL     1      -7.788 -10.749  17.889  0.00  0.00    +0.164 C 
ATOM     13  C   UNL     1      -7.788 -10.969  19.407  0.00  0.00    +0.145 C 
ATOM     14  C   UNL     1      -5.462 -11.390  17.736  0.00  0.00    +0.125 C 
ATOM     15  C   UNL     1      -6.390 -10.864  20.010  0.00  0.00    +0.036 C 
ATOM     16  C   UNL     1      -5.393 -11.715  19.228  0.00  0.00    +0.034 C 
ENDROOT
BRANCH  13   3
ATOM      3  O   UNL     1      -8.284 -12.282  19.683  0.00  0.00    -0.389 OA
ATOM     30  H   UNL     1      -7.611 -12.746  20.210  0.00  0.00    +0.210 HD
ENDBRANCH  13   3
BRANCH  11  17
ATOM     17  C   UNL     1      -7.639  -9.281  17.498  0.00  0.00    +0.138 C 
BRANCH  17   6
ATOM      4  O   UNL     1      -9.397  -8.741  15.292  0.00  0.00    -0.276 OA
ATOM      6  N   UNL     1      -8.901  -8.607  17.552  0.00  0.00    -0.313 N 
ATOM     18  C   UNL     1      -9.704  -8.379  16.433  0.00  0.00    +0.216 C 
ATOM     29  H   UNL     1      -9.210  -8.248  18.450  0.00  0.00    +0.149 HD
BRANCH  18   8
ATOM      8  C   UNL     1     -11.001  -7.629  16.746  0.00  0.00    +0.075 C 
ATOM      9  C   UNL     1     -11.128  -6.162  16.255  0.00  0.00    +0.013 C 
ATOM     10  C   UNL     1     -12.238  -7.936  15.862  0.00  0.00    +0.013 C 
ATOM     12  C   UNL     1     -12.619  -6.449  15.990  0.00  0.00    +0.001 C 
ENDBRANCH  18   8
ENDBRANCH  17   6
ENDBRANCH  11  17
BRANCH  14  19
ATOM     19  C   UNL     1      -4.559 -12.321  16.936  0.00  0.00    +0.090 C 
BRANCH  19  20
ATOM      5  O   UNL     1      -2.620 -10.750  14.336  0.00  0.00    -0.354 OA
ATOM      7  N   UNL     1      -2.752 -11.328  15.592  0.00  0.00    -0.083 NA
ATOM     20  C   UNL     1      -4.042 -11.660  15.687  0.00  0.00    +0.087 A 
ATOM     21  C   UNL     1      -4.767 -11.317  14.533  0.00  0.00    +0.076 A 
ATOM     22  C   UNL     1      -3.826 -10.748  13.714  0.00  0.00    +0.167 A 
BRANCH  22  23
ATOM      1  F   UNL     1      -3.911  -8.541   8.608  0.00  0.00    -0.205 F 
ATOM     23  C   UNL     1      -3.848 -10.180  12.398  0.00  0.00    +0.020 A 
ATOM     24  C   UNL     1      -2.672 -10.106  11.650  0.00  0.00    +0.014 A 
ATOM     25  C   UNL     1      -5.045  -9.701  11.866  0.00  0.00    +0.014 A 
ATOM     26  C   UNL     1      -2.693  -9.553  10.370  0.00  0.00    +0.039 A 
ATOM     27  C   UNL     1      -5.066  -9.146  10.585  0.00  0.00    +0.039 A 
ATOM     28  C   UNL     1      -3.890  -9.073   9.837  0.00  0.00    +0.123 A 
ENDBRANCH  22  23
ENDBRANCH  19  20
ENDBRANCH  14  19
TORSDOF 7
ENDMDL
MODEL 9
REMARK VINA RESULT:      -5.9      4.200      6.971
REMARK  Name = 75536245
REMARK  7 active torsions:
REMARK  status: ('A' for Active; 'I' for Inactive)
REMARK    1  A    between atoms: O_3  and  C_13
REMARK    2  A    between atoms: N_6  and  C_17
REMARK    3  A    between atoms: C_8  and  C_18
REMARK    4  A    between atoms: C_11  and  C_17
REMARK    5  A    between atoms: C_14  and  C_19
REMARK    6  A    between atoms: C_19  and  C_20
REMARK    7  A    between atoms: C_22  and  C_23
REMARK                            x       y       z     vdW  Elec       q    Type
REMARK                         _______ _______ _______ _____ _____    ______ ____
ROOT
ATOM      2  O   UNL     1      16.436   8.981  20.997  0.00  0.00    -0.369 OA
ATOM     11  C   UNL     1      15.035   8.708  20.868  0.00  0.00    +0.164 C 
ATOM     13  C   UNL     1      14.773   7.616  19.823  0.00  0.00    +0.145 C 
ATOM     14  C   UNL     1      17.251   7.846  21.301  0.00  0.00    +0.125 C 
ATOM     15  C   UNL     1      15.646   6.383  20.040  0.00  0.00    +0.036 C 
ATOM     16  C   UNL     1      17.110   6.776  20.219  0.00  0.00    +0.034 C 
ENDROOT
BRANCH  13   3
ATOM      3  O   UNL     1      15.070   8.139  18.526  0.00  0.00    -0.389 OA
ATOM     30  H   UNL     1      15.884   8.666  18.600  0.00  0.00    +0.210 HD
ENDBRANCH  13   3
BRANCH  11  17
ATOM     17  C   UNL     1      14.407   8.399  22.225  0.00  0.00    +0.138 C 
BRANCH  17   6
ATOM      4  O   UNL     1      11.646   8.254  21.450  0.00  0.00    -0.276 OA
ATOM      6  N   UNL     1      13.376   9.342  22.540  0.00  0.00    -0.313 N 
ATOM     18  C   UNL     1      12.051   9.205  22.127  0.00  0.00    +0.216 C 
ATOM     29  H   UNL     1      13.636  10.170  23.067  0.00  0.00    +0.149 HD
BRANCH  18   8
ATOM      8  C   UNL     1      11.140  10.349  22.581  0.00  0.00    +0.075 C 
ATOM      9  C   UNL     1      11.532  11.122  23.868  0.00  0.00    +0.013 C 
ATOM     10  C   UNL     1      11.267  11.704  21.837  0.00  0.00    +0.013 C 
ATOM     12  C   UNL     1      10.997  12.396  23.187  0.00  0.00    +0.001 C 
ENDBRANCH  18   8
ENDBRANCH  17   6
ENDBRANCH  11  17
BRANCH  14  19
ATOM     19  C   UNL     1      18.692   8.331  21.400  0.00  0.00    +0.090 C 
BRANCH  19  20
ATOM      5  O   UNL     1      20.643   5.563  22.631  0.00  0.00    -0.354 OA
ATOM      7  N   UNL     1      19.656   6.530  22.773  0.00  0.00    -0.083 NA
ATOM     20  C   UNL     1      19.651   7.191  21.612  0.00  0.00    +0.087 A 
ATOM     21  C   UNL     1      20.604   6.690  20.709  0.00  0.00    +0.076 A 
ATOM     22  C   UNL     1      21.200   5.667  21.399  0.00  0.00    +0.167 A 
BRANCH  22  23
ATOM      1  F   UNL     1      25.238   2.014  20.255  0.00  0.00    -0.205 F 
ATOM     23  C   UNL     1      22.241   4.725  21.104  0.00  0.00    +0.020 A 
ATOM     24  C   UNL     1      22.066   3.375  21.408  0.00  0.00    +0.014 A 
ATOM     25  C   UNL     1      23.427   5.160  20.512  0.00  0.00    +0.014 A 
ATOM     26  C   UNL     1      23.078   2.459  21.121  0.00  0.00    +0.039 A 
ATOM     27  C   UNL     1      24.440   4.243  20.226  0.00  0.00    +0.039 A 
ATOM     28  C   UNL     1      24.265   2.893  20.530  0.00  0.00    +0.123 A 
ENDBRANCH  22  23
ENDBRANCH  19  20
ENDBRANCH  14  19
TORSDOF 7
ENDMDL
MODEL 10
REMARK VINA RESULT:      -5.9     19.805     23.112
REMARK  Name = 75536245
REMARK  7 active torsions:
REMARK  status: ('A' for Active; 'I' for Inactive)
REMARK    1  A    between atoms: O_3  and  C_13
REMARK    2  A    between atoms: N_6  and  C_17
REMARK    3  A    between atoms: C_8  and  C_18
REMARK    4  A    between atoms: C_11  and  C_17
REMARK    5  A    between atoms: C_14  and  C_19
REMARK    6  A    between atoms: C_19  and  C_20
REMARK    7  A    between atoms: C_22  and  C_23
REMARK                            x       y       z     vdW  Elec       q    Type
REMARK                         _______ _______ _______ _____ _____    ______ ____
ROOT
ATOM      2  O   UNL     1      12.907   3.023   0.575  0.00  0.00    -0.369 OA
ATOM     11  C   UNL     1      13.284   3.761   1.746  0.00  0.00    +0.164 C 
ATOM     13  C   UNL     1      14.751   4.204   1.678  0.00  0.00    +0.145 C 
ATOM     14  C   UNL     1      13.129   3.696  -0.665  0.00  0.00    +0.125 C 
ATOM     15  C   UNL     1      15.092   4.885   0.356  0.00  0.00    +0.036 C 
ATOM     16  C   UNL     1      14.606   4.054  -0.828  0.00  0.00    +0.034 C 
ENDROOT
BRANCH  13   3
ATOM      3  O   UNL     1      15.587   3.050   1.802  0.00  0.00    -0.389 OA
ATOM     30  H   UNL     1      15.970   2.869   0.926  0.00  0.00    +0.210 HD
ENDBRANCH  13   3
BRANCH  11  17
ATOM     17  C   UNL     1      12.322   4.919   1.999  0.00  0.00    +0.138 C 
BRANCH  17   6
ATOM      4  O   UNL     1      10.132   6.490   2.991  0.00  0.00    -0.276 OA
ATOM      6  N   UNL     1      11.658   4.767   3.258  0.00  0.00    -0.313 N 
ATOM     18  C   UNL     1      10.596   5.571   3.674  0.00  0.00    +0.216 C 
ATOM     29  H   UNL     1      12.002   4.053   3.894  0.00  0.00    +0.149 HD
BRANCH  18   8
ATOM      8  C   UNL     1      10.062   5.219   5.065  0.00  0.00    +0.075 C 
ATOM      9  C   UNL     1      10.672   5.956   6.286  0.00  0.00    +0.013 C 
ATOM     10  C   UNL     1       8.703   5.836   5.487  0.00  0.00    +0.013 C 
ATOM     12  C   UNL     1       9.267   5.939   6.917  0.00  0.00    +0.001 C 
ENDBRANCH  18   8
ENDBRANCH  17   6
ENDBRANCH  11  17
BRANCH  14  19
ATOM     19  C   UNL     1      12.671   2.765  -1.781  0.00  0.00    +0.090 C 
BRANCH  19  20
ATOM      5  O   UNL     1       9.365   2.988  -3.198  0.00  0.00    -0.354 OA
ATOM      7  N   UNL     1      10.454   2.266  -2.725  0.00  0.00    -0.083 NA
ATOM     20  C   UNL     1      11.345   3.188  -2.352  0.00  0.00    +0.087 A 
ATOM     21  C   UNL     1      10.878   4.497  -2.564  0.00  0.00    +0.076 A 
ATOM     22  C   UNL     1       9.629   4.315  -3.098  0.00  0.00    +0.167 A 
BRANCH  22  23
ATOM      1  F   UNL     1       5.592   7.719  -4.848  0.00  0.00    -0.205 F 
ATOM     23  C   UNL     1       8.589   5.193  -3.549  0.00  0.00    +0.020 A 
ATOM     24  C   UNL     1       8.113   6.200  -2.709  0.00  0.00    +0.014 A 
ATOM     25  C   UNL     1       8.053   5.039  -4.828  0.00  0.00    +0.014 A 
ATOM     26  C   UNL     1       7.101   7.053  -3.148  0.00  0.00    +0.039 A 
ATOM     27  C   UNL     1       7.040   5.892  -5.266  0.00  0.00    +0.039 A 
ATOM     28  C   UNL     1       6.564   6.900  -4.427  0.00  0.00    +0.123 A 
ENDBRANCH  22  23
ENDBRANCH  19  20
ENDBRANCH  14  19
TORSDOF 7
ENDMDL
