MODEL 1
REMARK VINA RESULT:      -5.5      0.000      0.000
REMARK  Name = 38029860
REMARK  12 active torsions:
REMARK  status: ('A' for Active; 'I' for Inactive)
REMARK    1  A    between atoms: O_2  and  C_25
REMARK    2  A    between atoms: O_2  and  C_26
REMARK    3  A    between atoms: N_4  and  C_24
REMARK    4  A    between atoms: C_6  and  C_10
REMARK    5  A    between atoms: C_8  and  C_13
REMARK    6  A    between atoms: C_9  and  C_14
REMARK    7  A    between atoms: C_10  and  C_15
REMARK    8  A    between atoms: C_10  and  C_16
REMARK    9  A    between atoms: C_11  and  C_18
REMARK   10  A    between atoms: C_13  and  C_17
REMARK   11  A    between atoms: C_14  and  C_23
REMARK   12  A    between atoms: C_24  and  C_25
REMARK                            x       y       z     vdW  Elec       q    Type
REMARK                         _______ _______ _______ _____ _____    ______ ____
ROOT
ATOM      6  C   UNL     1      21.645   5.810  22.039  0.00  0.00    -0.000 C 
ATOM      7  C   UNL     1      21.008   6.086  20.669  0.00  0.00    +0.012 C 
ATOM      8  C   UNL     1      19.890   7.144  20.748  0.00  0.00    +0.023 C 
ATOM      9  C   UNL     1      22.243   7.112  22.629  0.00  0.00    +0.029 C 
ATOM     11  C   UNL     1      20.317   8.355  21.552  0.00  0.00    -0.073 C 
ATOM     12  C   UNL     1      21.380   8.326  22.376  0.00  0.00    -0.023 C 
ATOM     18  C   UNL     1      19.524   9.615  21.350  0.00  0.00    +0.039 C 
ENDROOT
BRANCH   6  10
ATOM     10  C   UNL     1      22.701   4.709  21.908  0.00  0.00    -0.013 C 
ATOM     15  C   UNL     1      22.032   3.347  21.746  0.00  0.00    +0.007 C 
ATOM     16  C   UNL     1      23.628   4.999  20.731  0.00  0.00    +0.007 C 
ENDBRANCH   6  10
BRANCH   8  13
ATOM     13  C   UNL     1      18.598   6.541  21.310  0.00  0.00    +0.103 C 
BRANCH  13  17
ATOM      1  O   UNL     1      17.809   5.714  19.234  0.00  0.00    -0.276 OA
ATOM      3  N   UNL     1      16.384   7.135  20.392  0.00  0.00    -0.299 N 
ATOM      4  N   UNL     1      13.697   7.905  21.022  0.00  0.00    -0.297 NA
ATOM     17  C   UNL     1      17.568   6.422  20.215  0.00  0.00    +0.216 C 
ATOM     19  C   UNL     1      15.333   7.067  19.377  0.00  0.00    +0.123 C 
ATOM     20  C   UNL     1      16.121   8.086  21.476  0.00  0.00    +0.123 C 
ATOM     21  C   UNL     1      13.958   6.868  20.013  0.00  0.00    +0.103 C 
ATOM     22  C   UNL     1      14.727   7.873  22.071  0.00  0.00    +0.103 C 
BRANCH   4  24
ATOM     24  C   UNL     1      12.367   7.730  21.605  0.00  0.00    +0.112 C 
BRANCH  24  25
ATOM     25  C   UNL     1      11.417   8.829  21.165  0.00  0.00    +0.174 C 
BRANCH  25   2
ATOM      2  O   UNL     1      10.482   9.090  22.205  0.00  0.00    -0.382 OA
ATOM     26  C   UNL     1      10.840  10.244  22.952  0.00  0.00    +0.194 C 
ENDBRANCH  25   2
ENDBRANCH  24  25
ENDBRANCH   4  24
ENDBRANCH  13  17
ENDBRANCH   8  13
BRANCH   9  14
ATOM     14  C   UNL     1      22.499   6.971  24.134  0.00  0.00    +0.126 C 
BRANCH  14  23
ATOM      5  N   UNL     1      20.235   6.737  25.438  0.00  0.00    -0.197 NA
ATOM     23  C   UNL     1      21.237   6.847  24.864  0.00  0.00    +0.063 C 
ENDBRANCH  14  23
ENDBRANCH   9  14
TORSDOF 8
ENDMDL
MODEL 2
REMARK VINA RESULT:      -5.5     28.324     30.791
REMARK  Name = 38029860
REMARK  12 active torsions:
REMARK  status: ('A' for Active; 'I' for Inactive)
REMARK    1  A    between atoms: O_2  and  C_25
REMARK    2  A    between atoms: O_2  and  C_26
REMARK    3  A    between atoms: N_4  and  C_24
REMARK    4  A    between atoms: C_6  and  C_10
REMARK    5  A    between atoms: C_8  and  C_13
REMARK    6  A    between atoms: C_9  and  C_14
REMARK    7  A    between atoms: C_10  and  C_15
REMARK    8  A    between atoms: C_10  and  C_16
REMARK    9  A    between atoms: C_11  and  C_18
REMARK   10  A    between atoms: C_13  and  C_17
REMARK   11  A    between atoms: C_14  and  C_23
REMARK   12  A    between atoms: C_24  and  C_25
REMARK                            x       y       z     vdW  Elec       q    Type
REMARK                         _______ _______ _______ _____ _____    ______ ____
ROOT
ATOM      6  C   UNL     1      -3.409 -10.757  11.429  0.00  0.00    -0.000 C 
ATOM      7  C   UNL     1      -2.424 -10.607  12.598  0.00  0.00    +0.012 C 
ATOM      8  C   UNL     1      -2.703 -11.617  13.729  0.00  0.00    +0.023 C 
ATOM      9  C   UNL     1      -3.335 -12.187  10.838  0.00  0.00    +0.029 C 
ATOM     11  C   UNL     1      -2.910 -13.019  13.192  0.00  0.00    -0.073 C 
ATOM     12  C   UNL     1      -3.177 -13.255  11.895  0.00  0.00    -0.023 C 
ATOM     18  C   UNL     1      -2.755 -14.148  14.172  0.00  0.00    +0.039 C 
ENDROOT
BRANCH   6  10
ATOM     10  C   UNL     1      -3.122  -9.689  10.369  0.00  0.00    -0.013 C 
ATOM     15  C   UNL     1      -4.275  -8.693  10.292  0.00  0.00    +0.007 C 
ATOM     16  C   UNL     1      -1.810  -8.975  10.675  0.00  0.00    +0.007 C 
ENDBRANCH   6  10
BRANCH   8  13
ATOM     13  C   UNL     1      -3.897 -11.175  14.581  0.00  0.00    +0.103 C 
BRANCH  13  17
ATOM      1  O   UNL     1      -2.492 -10.445  16.345  0.00  0.00    -0.276 OA
ATOM      3  N   UNL     1      -4.295 -11.783  16.941  0.00  0.00    -0.299 N 
ATOM      4  N   UNL     1      -6.267 -12.479  18.899  0.00  0.00    -0.297 NA
ATOM     17  C   UNL     1      -3.491 -11.098  16.032  0.00  0.00    +0.216 C 
ATOM     19  C   UNL     1      -3.970 -11.753  18.367  0.00  0.00    +0.123 C 
ATOM     20  C   UNL     1      -5.405 -12.672  16.590  0.00  0.00    +0.123 C 
ATOM     21  C   UNL     1      -5.216 -11.501  19.215  0.00  0.00    +0.103 C 
ATOM     22  C   UNL     1      -6.625 -12.408  17.475  0.00  0.00    +0.103 C 
BRANCH   4  24
ATOM     24  C   UNL     1      -7.445 -12.255  19.736  0.00  0.00    +0.112 C 
BRANCH  24  25
ATOM     25  C   UNL     1      -8.260 -11.072  19.245  0.00  0.00    +0.174 C 
BRANCH  25   2
ATOM      2  O   UNL     1      -9.361 -10.861  20.120  0.00  0.00    -0.382 OA
ATOM     26  C   UNL     1     -10.242 -11.976  20.128  0.00  0.00    +0.194 C 
ENDBRANCH  25   2
ENDBRANCH  24  25
ENDBRANCH   4  24
ENDBRANCH  13  17
ENDBRANCH   8  13
BRANCH   9  14
ATOM     14  C   UNL     1      -4.565 -12.497   9.979  0.00  0.00    +0.126 C 
BRANCH  14  23
ATOM      5  N   UNL     1      -6.764 -12.185  11.375  0.00  0.00    -0.197 NA
ATOM     23  C   UNL     1      -5.795 -12.319  10.753  0.00  0.00    +0.063 C 
ENDBRANCH  14  23
ENDBRANCH   9  14
TORSDOF 8
ENDMDL
MODEL 3
REMARK VINA RESULT:      -5.4     27.729     30.683
REMARK  Name = 38029860
REMARK  12 active torsions:
REMARK  status: ('A' for Active; 'I' for Inactive)
REMARK    1  A    between atoms: O_2  and  C_25
REMARK    2  A    between atoms: O_2  and  C_26
REMARK    3  A    between atoms: N_4  and  C_24
REMARK    4  A    between atoms: C_6  and  C_10
REMARK    5  A    between atoms: C_8  and  C_13
REMARK    6  A    between atoms: C_9  and  C_14
REMARK    7  A    between atoms: C_10  and  C_15
REMARK    8  A    between atoms: C_10  and  C_16
REMARK    9  A    between atoms: C_11  and  C_18
REMARK   10  A    between atoms: C_13  and  C_17
REMARK   11  A    between atoms: C_14  and  C_23
REMARK   12  A    between atoms: C_24  and  C_25
REMARK                            x       y       z     vdW  Elec       q    Type
REMARK                         _______ _______ _______ _____ _____    ______ ____
ROOT
ATOM      6  C   UNL     1      -4.746 -10.999  13.302  0.00  0.00    -0.000 C 
ATOM      7  C   UNL     1      -4.938 -10.299  14.656  0.00  0.00    +0.012 C 
ATOM      8  C   UNL     1      -3.837 -10.674  15.667  0.00  0.00    +0.023 C 
ATOM      9  C   UNL     1      -3.372 -10.627  12.690  0.00  0.00    +0.029 C 
ATOM     11  C   UNL     1      -2.455 -10.590  15.051  0.00  0.00    -0.073 C 
ATOM     12  C   UNL     1      -2.268 -10.556  13.719  0.00  0.00    -0.023 C 
ATOM     18  C   UNL     1      -1.295 -10.497  16.002  0.00  0.00    +0.039 C 
ENDROOT
BRANCH   6  10
ATOM     10  C   UNL     1      -5.902 -10.638  12.363  0.00  0.00    -0.013 C 
ATOM     15  C   UNL     1      -7.242 -10.910  13.040  0.00  0.00    +0.007 C 
ATOM     16  C   UNL     1      -5.799  -9.179  11.931  0.00  0.00    +0.007 C 
ENDBRANCH   6  10
BRANCH   8  13
ATOM     13  C   UNL     1      -4.086 -12.062  16.266  0.00  0.00    +0.103 C 
BRANCH  13  17
ATOM      1  O   UNL     1      -3.679 -11.805  18.586  0.00  0.00    -0.276 OA
ATOM      3  N   UNL     1      -5.903 -11.952  17.934  0.00  0.00    -0.299 N 
ATOM      4  N   UNL     1      -8.633 -11.220  18.407  0.00  0.00    -0.297 NA
ATOM     17  C   UNL     1      -4.529 -11.929  17.701  0.00  0.00    +0.216 C 
ATOM     19  C   UNL     1      -6.413 -11.824  19.299  0.00  0.00    +0.123 C 
ATOM     20  C   UNL     1      -6.930 -12.231  16.925  0.00  0.00    +0.123 C 
ATOM     21  C   UNL     1      -7.583 -10.844  19.365  0.00  0.00    +0.103 C 
ATOM     22  C   UNL     1      -8.096 -11.246  17.038  0.00  0.00    +0.103 C 
BRANCH   4  24
ATOM     24  C   UNL     1      -9.764 -10.299  18.496  0.00  0.00    +0.112 C 
BRANCH  24  25
ATOM     25  C   UNL     1      -9.889  -9.446  17.246  0.00  0.00    +0.174 C 
BRANCH  25   2
ATOM      2  O   UNL     1      -9.804  -8.072  17.601  0.00  0.00    -0.382 OA
ATOM     26  C   UNL     1     -10.693  -7.277  16.828  0.00  0.00    +0.194 C 
ENDBRANCH  25   2
ENDBRANCH  24  25
ENDBRANCH   4  24
ENDBRANCH  13  17
ENDBRANCH   8  13
BRANCH   9  14
ATOM     14  C   UNL     1      -2.975 -11.609  11.582  0.00  0.00    +0.126 C 
BRANCH  14  23
ATOM      5  N   UNL     1      -2.542 -14.000  12.571  0.00  0.00    -0.197 NA
ATOM     23  C   UNL     1      -2.727 -12.941  12.135  0.00  0.00    +0.063 C 
ENDBRANCH  14  23
ENDBRANCH   9  14
TORSDOF 8
ENDMDL
MODEL 4
REMARK VINA RESULT:      -5.3     10.138     12.642
REMARK  Name = 38029860
REMARK  12 active torsions:
REMARK  status: ('A' for Active; 'I' for Inactive)
REMARK    1  A    between atoms: O_2  and  C_25
REMARK    2  A    between atoms: O_2  and  C_26
REMARK    3  A    between atoms: N_4  and  C_24
REMARK    4  A    between atoms: C_6  and  C_10
REMARK    5  A    between atoms: C_8  and  C_13
REMARK    6  A    between atoms: C_9  and  C_14
REMARK    7  A    between atoms: C_10  and  C_15
REMARK    8  A    between atoms: C_10  and  C_16
REMARK    9  A    between atoms: C_11  and  C_18
REMARK   10  A    between atoms: C_13  and  C_17
REMARK   11  A    between atoms: C_14  and  C_23
REMARK   12  A    between atoms: C_24  and  C_25
REMARK                            x       y       z     vdW  Elec       q    Type
REMARK                         _______ _______ _______ _____ _____    ______ ____
ROOT
ATOM      6  C   UNL     1      17.925  -3.195  23.729  0.00  0.00    -0.000 C 
ATOM      7  C   UNL     1      18.872  -2.103  24.248  0.00  0.00    +0.012 C 
ATOM      8  C   UNL     1      19.845  -2.635  25.319  0.00  0.00    +0.023 C 
ATOM      9  C   UNL     1      18.733  -4.367  23.118  0.00  0.00    +0.029 C 
ATOM     11  C   UNL     1      20.485  -3.942  24.897  0.00  0.00    -0.073 C 
ATOM     12  C   UNL     1      19.982  -4.695  23.903  0.00  0.00    -0.023 C 
ATOM     18  C   UNL     1      21.744  -4.341  25.614  0.00  0.00    +0.039 C 
ENDROOT
BRANCH   6  10
ATOM     10  C   UNL     1      16.944  -2.594  22.718  0.00  0.00    -0.013 C 
ATOM     15  C   UNL     1      15.505  -2.827  23.170  0.00  0.00    +0.007 C 
ATOM     16  C   UNL     1      17.218  -1.105  22.532  0.00  0.00    +0.007 C 
ENDBRANCH   6  10
BRANCH   8  13
ATOM     13  C   UNL     1      19.148  -2.779  26.676  0.00  0.00    +0.103 C 
BRANCH  13  17
ATOM      1  O   UNL     1      20.875  -1.319  27.386  0.00  0.00    -0.276 OA
ATOM      3  N   UNL     1      19.349  -1.985  29.005  0.00  0.00    -0.299 N 
ATOM      4  N   UNL     1      17.934  -1.365  31.418  0.00  0.00    -0.297 NA
ATOM     17  C   UNL     1      19.875  -1.961  27.714  0.00  0.00    +0.216 C 
ATOM     19  C   UNL     1      19.994  -1.214  30.068  0.00  0.00    +0.123 C 
ATOM     20  C   UNL     1      18.245  -2.838  29.456  0.00  0.00    +0.123 C 
ATOM     21  C   UNL     1      18.965  -0.453  30.903  0.00  0.00    +0.103 C 
ATOM     22  C   UNL     1      17.251  -2.048  30.309  0.00  0.00    +0.103 C 
BRANCH   4  24
ATOM     24  C   UNL     1      16.971  -0.638  32.243  0.00  0.00    +0.112 C 
BRANCH  24  25
ATOM     25  C   UNL     1      17.145   0.864  32.111  0.00  0.00    +0.174 C 
BRANCH  25   2
ATOM      2  O   UNL     1      17.054   1.466  33.396  0.00  0.00    -0.382 OA
ATOM     26  C   UNL     1      15.919   2.314  33.496  0.00  0.00    +0.194 C 
ENDBRANCH  25   2
ENDBRANCH  24  25
ENDBRANCH   4  24
ENDBRANCH  13  17
ENDBRANCH   8  13
BRANCH   9  14
ATOM     14  C   UNL     1      17.869  -5.626  22.983  0.00  0.00    +0.126 C 
BRANCH  14  23
ATOM      5  N   UNL     1      17.017  -6.411  25.337  0.00  0.00    -0.197 NA
ATOM     23  C   UNL     1      17.388  -6.066  24.293  0.00  0.00    +0.063 C 
ENDBRANCH  14  23
ENDBRANCH   9  14
TORSDOF 8
ENDMDL
MODEL 5
REMARK VINA RESULT:      -5.2     27.893     30.810
REMARK  Name = 38029860
REMARK  12 active torsions:
REMARK  status: ('A' for Active; 'I' for Inactive)
REMARK    1  A    between atoms: O_2  and  C_25
REMARK    2  A    between atoms: O_2  and  C_26
REMARK    3  A    between atoms: N_4  and  C_24
REMARK    4  A    between atoms: C_6  and  C_10
REMARK    5  A    between atoms: C_8  and  C_13
REMARK    6  A    between atoms: C_9  and  C_14
REMARK    7  A    between atoms: C_10  and  C_15
REMARK    8  A    between atoms: C_10  and  C_16
REMARK    9  A    between atoms: C_11  and  C_18
REMARK   10  A    between atoms: C_13  and  C_17
REMARK   11  A    between atoms: C_14  and  C_23
REMARK   12  A    between atoms: C_24  and  C_25
REMARK                            x       y       z     vdW  Elec       q    Type
REMARK                         _______ _______ _______ _____ _____    ______ ____
ROOT
ATOM      6  C   UNL     1      -5.831 -11.711  16.006  0.00  0.00    -0.000 C 
ATOM      7  C   UNL     1      -4.967 -12.384  14.929  0.00  0.00    +0.012 C 
ATOM      8  C   UNL     1      -3.795 -11.490  14.479  0.00  0.00    +0.023 C 
ATOM      9  C   UNL     1      -4.974 -11.364  17.249  0.00  0.00    +0.029 C 
ATOM     11  C   UNL     1      -3.059 -10.890  15.661  0.00  0.00    -0.073 C 
ATOM     12  C   UNL     1      -3.596 -10.856  16.893  0.00  0.00    -0.023 C 
ATOM     18  C   UNL     1      -1.671 -10.374  15.402  0.00  0.00    +0.039 C 
ENDROOT
BRANCH   6  10
ATOM     10  C   UNL     1      -7.012 -12.617  16.366  0.00  0.00    -0.013 C 
ATOM     15  C   UNL     1      -7.774 -13.022  15.107  0.00  0.00    +0.007 C 
ATOM     16  C   UNL     1      -6.525 -13.848  17.123  0.00  0.00    +0.007 C 
ENDBRANCH   6  10
BRANCH   8  13
ATOM     13  C   UNL     1      -4.271 -10.396  13.518  0.00  0.00    +0.103 C 
BRANCH  13  17
ATOM      1  O   UNL     1      -2.594 -11.276  12.093  0.00  0.00    -0.276 OA
ATOM      3  N   UNL     1      -4.159  -9.870  11.108  0.00  0.00    -0.299 N 
ATOM      4  N   UNL     1      -5.661  -9.154   8.776  0.00  0.00    -0.297 NA
ATOM     17  C   UNL     1      -3.593 -10.557  12.181  0.00  0.00    +0.216 C 
ATOM     19  C   UNL     1      -3.562  -9.979   9.777  0.00  0.00    +0.123 C 
ATOM     20  C   UNL     1      -5.261  -8.908  11.204  0.00  0.00    +0.123 C 
ATOM     21  C   UNL     1      -4.630 -10.200   8.707  0.00  0.00    +0.103 C 
ATOM     22  C   UNL     1      -6.296  -9.144  10.102  0.00  0.00    +0.103 C 
BRANCH   4  24
ATOM     24  C   UNL     1      -6.663  -9.351   7.730  0.00  0.00    +0.112 C 
BRANCH  24  25
ATOM     25  C   UNL     1      -7.958  -8.630   8.055  0.00  0.00    +0.174 C 
BRANCH  25   2
ATOM      2  O   UNL     1      -8.071  -7.469   7.241  0.00  0.00    -0.382 OA
ATOM     26  C   UNL     1      -8.007  -6.280   8.016  0.00  0.00    +0.194 C 
ENDBRANCH  25   2
ENDBRANCH  24  25
ENDBRANCH   4  24
ENDBRANCH  13  17
ENDBRANCH   8  13
BRANCH   9  14
ATOM     14  C   UNL     1      -5.681 -10.339  18.142  0.00  0.00    +0.126 C 
BRANCH  14  23
ATOM      5  N   UNL     1      -6.173 -11.363  20.507  0.00  0.00    -0.197 NA
ATOM     23  C   UNL     1      -5.953 -10.904  19.464  0.00  0.00    +0.063 C 
ENDBRANCH  14  23
ENDBRANCH   9  14
TORSDOF 8
ENDMDL
MODEL 6
REMARK VINA RESULT:      -5.1     16.905     20.417
REMARK  Name = 38029860
REMARK  12 active torsions:
REMARK  status: ('A' for Active; 'I' for Inactive)
REMARK    1  A    between atoms: O_2  and  C_25
REMARK    2  A    between atoms: O_2  and  C_26
REMARK    3  A    between atoms: N_4  and  C_24
REMARK    4  A    between atoms: C_6  and  C_10
REMARK    5  A    between atoms: C_8  and  C_13
REMARK    6  A    between atoms: C_9  and  C_14
REMARK    7  A    between atoms: C_10  and  C_15
REMARK    8  A    between atoms: C_10  and  C_16
REMARK    9  A    between atoms: C_11  and  C_18
REMARK   10  A    between atoms: C_13  and  C_17
REMARK   11  A    between atoms: C_14  and  C_23
REMARK   12  A    between atoms: C_24  and  C_25
REMARK                            x       y       z     vdW  Elec       q    Type
REMARK                         _______ _______ _______ _____ _____    ______ ____
ROOT
ATOM      6  C   UNL     1       9.064   9.032   5.921  0.00  0.00    -0.000 C 
ATOM      7  C   UNL     1       8.504   7.694   5.415  0.00  0.00    +0.012 C 
ATOM      8  C   UNL     1       9.252   6.486   6.013  0.00  0.00    +0.023 C 
ATOM      9  C   UNL     1       8.966   9.111   7.465  0.00  0.00    +0.029 C 
ATOM     11  C   UNL     1       9.432   6.622   7.512  0.00  0.00    -0.073 C 
ATOM     12  C   UNL     1       9.286   7.800   8.145  0.00  0.00    -0.023 C 
ATOM     18  C   UNL     1       9.736   5.362   8.273  0.00  0.00    +0.039 C 
ENDROOT
BRANCH   6  10
ATOM     10  C   UNL     1       8.327  10.193   5.246  0.00  0.00    -0.013 C 
ATOM     15  C   UNL     1       9.304  11.051   4.448  0.00  0.00    +0.007 C 
ATOM     16  C   UNL     1       7.214   9.663   4.347  0.00  0.00    +0.007 C 
ENDBRANCH   6  10
BRANCH   8  13
ATOM     13  C   UNL     1      10.599   6.270   5.317  0.00  0.00    +0.103 C 
BRANCH  13  17
ATOM      1  O   UNL     1      10.048   3.987   5.004  0.00  0.00    -0.276 OA
ATOM      3  N   UNL     1      11.123   5.045   3.238  0.00  0.00    -0.299 N 
ATOM      4  N   UNL     1      11.526   5.259   0.409  0.00  0.00    -0.297 NA
ATOM     17  C   UNL     1      10.563   4.994   4.514  0.00  0.00    +0.216 C 
ATOM     19  C   UNL     1      11.123   3.850   2.394  0.00  0.00    +0.123 C 
ATOM     20  C   UNL     1      11.858   6.184   2.679  0.00  0.00    +0.123 C 
ATOM     21  C   UNL     1      10.696   4.180   0.965  0.00  0.00    +0.103 C 
ATOM     22  C   UNL     1      11.422   6.468   1.240  0.00  0.00    +0.103 C 
BRANCH   4  24
ATOM     24  C   UNL     1      11.136   5.549  -0.969  0.00  0.00    +0.112 C 
BRANCH  24  25
ATOM     25  C   UNL     1      10.915   4.276  -1.766  0.00  0.00    +0.174 C 
BRANCH  25   2
ATOM      2  O   UNL     1       9.573   4.239  -2.235  0.00  0.00    -0.382 OA
ATOM     26  C   UNL     1       8.995   5.536  -2.266  0.00  0.00    +0.194 C 
ENDBRANCH  25   2
ENDBRANCH  24  25
ENDBRANCH   4  24
ENDBRANCH  13  17
ENDBRANCH   8  13
BRANCH   9  14
ATOM     14  C   UNL     1       9.876  10.211   8.023  0.00  0.00    +0.126 C 
BRANCH  14  23
ATOM      5  N   UNL     1       8.798  11.301  10.151  0.00  0.00    -0.197 NA
ATOM     23  C   UNL     1       9.279  10.824   9.210  0.00  0.00    +0.063 C 
ENDBRANCH  14  23
ENDBRANCH   9  14
TORSDOF 8
ENDMDL
MODEL 7
REMARK VINA RESULT:      -5.1     28.317     31.380
REMARK  Name = 38029860
REMARK  12 active torsions:
REMARK  status: ('A' for Active; 'I' for Inactive)
REMARK    1  A    between atoms: O_2  and  C_25
REMARK    2  A    between atoms: O_2  and  C_26
REMARK    3  A    between atoms: N_4  and  C_24
REMARK    4  A    between atoms: C_6  and  C_10
REMARK    5  A    between atoms: C_8  and  C_13
REMARK    6  A    between atoms: C_9  and  C_14
REMARK    7  A    between atoms: C_10  and  C_15
REMARK    8  A    between atoms: C_10  and  C_16
REMARK    9  A    between atoms: C_11  and  C_18
REMARK   10  A    between atoms: C_13  and  C_17
REMARK   11  A    between atoms: C_14  and  C_23
REMARK   12  A    between atoms: C_24  and  C_25
REMARK                            x       y       z     vdW  Elec       q    Type
REMARK                         _______ _______ _______ _____ _____    ______ ____
ROOT
ATOM      6  C   UNL     1      -7.169 -11.597  16.996  0.00  0.00    -0.000 C 
ATOM      7  C   UNL     1      -5.946 -12.307  16.398  0.00  0.00    +0.012 C 
ATOM      8  C   UNL     1      -4.642 -11.942  17.135  0.00  0.00    +0.023 C 
ATOM      9  C   UNL     1      -7.332 -11.966  18.492  0.00  0.00    +0.029 C 
ATOM     11  C   UNL     1      -4.805 -12.025  18.640  0.00  0.00    -0.073 C 
ATOM     12  C   UNL     1      -6.015 -12.048  19.227  0.00  0.00    -0.023 C 
ATOM     18  C   UNL     1      -3.544 -12.127  19.452  0.00  0.00    +0.039 C 
ENDROOT
BRANCH   6  10
ATOM     10  C   UNL     1      -8.421 -11.946  16.185  0.00  0.00    -0.013 C 
ATOM     15  C   UNL     1      -8.186 -11.676  14.702  0.00  0.00    +0.007 C 
ATOM     16  C   UNL     1      -8.811 -13.403  16.414  0.00  0.00    +0.007 C 
ENDBRANCH   6  10
BRANCH   8  13
ATOM     13  C   UNL     1      -4.137 -10.559  16.714  0.00  0.00    +0.103 C 
BRANCH  13  17
ATOM      1  O   UNL     1      -1.797 -10.818  16.443  0.00  0.00    -0.276 OA
ATOM      3  N   UNL     1      -3.058 -10.695  14.497  0.00  0.00    -0.299 N 
ATOM      4  N   UNL     1      -3.386 -11.460  11.755  0.00  0.00    -0.297 NA
ATOM     17  C   UNL     1      -2.888 -10.701  15.880  0.00  0.00    +0.216 C 
ATOM     19  C   UNL     1      -1.896 -10.833  13.619  0.00  0.00    +0.123 C 
ATOM     20  C   UNL     1      -4.319 -10.426  13.799  0.00  0.00    +0.123 C 
ATOM     21  C   UNL     1      -2.168 -11.827  12.492  0.00  0.00    +0.103 C 
ATOM     22  C   UNL     1      -4.543 -11.425  12.661  0.00  0.00    +0.103 C 
BRANCH   4  24
ATOM     24  C   UNL     1      -3.624 -12.396  10.657  0.00  0.00    +0.112 C 
BRANCH  24  25
ATOM     25  C   UNL     1      -4.841 -12.000   9.841  0.00  0.00    +0.174 C 
BRANCH  25   2
ATOM      2  O   UNL     1      -4.419 -11.426   8.610  0.00  0.00    -0.382 OA
ATOM     26  C   UNL     1      -4.363 -12.396   7.574  0.00  0.00    +0.194 C 
ENDBRANCH  25   2
ENDBRANCH  24  25
ENDBRANCH   4  24
ENDBRANCH  13  17
ENDBRANCH   8  13
BRANCH   9  14
ATOM     14  C   UNL     1      -8.256 -10.976  19.210  0.00  0.00    +0.126 C 
BRANCH  14  23
ATOM      5  N   UNL     1     -10.296 -12.233  20.276  0.00  0.00    -0.197 NA
ATOM     23  C   UNL     1      -9.395 -11.672  19.809  0.00  0.00    +0.063 C 
ENDBRANCH  14  23
ENDBRANCH   9  14
TORSDOF 8
ENDMDL
MODEL 8
REMARK VINA RESULT:      -4.9     29.160     31.873
REMARK  Name = 38029860
REMARK  12 active torsions:
REMARK  status: ('A' for Active; 'I' for Inactive)
REMARK    1  A    between atoms: O_2  and  C_25
REMARK    2  A    between atoms: O_2  and  C_26
REMARK    3  A    between atoms: N_4  and  C_24
REMARK    4  A    between atoms: C_6  and  C_10
REMARK    5  A    between atoms: C_8  and  C_13
REMARK    6  A    between atoms: C_9  and  C_14
REMARK    7  A    between atoms: C_10  and  C_15
REMARK    8  A    between atoms: C_10  and  C_16
REMARK    9  A    between atoms: C_11  and  C_18
REMARK   10  A    between atoms: C_13  and  C_17
REMARK   11  A    between atoms: C_14  and  C_23
REMARK   12  A    between atoms: C_24  and  C_25
REMARK                            x       y       z     vdW  Elec       q    Type
REMARK                         _______ _______ _______ _____ _____    ______ ____
ROOT
ATOM      6  C   UNL     1     -12.609   8.228  20.277  0.00  0.00    -0.000 C 
ATOM      7  C   UNL     1     -11.659   7.639  19.224  0.00  0.00    +0.012 C 
ATOM      8  C   UNL     1     -11.279   8.668  18.141  0.00  0.00    +0.023 C 
ATOM      9  C   UNL     1     -11.957   9.451  20.970  0.00  0.00    +0.029 C 
ATOM     11  C   UNL     1     -10.878   9.998  18.746  0.00  0.00    -0.073 C 
ATOM     12  C   UNL     1     -11.177  10.325  20.016  0.00  0.00    -0.023 C 
ATOM     18  C   UNL     1     -10.082  10.926  17.871  0.00  0.00    +0.039 C 
ENDROOT
BRANCH   6  10
ATOM     10  C   UNL     1     -13.001   7.145  21.287  0.00  0.00    -0.013 C 
ATOM     15  C   UNL     1     -14.429   6.673  21.032  0.00  0.00    +0.007 C 
ATOM     16  C   UNL     1     -12.024   5.976  21.218  0.00  0.00    +0.007 C 
ENDBRANCH   6  10
BRANCH   8  13
ATOM     13  C   UNL     1     -12.412   8.847  17.126  0.00  0.00    +0.103 C 
BRANCH  13  17
ATOM      1  O   UNL     1     -10.720   8.432  15.520  0.00  0.00    -0.276 OA
ATOM      3  N   UNL     1     -12.914   8.168  14.806  0.00  0.00    -0.299 N 
ATOM      4  N   UNL     1     -14.771   6.819  13.090  0.00  0.00    -0.297 NA
ATOM     17  C   UNL     1     -11.931   8.466  15.748  0.00  0.00    +0.216 C 
ATOM     19  C   UNL     1     -12.529   7.786  13.447  0.00  0.00    +0.123 C 
ATOM     20  C   UNL     1     -14.358   8.327  15.006  0.00  0.00    +0.123 C 
ATOM     21  C   UNL     1     -13.326   6.575  12.964  0.00  0.00    +0.103 C 
ATOM     22  C   UNL     1     -15.124   7.108  14.488  0.00  0.00    +0.103 C 
BRANCH   4  24
ATOM     24  C   UNL     1     -15.530   5.671  12.596  0.00  0.00    +0.112 C 
BRANCH  24  25
ATOM     25  C   UNL     1     -16.822   5.483  13.370  0.00  0.00    +0.174 C 
BRANCH  25   2
ATOM      2  O   UNL     1     -17.915   5.941  12.583  0.00  0.00    -0.382 OA
ATOM     26  C   UNL     1     -18.823   4.888  12.289  0.00  0.00    +0.194 C 
ENDBRANCH  25   2
ENDBRANCH  24  25
ENDBRANCH   4  24
ENDBRANCH  13  17
ENDBRANCH   8  13
BRANCH   9  14
ATOM     14  C   UNL     1     -13.005  10.299  21.699  0.00  0.00    +0.126 C 
BRANCH  14  23
ATOM      5  N   UNL     1     -11.956  11.507  23.777  0.00  0.00    -0.197 NA
ATOM     23  C   UNL     1     -12.415  10.968  22.858  0.00  0.00    +0.063 C 
ENDBRANCH  14  23
ENDBRANCH   9  14
TORSDOF 8
ENDMDL
MODEL 9
REMARK VINA RESULT:      -4.9     28.715     33.606
REMARK  Name = 38029860
REMARK  12 active torsions:
REMARK  status: ('A' for Active; 'I' for Inactive)
REMARK    1  A    between atoms: O_2  and  C_25
REMARK    2  A    between atoms: O_2  and  C_26
REMARK    3  A    between atoms: N_4  and  C_24
REMARK    4  A    between atoms: C_6  and  C_10
REMARK    5  A    between atoms: C_8  and  C_13
REMARK    6  A    between atoms: C_9  and  C_14
REMARK    7  A    between atoms: C_10  and  C_15
REMARK    8  A    between atoms: C_10  and  C_16
REMARK    9  A    between atoms: C_11  and  C_18
REMARK   10  A    between atoms: C_13  and  C_17
REMARK   11  A    between atoms: C_14  and  C_23
REMARK   12  A    between atoms: C_24  and  C_25
REMARK                            x       y       z     vdW  Elec       q    Type
REMARK                         _______ _______ _______ _____ _____    ______ ____
ROOT
ATOM      6  C   UNL     1     -12.702 -10.621  18.628  0.00  0.00    -0.000 C 
ATOM      7  C   UNL     1     -11.544 -10.034  19.449  0.00  0.00    +0.012 C 
ATOM      8  C   UNL     1     -10.410  -9.495  18.556  0.00  0.00    +0.023 C 
ATOM      9  C   UNL     1     -13.293  -9.546  17.682  0.00  0.00    +0.029 C 
ATOM     11  C   UNL     1     -10.944  -8.634  17.428  0.00  0.00    -0.073 C 
ATOM     12  C   UNL     1     -12.238  -8.660  17.061  0.00  0.00    -0.023 C 
ATOM     18  C   UNL     1      -9.965  -7.708  16.763  0.00  0.00    +0.039 C 
ENDROOT
BRANCH   6  10
ATOM     10  C   UNL     1     -13.766 -11.197  19.567  0.00  0.00    -0.013 C 
ATOM     15  C   UNL     1     -13.731 -12.722  19.538  0.00  0.00    +0.007 C 
ATOM     16  C   UNL     1     -13.559 -10.678  20.986  0.00  0.00    +0.007 C 
ENDBRANCH   6  10
BRANCH   8  13
ATOM     13  C   UNL     1      -9.544 -10.636  18.012  0.00  0.00    +0.103 C 
BRANCH  13  17
ATOM      1  O   UNL     1      -8.500 -11.325  20.025  0.00  0.00    -0.276 OA
ATOM      3  N   UNL     1      -7.110 -10.455  18.382  0.00  0.00    -0.299 N 
ATOM      4  N   UNL     1      -4.529 -10.431  17.137  0.00  0.00    -0.297 NA
ATOM     17  C   UNL     1      -8.344 -10.838  18.903  0.00  0.00    +0.216 C 
ATOM     19  C   UNL     1      -5.897 -10.623  19.182  0.00  0.00    +0.123 C 
ATOM     20  C   UNL     1      -6.907  -9.753  17.110  0.00  0.00    +0.123 C 
ATOM     21  C   UNL     1      -4.764 -11.225  18.352  0.00  0.00    +0.103 C 
ATOM     22  C   UNL     1      -5.750 -10.368  16.320  0.00  0.00    +0.103 C 
BRANCH   4  24
ATOM     24  C   UNL     1      -3.423 -10.993  16.363  0.00  0.00    +0.112 C 
BRANCH  24  25
ATOM     25  C   UNL     1      -3.576 -10.704  14.881  0.00  0.00    +0.174 C 
BRANCH  25   2
ATOM      2  O   UNL     1      -2.304 -10.397  14.325  0.00  0.00    -0.382 OA
ATOM     26  C   UNL     1      -1.334 -10.168  15.336  0.00  0.00    +0.194 C 
ENDBRANCH  25   2
ENDBRANCH  24  25
ENDBRANCH   4  24
ENDBRANCH  13  17
ENDBRANCH   8  13
BRANCH   9  14
ATOM     14  C   UNL     1     -14.138 -10.185  16.575  0.00  0.00    +0.126 C 
BRANCH  14  23
ATOM      5  N   UNL     1     -15.426  -8.343  15.223  0.00  0.00    -0.197 NA
ATOM     23  C   UNL     1     -14.858  -9.162  15.816  0.00  0.00    +0.063 C 
ENDBRANCH  14  23
ENDBRANCH   9  14
TORSDOF 8
ENDMDL
MODEL 10
REMARK VINA RESULT:      -4.8     15.914     19.391
REMARK  Name = 38029860
REMARK  12 active torsions:
REMARK  status: ('A' for Active; 'I' for Inactive)
REMARK    1  A    between atoms: O_2  and  C_25
REMARK    2  A    between atoms: O_2  and  C_26
REMARK    3  A    between atoms: N_4  and  C_24
REMARK    4  A    between atoms: C_6  and  C_10
REMARK    5  A    between atoms: C_8  and  C_13
REMARK    6  A    between atoms: C_9  and  C_14
REMARK    7  A    between atoms: C_10  and  C_15
REMARK    8  A    between atoms: C_10  and  C_16
REMARK    9  A    between atoms: C_11  and  C_18
REMARK   10  A    between atoms: C_13  and  C_17
REMARK   11  A    between atoms: C_14  and  C_23
REMARK   12  A    between atoms: C_24  and  C_25
REMARK                            x       y       z     vdW  Elec       q    Type
REMARK                         _______ _______ _______ _____ _____    ______ ____
ROOT
ATOM      6  C   UNL     1      10.142   6.943   4.202  0.00  0.00    -0.000 C 
ATOM      7  C   UNL     1      11.000   6.000   5.058  0.00  0.00    +0.012 C 
ATOM      8  C   UNL     1      10.861   6.293   6.565  0.00  0.00    +0.023 C 
ATOM      9  C   UNL     1       8.647   6.817   4.590  0.00  0.00    +0.029 C 
ATOM     11  C   UNL     1       9.411   6.449   6.977  0.00  0.00    -0.073 C 
ATOM     12  C   UNL     1       8.434   6.669   6.078  0.00  0.00    -0.023 C 
ATOM     18  C   UNL     1       9.103   6.300   8.440  0.00  0.00    +0.039 C 
ENDROOT
BRANCH   6  10
ATOM     10  C   UNL     1      10.369   6.648   2.716  0.00  0.00    -0.013 C 
ATOM     15  C   UNL     1      11.415   7.598   2.140  0.00  0.00    +0.007 C 
ATOM     16  C   UNL     1      10.793   5.195   2.523  0.00  0.00    +0.007 C 
ENDBRANCH   6  10
BRANCH   8  13
ATOM     13  C   UNL     1      11.680   7.523   6.967  0.00  0.00    +0.103 C 
BRANCH  13  17
ATOM      1  O   UNL     1      13.557   6.204   7.564  0.00  0.00    -0.276 OA
ATOM      3  N   UNL     1      13.970   8.038   6.200  0.00  0.00    -0.299 N 
ATOM      4  N   UNL     1      15.555   9.223   4.128  0.00  0.00    -0.297 NA
ATOM     17  C   UNL     1      13.151   7.190   6.944  0.00  0.00    +0.216 C 
ATOM     19  C   UNL     1      15.408   7.780   6.124  0.00  0.00    +0.123 C 
ATOM     20  C   UNL     1      13.542   9.287   5.563  0.00  0.00    +0.123 C 
ATOM     21  C   UNL     1      15.920   7.915   4.691  0.00  0.00    +0.103 C 
ATOM     22  C   UNL     1      14.095   9.398   4.141  0.00  0.00    +0.103 C 
BRANCH   4  24
ATOM     24  C   UNL     1      16.075   9.360   2.769  0.00  0.00    +0.112 C 
BRANCH  24  25
ATOM     25  C   UNL     1      16.628   8.046   2.247  0.00  0.00    +0.174 C 
BRANCH  25   2
ATOM      2  O   UNL     1      15.891   7.646   1.098  0.00  0.00    -0.382 OA
ATOM     26  C   UNL     1      15.101   6.495   1.360  0.00  0.00    +0.194 C 
ENDBRANCH  25   2
ENDBRANCH  24  25
ENDBRANCH   4  24
ENDBRANCH  13  17
ENDBRANCH   8  13
BRANCH   9  14
ATOM     14  C   UNL     1       7.838   8.012   4.074  0.00  0.00    +0.126 C 
BRANCH  14  23
ATOM      5  N   UNL     1       8.718  10.243   5.137  0.00  0.00    -0.197 NA
ATOM     23  C   UNL     1       8.323   9.260   4.665  0.00  0.00    +0.063 C 
ENDBRANCH  14  23
ENDBRANCH   9  14
TORSDOF 8
ENDMDL
