MODEL 1
REMARK VINA RESULT:      -6.9      0.000      0.000
REMARK  Name = 75368556
REMARK  4 active torsions:
REMARK  status: ('A' for Active; 'I' for Inactive)
REMARK    1  A    between atoms: O_5  and  C_19
REMARK    2  A    between atoms: O_5  and  C_22
REMARK    3  A    between atoms: N_7  and  C_15
REMARK    4  A    between atoms: C_15  and  C_16
REMARK                            x       y       z     vdW  Elec       q    Type
REMARK                         _______ _______ _______ _____ _____    ______ ____
ROOT
ATOM     15  C   UNL     1      16.155   6.265  19.838  0.00  0.00    +0.119 C 
ENDROOT
BRANCH  15   7
ATOM      4  O   UNL     1      10.390   8.715  18.587  0.00  0.00    -0.253 OA
ATOM      6  N   UNL     1      12.443   8.208  19.620  0.00  0.00    -0.279 N 
ATOM      7  N   UNL     1      15.063   7.234  19.926  0.00  0.00    -0.295 NA
ATOM      8  N   UNL     1      10.540   7.770  20.730  0.00  0.00    -0.297 N 
ATOM      9  C   UNL     1      12.878   7.763  20.927  0.00  0.00    +0.109 C 
ATOM     10  C   UNL     1      13.984   6.717  20.791  0.00  0.00    +0.109 C 
ATOM     11  C   UNL     1      13.433   8.600  18.637  0.00  0.00    +0.125 C 
ATOM     12  C   UNL     1      11.593   7.259  21.580  0.00  0.00    +0.129 C 
ATOM     13  C   UNL     1      14.551   7.556  18.578  0.00  0.00    +0.104 C 
ATOM     14  C   UNL     1      11.050   8.289  19.525  0.00  0.00    +0.303 C 
ATOM     23  H   UNL     1       9.550   7.687  20.935  0.00  0.00    +0.150 HD
ENDBRANCH  15   7
BRANCH  15  16
ATOM     16  C   UNL     1      17.444   6.819  20.384  0.00  0.00    -0.030 A 
ATOM     17  C   UNL     1      18.649   6.169  20.121  0.00  0.00    +0.051 A 
ATOM     18  C   UNL     1      17.432   7.981  21.156  0.00  0.00    +0.005 A 
ATOM     19  C   UNL     1      19.843   6.682  20.628  0.00  0.00    +0.130 A 
ATOM     20  C   UNL     1      18.626   8.494  21.663  0.00  0.00    +0.004 A 
ATOM     21  C   UNL     1      19.831   7.844  21.399  0.00  0.00    +0.046 A 
BRANCH  19   5
ATOM      5  O   UNL     1      21.020   6.047  20.370  0.00  0.00    -0.406 OA
BRANCH   5  22
ATOM      1  F   UNL     1      20.840   5.077  22.400  0.00  0.00    -0.133 F 
ATOM      2  F   UNL     1      22.699   4.795  21.288  0.00  0.00    -0.133 F 
ATOM      3  F   UNL     1      20.846   3.782  20.640  0.00  0.00    -0.133 F 
ATOM     22  C   UNL     1      21.361   4.915  21.163  0.00  0.00    +0.575 C 
ENDBRANCH   5  22
ENDBRANCH  19   5
ENDBRANCH  15  16
TORSDOF 4
ENDMDL
MODEL 2
REMARK VINA RESULT:      -6.6      2.088      2.811
REMARK  Name = 75368556
REMARK  4 active torsions:
REMARK  status: ('A' for Active; 'I' for Inactive)
REMARK    1  A    between atoms: O_5  and  C_19
REMARK    2  A    between atoms: O_5  and  C_22
REMARK    3  A    between atoms: N_7  and  C_15
REMARK    4  A    between atoms: C_15  and  C_16
REMARK                            x       y       z     vdW  Elec       q    Type
REMARK                         _______ _______ _______ _____ _____    ______ ____
ROOT
ATOM     15  C   UNL     1      15.434   7.687  19.430  0.00  0.00    +0.119 C 
ENDROOT
BRANCH  15   7
ATOM      4  O   UNL     1      10.187   9.560  22.554  0.00  0.00    -0.253 OA
ATOM      6  N   UNL     1      12.110   8.374  21.895  0.00  0.00    -0.279 N 
ATOM      7  N   UNL     1      14.522   7.804  20.567  0.00  0.00    -0.295 NA
ATOM      8  N   UNL     1      10.146   7.287  21.970  0.00  0.00    -0.297 N 
ATOM      9  C   UNL     1      12.445   6.994  21.610  0.00  0.00    +0.109 C 
ATOM     10  C   UNL     1      13.359   6.912  20.388  0.00  0.00    +0.109 C 
ATOM     11  C   UNL     1      13.165   9.364  21.948  0.00  0.00    +0.125 C 
ATOM     12  C   UNL     1      11.084   6.323  21.442  0.00  0.00    +0.129 C 
ATOM     13  C   UNL     1      14.091   9.206  20.739  0.00  0.00    +0.104 C 
ATOM     14  C   UNL     1      10.753   8.538  22.189  0.00  0.00    +0.303 C 
ATOM     23  H   UNL     1       9.153   7.113  22.088  0.00  0.00    +0.150 HD
ENDBRANCH  15   7
BRANCH  15  16
ATOM     16  C   UNL     1      16.738   7.043  19.820  0.00  0.00    -0.030 A 
ATOM     17  C   UNL     1      17.451   7.522  20.919  0.00  0.00    +0.051 A 
ATOM     18  C   UNL     1      17.235   5.970  19.080  0.00  0.00    +0.005 A 
ATOM     19  C   UNL     1      18.660   6.926  21.279  0.00  0.00    +0.130 A 
ATOM     20  C   UNL     1      18.444   5.374  19.440  0.00  0.00    +0.004 A 
ATOM     21  C   UNL     1      19.156   5.853  20.540  0.00  0.00    +0.046 A 
BRANCH  19   5
ATOM      5  O   UNL     1      19.355   7.394  22.352  0.00  0.00    -0.406 OA
BRANCH   5  22
ATOM      1  F   UNL     1      21.582   7.535  22.015  0.00  0.00    -0.133 F 
ATOM      2  F   UNL     1      20.609   9.140  23.134  0.00  0.00    -0.133 F 
ATOM      3  F   UNL     1      20.291   8.945  20.956  0.00  0.00    -0.133 F 
ATOM     22  C   UNL     1      20.451   8.270  22.115  0.00  0.00    +0.575 C 
ENDBRANCH   5  22
ENDBRANCH  19   5
ENDBRANCH  15  16
TORSDOF 4
ENDMDL
MODEL 3
REMARK VINA RESULT:      -6.3     27.399     28.527
REMARK  Name = 75368556
REMARK  4 active torsions:
REMARK  status: ('A' for Active; 'I' for Inactive)
REMARK    1  A    between atoms: O_5  and  C_19
REMARK    2  A    between atoms: O_5  and  C_22
REMARK    3  A    between atoms: N_7  and  C_15
REMARK    4  A    between atoms: C_15  and  C_16
REMARK                            x       y       z     vdW  Elec       q    Type
REMARK                         _______ _______ _______ _____ _____    ______ ____
ROOT
ATOM     15  C   UNL     1      -3.046 -10.528  14.988  0.00  0.00    +0.119 C 
ENDROOT
BRANCH  15   7
ATOM      4  O   UNL     1      -6.531 -10.745  20.337  0.00  0.00    -0.253 OA
ATOM      6  N   UNL     1      -5.839 -10.918  18.094  0.00  0.00    -0.279 N 
ATOM      7  N   UNL     1      -4.120 -10.985  15.870  0.00  0.00    -0.295 NA
ATOM      8  N   UNL     1      -7.618  -9.635  18.577  0.00  0.00    -0.297 N 
ATOM      9  C   UNL     1      -6.342 -10.492  16.805  0.00  0.00    +0.109 C 
ATOM     10  C   UNL     1      -5.198  -9.978  15.933  0.00  0.00    +0.109 C 
ATOM     11  C   UNL     1      -4.686 -11.793  18.153  0.00  0.00    +0.125 C 
ATOM     12  C   UNL     1      -7.400  -9.450  17.160  0.00  0.00    +0.129 C 
ATOM     13  C   UNL     1      -3.590 -11.274  17.219  0.00  0.00    +0.104 C 
ATOM     14  C   UNL     1      -6.643 -10.474  19.149  0.00  0.00    +0.303 C 
ATOM     23  H   UNL     1      -8.332  -9.153  19.114  0.00  0.00    +0.150 HD
ENDBRANCH  15   7
BRANCH  15  16
ATOM     16  C   UNL     1      -3.169 -11.111  13.605  0.00  0.00    -0.030 A 
ATOM     17  C   UNL     1      -3.819 -10.392  12.601  0.00  0.00    +0.051 A 
ATOM     18  C   UNL     1      -2.637 -12.370  13.329  0.00  0.00    +0.005 A 
ATOM     19  C   UNL     1      -3.934 -10.932  11.321  0.00  0.00    +0.130 A 
ATOM     20  C   UNL     1      -2.753 -12.910  12.048  0.00  0.00    +0.004 A 
ATOM     21  C   UNL     1      -3.400 -12.191  11.044  0.00  0.00    +0.046 A 
BRANCH  19   5
ATOM      5  O   UNL     1      -4.567 -10.230  10.341  0.00  0.00    -0.406 OA
BRANCH   5  22
ATOM      1  F   UNL     1      -4.459  -7.979  10.456  0.00  0.00    -0.133 F 
ATOM      2  F   UNL     1      -4.150  -8.923   8.510  0.00  0.00    -0.133 F 
ATOM      3  F   UNL     1      -2.607  -9.079  10.085  0.00  0.00    -0.133 F 
ATOM     22  C   UNL     1      -3.934  -9.060   9.836  0.00  0.00    +0.575 C 
ENDBRANCH   5  22
ENDBRANCH  19   5
ENDBRANCH  15  16
TORSDOF 4
ENDMDL
MODEL 4
REMARK VINA RESULT:      -6.3      2.579      3.229
REMARK  Name = 75368556
REMARK  4 active torsions:
REMARK  status: ('A' for Active; 'I' for Inactive)
REMARK    1  A    between atoms: O_5  and  C_19
REMARK    2  A    between atoms: O_5  and  C_22
REMARK    3  A    between atoms: N_7  and  C_15
REMARK    4  A    between atoms: C_15  and  C_16
REMARK                            x       y       z     vdW  Elec       q    Type
REMARK                         _______ _______ _______ _____ _____    ______ ____
ROOT
ATOM     15  C   UNL     1      16.266   6.307  19.428  0.00  0.00    +0.119 C 
ENDROOT
BRANCH  15   7
ATOM      4  O   UNL     1      10.386   8.680  18.657  0.00  0.00    -0.253 OA
ATOM      6  N   UNL     1      12.507   8.167  19.538  0.00  0.00    -0.279 N 
ATOM      7  N   UNL     1      15.161   7.243  19.635  0.00  0.00    -0.295 NA
ATOM      8  N   UNL     1      10.684   7.619  20.729  0.00  0.00    -0.297 N 
ATOM      9  C   UNL     1      13.028   7.659  20.790  0.00  0.00    +0.109 C 
ATOM     10  C   UNL     1      14.146   6.651  20.529  0.00  0.00    +0.109 C 
ATOM     11  C   UNL     1      13.428   8.638  18.524  0.00  0.00    +0.125 C 
ATOM     12  C   UNL     1      11.795   7.088  21.486  0.00  0.00    +0.129 C 
ATOM     13  C   UNL     1      14.563   7.628  18.340  0.00  0.00    +0.104 C 
ATOM     14  C   UNL     1      11.110   8.219  19.529  0.00  0.00    +0.303 C 
ATOM     23  H   UNL     1       9.709   7.501  20.986  0.00  0.00    +0.150 HD
ENDBRANCH  15   7
BRANCH  15  16
ATOM     16  C   UNL     1      17.511   6.738  20.158  0.00  0.00    -0.030 A 
ATOM     17  C   UNL     1      17.516   7.928  20.884  0.00  0.00    +0.051 A 
ATOM     18  C   UNL     1      18.659   5.947  20.105  0.00  0.00    +0.005 A 
ATOM     19  C   UNL     1      18.670   8.328  21.559  0.00  0.00    +0.130 A 
ATOM     20  C   UNL     1      19.813   6.347  20.780  0.00  0.00    +0.004 A 
ATOM     21  C   UNL     1      19.817   7.537  21.508  0.00  0.00    +0.046 A 
BRANCH  19   5
ATOM      5  O   UNL     1      18.675   9.490  22.269  0.00  0.00    -0.406 OA
BRANCH   5  22
ATOM      1  F   UNL     1      18.791  11.744  22.284  0.00  0.00    -0.133 F 
ATOM      2  F   UNL     1      18.981  10.718  20.364  0.00  0.00    -0.133 F 
ATOM      3  F   UNL     1      20.616  10.624  21.848  0.00  0.00    -0.133 F 
ATOM     22  C   UNL     1      19.277  10.636  21.678  0.00  0.00    +0.575 C 
ENDBRANCH   5  22
ENDBRANCH  19   5
ENDBRANCH  15  16
TORSDOF 4
ENDMDL
MODEL 5
REMARK VINA RESULT:      -5.9     26.283     28.355
REMARK  Name = 75368556
REMARK  4 active torsions:
REMARK  status: ('A' for Active; 'I' for Inactive)
REMARK    1  A    between atoms: O_5  and  C_19
REMARK    2  A    between atoms: O_5  and  C_22
REMARK    3  A    between atoms: N_7  and  C_15
REMARK    4  A    between atoms: C_15  and  C_16
REMARK                            x       y       z     vdW  Elec       q    Type
REMARK                         _______ _______ _______ _____ _____    ______ ____
ROOT
ATOM     15  C   UNL     1      -4.513 -12.101  16.387  0.00  0.00    +0.119 C 
ENDROOT
BRANCH  15   7
ATOM      4  O   UNL     1     -10.010  -9.035  17.470  0.00  0.00    -0.253 OA
ATOM      6  N   UNL     1      -7.844  -9.923  17.712  0.00  0.00    -0.279 N 
ATOM      7  N   UNL     1      -5.397 -11.116  17.007  0.00  0.00    -0.295 NA
ATOM      8  N   UNL     1      -9.420 -10.501  19.204  0.00  0.00    -0.297 N 
ATOM      9  C   UNL     1      -7.139 -10.714  18.698  0.00  0.00    +0.109 C 
ATOM     10  C   UNL     1      -6.265 -11.763  18.012  0.00  0.00    +0.109 C 
ATOM     11  C   UNL     1      -7.111  -9.361  16.596  0.00  0.00    +0.125 C 
ATOM     12  C   UNL     1      -8.258 -11.280  19.570  0.00  0.00    +0.129 C 
ATOM     13  C   UNL     1      -6.204 -10.428  15.978  0.00  0.00    +0.104 C 
ATOM     14  C   UNL     1      -9.187  -9.728  18.052  0.00  0.00    +0.303 C 
ATOM     23  H   UNL     1     -10.320 -10.567  19.668  0.00  0.00    +0.150 HD
ENDBRANCH  15   7
BRANCH  15  16
ATOM     16  C   UNL     1      -3.414 -11.448  15.591  0.00  0.00    -0.030 A 
ATOM     17  C   UNL     1      -3.334 -11.655  14.214  0.00  0.00    +0.051 A 
ATOM     18  C   UNL     1      -2.475 -10.640  16.232  0.00  0.00    +0.005 A 
ATOM     19  C   UNL     1      -2.315 -11.051  13.477  0.00  0.00    +0.130 A 
ATOM     20  C   UNL     1      -1.455 -10.036  15.494  0.00  0.00    +0.004 A 
ATOM     21  C   UNL     1      -1.376 -10.242  14.117  0.00  0.00    +0.046 A 
BRANCH  19   5
ATOM      5  O   UNL     1      -2.237 -11.252  12.133  0.00  0.00    -0.406 OA
BRANCH   5  22
ATOM      1  F   UNL     1      -3.234 -10.856  10.147  0.00  0.00    -0.133 F 
ATOM      2  F   UNL     1      -1.834  -9.361  10.911  0.00  0.00    -0.133 F 
ATOM      3  F   UNL     1      -3.816  -9.621  11.854  0.00  0.00    -0.133 F 
ATOM     22  C   UNL     1      -2.777 -10.257  11.271  0.00  0.00    +0.575 C 
ENDBRANCH   5  22
ENDBRANCH  19   5
ENDBRANCH  15  16
TORSDOF 4
ENDMDL
MODEL 6
REMARK VINA RESULT:      -5.7     16.049     18.038
REMARK  Name = 75368556
REMARK  4 active torsions:
REMARK  status: ('A' for Active; 'I' for Inactive)
REMARK    1  A    between atoms: O_5  and  C_19
REMARK    2  A    between atoms: O_5  and  C_22
REMARK    3  A    between atoms: N_7  and  C_15
REMARK    4  A    between atoms: C_15  and  C_16
REMARK                            x       y       z     vdW  Elec       q    Type
REMARK                         _______ _______ _______ _____ _____    ______ ____
ROOT
ATOM     15  C   UNL     1      12.445   7.384   3.751  0.00  0.00    +0.119 C 
ENDROOT
BRANCH  15   7
ATOM      4  O   UNL     1      10.518   3.859  -1.215  0.00  0.00    -0.253 OA
ATOM      6  N   UNL     1      11.334   4.524   0.890  0.00  0.00    -0.279 N 
ATOM      7  N   UNL     1      11.932   6.196   3.071  0.00  0.00    -0.295 NA
ATOM      8  N   UNL     1      12.634   3.235  -0.412  0.00  0.00    -0.297 N 
ATOM      9  C   UNL     1      12.488   4.221   1.711  0.00  0.00    +0.109 C 
ATOM     10  C   UNL     1      13.023   5.494   2.365  0.00  0.00    +0.109 C 
ATOM     11  C   UNL     1      10.266   5.335   1.437  0.00  0.00    +0.125 C 
ATOM     12  C   UNL     1      13.451   3.542   0.740  0.00  0.00    +0.129 C 
ATOM     13  C   UNL     1      10.850   6.566   2.134  0.00  0.00    +0.104 C 
ATOM     14  C   UNL     1      11.381   3.873  -0.347  0.00  0.00    +0.303 C 
ATOM     23  H   UNL     1      12.953   2.697  -1.212  0.00  0.00    +0.150 HD
ENDBRANCH  15   7
BRANCH  15  16
ATOM     16  C   UNL     1      11.797   7.587   5.094  0.00  0.00    -0.030 A 
ATOM     17  C   UNL     1      11.698   6.521   5.988  0.00  0.00    +0.051 A 
ATOM     18  C   UNL     1      11.292   8.839   5.443  0.00  0.00    +0.005 A 
ATOM     19  C   UNL     1      11.096   6.708   7.232  0.00  0.00    +0.130 A 
ATOM     20  C   UNL     1      10.690   9.027   6.688  0.00  0.00    +0.004 A 
ATOM     21  C   UNL     1      10.592   7.961   7.582  0.00  0.00    +0.046 A 
BRANCH  19   5
ATOM      5  O   UNL     1      11.000   5.668   8.105  0.00  0.00    -0.406 OA
BRANCH   5  22
ATOM      1  F   UNL     1       9.036   5.155   7.119  0.00  0.00    -0.133 F 
ATOM      2  F   UNL     1       9.018   5.652   9.247  0.00  0.00    -0.133 F 
ATOM      3  F   UNL     1       9.866   3.732   8.555  0.00  0.00    -0.133 F 
ATOM     22  C   UNL     1       9.731   5.046   8.274  0.00  0.00    +0.575 C 
ENDBRANCH   5  22
ENDBRANCH  19   5
ENDBRANCH  15  16
TORSDOF 4
ENDMDL
MODEL 7
REMARK VINA RESULT:      -5.7     26.831     28.445
REMARK  Name = 75368556
REMARK  4 active torsions:
REMARK  status: ('A' for Active; 'I' for Inactive)
REMARK    1  A    between atoms: O_5  and  C_19
REMARK    2  A    between atoms: O_5  and  C_22
REMARK    3  A    between atoms: N_7  and  C_15
REMARK    4  A    between atoms: C_15  and  C_16
REMARK                            x       y       z     vdW  Elec       q    Type
REMARK                         _______ _______ _______ _____ _____    ______ ____
ROOT
ATOM     15  C   UNL     1      -4.065 -12.506  13.047  0.00  0.00    +0.119 C 
ENDROOT
BRANCH  15   7
ATOM      4  O   UNL     1      -5.232  -9.917   7.326  0.00  0.00    -0.253 OA
ATOM      6  N   UNL     1      -4.326 -10.360   9.452  0.00  0.00    -0.279 N 
ATOM      7  N   UNL     1      -3.767 -11.741  11.837  0.00  0.00    -0.295 NA
ATOM      8  N   UNL     1      -5.225  -8.340   9.064  0.00  0.00    -0.297 N 
ATOM      9  C   UNL     1      -4.051  -9.601  10.654  0.00  0.00    +0.109 C 
ATOM     10  C   UNL     1      -4.420 -10.417  11.892  0.00  0.00    +0.109 C 
ATOM     11  C   UNL     1      -3.856 -11.727   9.352  0.00  0.00    +0.125 C 
ATOM     12  C   UNL     1      -4.859  -8.321  10.462  0.00  0.00    +0.129 C 
ATOM     13  C   UNL     1      -4.193 -12.489  10.637  0.00  0.00    +0.104 C 
ATOM     14  C   UNL     1      -4.955  -9.587   8.471  0.00  0.00    +0.303 C 
ATOM     23  H   UNL     1      -5.698  -7.578   8.586  0.00  0.00    +0.150 HD
ENDBRANCH  15   7
BRANCH  15  16
ATOM     16  C   UNL     1      -3.396 -11.921  14.262  0.00  0.00    -0.030 A 
ATOM     17  C   UNL     1      -4.141 -11.665  15.413  0.00  0.00    +0.051 A 
ATOM     18  C   UNL     1      -2.032 -11.631  14.235  0.00  0.00    +0.005 A 
ATOM     19  C   UNL     1      -3.521 -11.120  16.538  0.00  0.00    +0.130 A 
ATOM     20  C   UNL     1      -1.412 -11.087  15.360  0.00  0.00    +0.004 A 
ATOM     21  C   UNL     1      -2.157 -10.832  16.511  0.00  0.00    +0.046 A 
BRANCH  19   5
ATOM      5  O   UNL     1      -4.249 -10.871  17.661  0.00  0.00    -0.406 OA
BRANCH   5  22
ATOM      1  F   UNL     1      -2.997 -11.824  19.279  0.00  0.00    -0.133 F 
ATOM      2  F   UNL     1      -4.447 -13.078  18.230  0.00  0.00    -0.133 F 
ATOM      3  F   UNL     1      -5.130 -11.541  19.663  0.00  0.00    -0.133 F 
ATOM     22  C   UNL     1      -4.223 -11.836  18.707  0.00  0.00    +0.575 C 
ENDBRANCH   5  22
ENDBRANCH  19   5
ENDBRANCH  15  16
TORSDOF 4
ENDMDL
MODEL 8
REMARK VINA RESULT:      -5.6     16.436     18.326
REMARK  Name = 75368556
REMARK  4 active torsions:
REMARK  status: ('A' for Active; 'I' for Inactive)
REMARK    1  A    between atoms: O_5  and  C_19
REMARK    2  A    between atoms: O_5  and  C_22
REMARK    3  A    between atoms: N_7  and  C_15
REMARK    4  A    between atoms: C_15  and  C_16
REMARK                            x       y       z     vdW  Elec       q    Type
REMARK                         _______ _______ _______ _____ _____    ______ ____
ROOT
ATOM     15  C   UNL     1      10.821   7.391   3.472  0.00  0.00    +0.119 C 
ENDROOT
BRANCH  15   7
ATOM      4  O   UNL     1       9.918   4.007   8.813  0.00  0.00    -0.253 OA
ATOM      6  N   UNL     1       9.568   5.375   6.930  0.00  0.00    -0.279 N 
ATOM      7  N   UNL     1      10.062   6.630   4.463  0.00  0.00    -0.295 NA
ATOM      8  N   UNL     1       9.094   6.199   8.965  0.00  0.00    -0.297 N 
ATOM      9  C   UNL     1       8.973   6.669   6.670  0.00  0.00    +0.109 C 
ATOM     10  C   UNL     1       9.821   7.450   5.668  0.00  0.00    +0.109 C 
ATOM     11  C   UNL     1       9.980   4.545   5.816  0.00  0.00    +0.125 C 
ATOM     12  C   UNL     1       8.869   7.300   8.056  0.00  0.00    +0.129 C 
ATOM     13  C   UNL     1      10.773   5.382   4.809  0.00  0.00    +0.104 C 
ATOM     14  C   UNL     1       9.569   5.057   8.293  0.00  0.00    +0.303 C 
ATOM     23  H   UNL     1       9.004   6.263   9.974  0.00  0.00    +0.150 HD
ENDBRANCH  15   7
BRANCH  15  16
ATOM     16  C   UNL     1      10.992   6.626   2.187  0.00  0.00    -0.030 A 
ATOM     17  C   UNL     1      12.259   6.188   1.800  0.00  0.00    +0.051 A 
ATOM     18  C   UNL     1       9.885   6.358   1.382  0.00  0.00    +0.005 A 
ATOM     19  C   UNL     1      12.418   5.481   0.608  0.00  0.00    +0.130 A 
ATOM     20  C   UNL     1      10.044   5.649   0.190  0.00  0.00    +0.004 A 
ATOM     21  C   UNL     1      11.311   5.211  -0.196  0.00  0.00    +0.046 A 
BRANCH  19   5
ATOM      5  O   UNL     1      13.654   5.053   0.231  0.00  0.00    -0.406 OA
BRANCH   5  22
ATOM      1  F   UNL     1      13.284   3.179   1.432  0.00  0.00    -0.133 F 
ATOM      2  F   UNL     1      15.277   3.480   0.587  0.00  0.00    -0.133 F 
ATOM      3  F   UNL     1      13.571   2.977  -0.725  0.00  0.00    -0.133 F 
ATOM     22  C   UNL     1      13.959   3.670   0.367  0.00  0.00    +0.575 C 
ENDBRANCH   5  22
ENDBRANCH  19   5
ENDBRANCH  15  16
TORSDOF 4
ENDMDL
MODEL 9
REMARK VINA RESULT:      -5.6     27.290     28.547
REMARK  Name = 75368556
REMARK  4 active torsions:
REMARK  status: ('A' for Active; 'I' for Inactive)
REMARK    1  A    between atoms: O_5  and  C_19
REMARK    2  A    between atoms: O_5  and  C_22
REMARK    3  A    between atoms: N_7  and  C_15
REMARK    4  A    between atoms: C_15  and  C_16
REMARK                            x       y       z     vdW  Elec       q    Type
REMARK                         _______ _______ _______ _____ _____    ______ ____
ROOT
ATOM     15  C   UNL     1      -3.957 -11.942  13.783  0.00  0.00    +0.119 C 
ENDROOT
BRANCH  15   7
ATOM      4  O   UNL     1      -7.070 -10.013  19.016  0.00  0.00    -0.253 OA
ATOM      6  N   UNL     1      -5.372 -10.522  17.468  0.00  0.00    -0.279 N 
ATOM      7  N   UNL     1      -4.158 -11.191  15.021  0.00  0.00    -0.295 NA
ATOM      8  N   UNL     1      -5.321 -11.507  19.486  0.00  0.00    -0.297 N 
ATOM      9  C   UNL     1      -4.129 -11.264  17.481  0.00  0.00    +0.109 C 
ATOM     10  C   UNL     1      -3.980 -12.072  16.192  0.00  0.00    +0.109 C 
ATOM     11  C   UNL     1      -5.719  -9.738  16.301  0.00  0.00    +0.125 C 
ATOM     12  C   UNL     1      -4.222 -12.098  18.756  0.00  0.00    +0.129 C 
ATOM     13  C   UNL     1      -5.497 -10.565  15.032  0.00  0.00    +0.104 C 
ATOM     14  C   UNL     1      -6.047 -10.601  18.690  0.00  0.00    +0.303 C 
ATOM     23  H   UNL     1      -5.592 -11.774  20.427  0.00  0.00    +0.150 HD
ENDBRANCH  15   7
BRANCH  15  16
ATOM     16  C   UNL     1      -3.449 -11.065  12.670  0.00  0.00    -0.030 A 
ATOM     17  C   UNL     1      -4.324 -10.619  11.679  0.00  0.00    +0.051 A 
ATOM     18  C   UNL     1      -2.103 -10.701  12.628  0.00  0.00    +0.005 A 
ATOM     19  C   UNL     1      -3.852  -9.808  10.647  0.00  0.00    +0.130 A 
ATOM     20  C   UNL     1      -1.631  -9.889  11.595  0.00  0.00    +0.004 A 
ATOM     21  C   UNL     1      -2.507  -9.442  10.606  0.00  0.00    +0.046 A 
BRANCH  19   5
ATOM      5  O   UNL     1      -4.706  -9.372   9.680  0.00  0.00    -0.406 OA
BRANCH   5  22
ATOM      1  F   UNL     1      -5.170  -7.582  10.975  0.00  0.00    -0.133 F 
ATOM      2  F   UNL     1      -6.784  -8.996  10.560  0.00  0.00    -0.133 F 
ATOM      3  F   UNL     1      -6.039  -7.654   8.971  0.00  0.00    -0.133 F 
ATOM     22  C   UNL     1      -5.689  -8.406  10.036  0.00  0.00    +0.575 C 
ENDBRANCH   5  22
ENDBRANCH  19   5
ENDBRANCH  15  16
TORSDOF 4
ENDMDL
MODEL 10
REMARK VINA RESULT:      -5.6     27.217     28.976
REMARK  Name = 75368556
REMARK  4 active torsions:
REMARK  status: ('A' for Active; 'I' for Inactive)
REMARK    1  A    between atoms: O_5  and  C_19
REMARK    2  A    between atoms: O_5  and  C_22
REMARK    3  A    between atoms: N_7  and  C_15
REMARK    4  A    between atoms: C_15  and  C_16
REMARK                            x       y       z     vdW  Elec       q    Type
REMARK                         _______ _______ _______ _____ _____    ______ ____
ROOT
ATOM     15  C   UNL     1     -13.606  10.301  21.456  0.00  0.00    +0.119 C 
ENDROOT
BRANCH  15   7
ATOM      4  O   UNL     1     -10.308   7.696  16.646  0.00  0.00    -0.253 OA
ATOM      6  N   UNL     1     -10.880   8.825  18.630  0.00  0.00    -0.279 N 
ATOM      7  N   UNL     1     -12.441   9.720  20.791  0.00  0.00    -0.295 NA
ATOM      8  N   UNL     1      -9.727   9.933  17.052  0.00  0.00    -0.297 N 
ATOM      9  C   UNL     1     -10.576  10.107  19.232  0.00  0.00    +0.109 C 
ATOM     10  C   UNL     1     -11.829  10.702  19.873  0.00  0.00    +0.109 C 
ATOM     11  C   UNL     1     -11.611   7.836  19.395  0.00  0.00    +0.125 C 
ATOM     12  C   UNL     1      -9.998  10.918  18.075  0.00  0.00    +0.129 C 
ATOM     13  C   UNL     1     -12.821   8.488  20.068  0.00  0.00    +0.104 C 
ATOM     14  C   UNL     1     -10.307   8.688  17.361  0.00  0.00    +0.303 C 
ATOM     23  H   UNL     1      -9.251  10.133  16.178  0.00  0.00    +0.150 HD
ENDBRANCH  15   7
BRANCH  15  16
ATOM     16  C   UNL     1     -13.219  11.100  22.671  0.00  0.00    -0.030 A 
ATOM     17  C   UNL     1     -12.267  10.600  23.560  0.00  0.00    +0.051 A 
ATOM     18  C   UNL     1     -13.815  12.338  22.911  0.00  0.00    +0.005 A 
ATOM     19  C   UNL     1     -11.910  11.340  24.687  0.00  0.00    +0.130 A 
ATOM     20  C   UNL     1     -13.457  13.078  24.038  0.00  0.00    +0.004 A 
ATOM     21  C   UNL     1     -12.504  12.579  24.926  0.00  0.00    +0.046 A 
BRANCH  19   5
ATOM      5  O   UNL     1     -10.980  10.852  25.554  0.00  0.00    -0.406 OA
BRANCH   5  22
ATOM      1  F   UNL     1     -12.662   9.753  26.583  0.00  0.00    -0.133 F 
ATOM      2  F   UNL     1     -11.535  11.224  27.741  0.00  0.00    -0.133 F 
ATOM      3  F   UNL     1     -10.612   9.294  27.188  0.00  0.00    -0.133 F 
ATOM     22  C   UNL     1     -11.433  10.285  26.778  0.00  0.00    +0.575 C 
ENDBRANCH   5  22
ENDBRANCH  19   5
ENDBRANCH  15  16
TORSDOF 4
ENDMDL
