MODEL 1
REMARK VINA RESULT:      -7.1      0.000      0.000
REMARK  Name = 40586252
REMARK  9 active torsions:
REMARK  status: ('A' for Active; 'I' for Inactive)
REMARK    1  A    between atoms: O_2  and  C_14
REMARK    2  A    between atoms: O_3  and  C_19
REMARK    3  A    between atoms: N_8  and  C_30
REMARK    4  A    between atoms: C_9  and  C_17
REMARK    5  A    between atoms: C_11  and  C_19
REMARK    6  A    between atoms: C_11  and  C_20
REMARK    7  A    between atoms: C_12  and  C_22
REMARK    8  A    between atoms: C_22  and  C_23
REMARK    9  A    between atoms: C_25  and  C_26
REMARK                            x       y       z     vdW  Elec       q    Type
REMARK                         _______ _______ _______ _____ _____    ______ ____
ROOT
ATOM      1  S   UNL     1      10.244   8.141  -0.795  0.00  0.00    -0.057 S 
ATOM      5  O   UNL     1       7.696   8.547   3.099  0.00  0.00    -0.275 OA
ATOM      6  N   UNL     1      10.033   7.338   1.655  0.00  0.00    -0.229 NA
ATOM      7  N   UNL     1       8.373   8.902   0.877  0.00  0.00    -0.264 N 
ATOM      9  C   UNL     1      12.927   4.885   0.965  0.00  0.00    -0.019 C 
ATOM     10  C   UNL     1      13.601   5.857  -0.103  0.00  0.00    +0.011 C 
ATOM     11  C   UNL     1      14.860   5.307  -0.877  0.00  0.00    +0.021 C 
ATOM     12  C   UNL     1      11.989   5.766   1.912  0.00  0.00    +0.054 C 
ATOM     13  C   UNL     1      14.032   4.236   1.838  0.00  0.00    +0.010 C 
ATOM     14  C   UNL     1      15.839   4.651   0.137  0.00  0.00    +0.123 C 
ATOM     15  C   UNL     1      12.532   6.511  -1.027  0.00  0.00    +0.049 C 
ATOM     16  C   UNL     1      15.169   3.617   1.036  0.00  0.00    +0.032 C 
ATOM     17  C   UNL     1      12.088   3.761   0.309  0.00  0.00    +0.012 C 
ATOM     18  C   UNL     1      11.133   6.706   1.104  0.00  0.00    +0.058 A 
ATOM     20  C   UNL     1      15.609   6.500  -1.537  0.00  0.00    +0.016 C 
ATOM     21  C   UNL     1      11.404   7.041  -0.207  0.00  0.00    +0.015 A 
ATOM     24  C   UNL     1       9.483   8.111   0.745  0.00  0.00    +0.165 A 
ATOM     26  C   UNL     1       7.536   9.096   2.005  0.00  0.00    +0.222 C 
ATOM     38  H   UNL     1       8.127   9.417   0.035  0.00  0.00    +0.157 HD
ENDROOT
BRANCH  26  25
ATOM     25  C   UNL     1       6.367  10.071   1.757  0.00  0.00    +0.075 C 
ATOM     27  C   UNL     1       5.246   9.605   0.804  0.00  0.00    +0.013 C 
ATOM     28  C   UNL     1       5.286  10.179   2.852  0.00  0.00    +0.013 C 
ATOM     29  C   UNL     1       4.262  10.368   1.715  0.00  0.00    +0.001 C 
ENDBRANCH  26  25
BRANCH  14   2
ATOM      2  O   UNL     1      16.927   4.029  -0.545  0.00  0.00    -0.391 OA
ATOM     36  H   UNL     1      16.811   3.066  -0.468  0.00  0.00    +0.210 HD
ENDBRANCH  14   2
BRANCH  11  19
ATOM     19  C   UNL     1      14.529   4.335  -2.031  0.00  0.00    +0.165 C 
BRANCH  19   3
ATOM      3  O   UNL     1      15.503   4.510  -3.035  0.00  0.00    -0.394 OA
ATOM     37  H   UNL     1      15.894   3.638  -3.215  0.00  0.00    +0.209 HD
ENDBRANCH  19   3
ENDBRANCH  11  19
BRANCH  12  22
ATOM     22  C   UNL     1      11.149   4.956   2.908  0.00  0.00    +0.106 C 
BRANCH  22  23
ATOM      4  O   UNL     1      11.952   6.436   4.632  0.00  0.00    -0.275 OA
ATOM      8  N   UNL     1      10.111   5.037   5.050  0.00  0.00    -0.285 N 
ATOM     23  C   UNL     1      11.141   5.580   4.290  0.00  0.00    +0.218 C 
ATOM     39  H   UNL     1       9.526   4.324   4.620  0.00  0.00    +0.155 HD
BRANCH   8  30
ATOM     30  C   UNL     1       9.768   5.350   6.387  0.00  0.00    +0.033 A 
ATOM     31  C   UNL     1       9.240   6.604   6.697  0.00  0.00    +0.023 A 
ATOM     32  C   UNL     1       9.961   4.406   7.396  0.00  0.00    +0.023 A 
ATOM     33  C   UNL     1       8.903   6.913   8.015  0.00  0.00    +0.002 A 
ATOM     34  C   UNL     1       9.623   4.716   8.714  0.00  0.00    +0.002 A 
ATOM     35  C   UNL     1       9.096   5.969   9.024  0.00  0.00    +0.000 A 
ENDBRANCH   8  30
ENDBRANCH  22  23
ENDBRANCH  12  22
TORSDOF 7
ENDMDL
MODEL 2
REMARK VINA RESULT:      -7.1     14.145     18.009
REMARK  Name = 40586252
REMARK  9 active torsions:
REMARK  status: ('A' for Active; 'I' for Inactive)
REMARK    1  A    between atoms: O_2  and  C_14
REMARK    2  A    between atoms: O_3  and  C_19
REMARK    3  A    between atoms: N_8  and  C_30
REMARK    4  A    between atoms: C_9  and  C_17
REMARK    5  A    between atoms: C_11  and  C_19
REMARK    6  A    between atoms: C_11  and  C_20
REMARK    7  A    between atoms: C_12  and  C_22
REMARK    8  A    between atoms: C_22  and  C_23
REMARK    9  A    between atoms: C_25  and  C_26
REMARK                            x       y       z     vdW  Elec       q    Type
REMARK                         _______ _______ _______ _____ _____    ______ ____
ROOT
ATOM      1  S   UNL     1      20.940  -4.697   1.562  0.00  0.00    -0.057 S 
ATOM      5  O   UNL     1      18.120  -5.539  -2.065  0.00  0.00    -0.275 OA
ATOM      6  N   UNL     1      19.748  -6.571   0.236  0.00  0.00    -0.229 NA
ATOM      7  N   UNL     1      19.407  -4.312  -0.530  0.00  0.00    -0.264 N 
ATOM      9  C   UNL     1      21.628  -9.135   2.417  0.00  0.00    -0.019 C 
ATOM     10  C   UNL     1      21.661  -8.158   3.675  0.00  0.00    +0.011 C 
ATOM     11  C   UNL     1      22.466  -8.647   4.940  0.00  0.00    +0.021 C 
ATOM     12  C   UNL     1      20.439  -8.667   1.459  0.00  0.00    +0.054 C 
ATOM     13  C   UNL     1      21.330 -10.580   2.895  0.00  0.00    +0.010 C 
ATOM     14  C   UNL     1      22.084 -10.122   5.251  0.00  0.00    +0.123 C 
ATOM     15  C   UNL     1      21.988  -6.697   3.250  0.00  0.00    +0.049 C 
ATOM     16  C   UNL     1      22.214 -11.044   4.044  0.00  0.00    +0.032 C 
ATOM     17  C   UNL     1      22.958  -9.138   1.624  0.00  0.00    +0.012 C 
ATOM     18  C   UNL     1      20.464  -7.174   1.253  0.00  0.00    +0.058 A 
ATOM     20  C   UNL     1      22.045  -7.792   6.170  0.00  0.00    +0.016 C 
ATOM     21  C   UNL     1      21.151  -6.307   2.079  0.00  0.00    +0.015 A 
ATOM     24  C   UNL     1      19.930  -5.270   0.296  0.00  0.00    +0.165 A 
ATOM     26  C   UNL     1      18.547  -4.459  -1.648  0.00  0.00    +0.222 C 
ATOM     38  H   UNL     1      19.685  -3.362  -0.293  0.00  0.00    +0.157 HD
ENDROOT
BRANCH  26  25
ATOM     25  C   UNL     1      18.178  -3.128  -2.334  0.00  0.00    +0.075 C 
ATOM     27  C   UNL     1      18.572  -2.961  -3.816  0.00  0.00    +0.013 C 
ATOM     28  C   UNL     1      16.714  -2.940  -2.781  0.00  0.00    +0.013 C 
ATOM     29  C   UNL     1      17.264  -2.161  -3.993  0.00  0.00    +0.001 C 
ENDBRANCH  26  25
BRANCH  14   2
ATOM      2  O   UNL     1      22.890 -10.637   6.311  0.00  0.00    -0.391 OA
ATOM     36  H   UNL     1      22.874 -11.607   6.248  0.00  0.00    +0.210 HD
ENDBRANCH  14   2
BRANCH  11  19
ATOM     19  C   UNL     1      23.997  -8.487   4.828  0.00  0.00    +0.165 C 
BRANCH  19   3
ATOM      3  O   UNL     1      24.504  -8.250   6.122  0.00  0.00    -0.394 OA
ATOM     37  H   UNL     1      25.260  -8.847   6.251  0.00  0.00    +0.209 HD
ENDBRANCH  19   3
ENDBRANCH  11  19
BRANCH  12  22
ATOM     22  C   UNL     1      20.363  -9.417   0.122  0.00  0.00    +0.106 C 
BRANCH  22  23
ATOM      4  O   UNL     1      18.289  -9.696  -1.071  0.00  0.00    -0.275 OA
ATOM      8  N   UNL     1      18.701 -10.947   0.875  0.00  0.00    -0.285 N 
ATOM     23  C   UNL     1      18.994 -10.019  -0.119  0.00  0.00    +0.218 C 
ATOM     39  H   UNL     1      19.393 -11.096   1.605  0.00  0.00    +0.155 HD
BRANCH   8  30
ATOM     30  C   UNL     1      17.525 -11.724   1.010  0.00  0.00    +0.033 A 
ATOM     31  C   UNL     1      17.263 -12.755   0.108  0.00  0.00    +0.023 A 
ATOM     32  C   UNL     1      16.628 -11.457   2.045  0.00  0.00    +0.023 A 
ATOM     33  C   UNL     1      16.104 -13.521   0.241  0.00  0.00    +0.002 A 
ATOM     34  C   UNL     1      15.470 -12.223   2.178  0.00  0.00    +0.002 A 
ATOM     35  C   UNL     1      15.207 -13.254   1.275  0.00  0.00    +0.000 A 
ENDBRANCH   8  30
ENDBRANCH  22  23
ENDBRANCH  12  22
TORSDOF 7
ENDMDL
MODEL 3
REMARK VINA RESULT:      -6.8     33.251     38.142
REMARK  Name = 40586252
REMARK  9 active torsions:
REMARK  status: ('A' for Active; 'I' for Inactive)
REMARK    1  A    between atoms: O_2  and  C_14
REMARK    2  A    between atoms: O_3  and  C_19
REMARK    3  A    between atoms: N_8  and  C_30
REMARK    4  A    between atoms: C_9  and  C_17
REMARK    5  A    between atoms: C_11  and  C_19
REMARK    6  A    between atoms: C_11  and  C_20
REMARK    7  A    between atoms: C_12  and  C_22
REMARK    8  A    between atoms: C_22  and  C_23
REMARK    9  A    between atoms: C_25  and  C_26
REMARK                            x       y       z     vdW  Elec       q    Type
REMARK                         _______ _______ _______ _____ _____    ______ ____
ROOT
ATOM      1  S   UNL     1      -4.454  13.052  33.862  0.00  0.00    -0.057 S 
ATOM      5  O   UNL     1      -0.125  11.801  35.094  0.00  0.00    -0.275 OA
ATOM      6  N   UNL     1      -3.093  11.419  35.336  0.00  0.00    -0.229 NA
ATOM      7  N   UNL     1      -1.836  12.986  34.004  0.00  0.00    -0.264 N 
ATOM      9  C   UNL     1      -6.428  10.195  36.834  0.00  0.00    -0.019 C 
ATOM     10  C   UNL     1      -7.228  10.477  35.486  0.00  0.00    +0.011 C 
ATOM     11  C   UNL     1      -8.790  10.262  35.522  0.00  0.00    +0.021 C 
ATOM     12  C   UNL     1      -4.880  10.045  36.468  0.00  0.00    +0.054 C 
ATOM     13  C   UNL     1      -6.915   8.858  37.451  0.00  0.00    +0.010 C 
ATOM     14  C   UNL     1      -9.104   8.904  36.211  0.00  0.00    +0.123 C 
ATOM     15  C   UNL     1      -6.796  11.828  34.842  0.00  0.00    +0.049 C 
ATOM     16  C   UNL     1      -8.430   8.749  37.570  0.00  0.00    +0.032 C 
ATOM     17  C   UNL     1      -6.603  11.320  37.884  0.00  0.00    +0.012 C 
ATOM     18  C   UNL     1      -4.433  11.148  35.544  0.00  0.00    +0.058 A 
ATOM     20  C   UNL     1      -9.322  10.174  34.063  0.00  0.00    +0.016 C 
ATOM     21  C   UNL     1      -5.308  11.923  34.810  0.00  0.00    +0.015 A 
ATOM     24  C   UNL     1      -2.985  12.407  34.475  0.00  0.00    +0.165 A 
ATOM     26  C   UNL     1      -0.485  12.684  34.310  0.00  0.00    +0.222 C 
ATOM     38  H   UNL     1      -1.994  13.741  33.340  0.00  0.00    +0.157 HD
ENDROOT
BRANCH  26  25
ATOM     25  C   UNL     1       0.538  13.573  33.574  0.00  0.00    +0.075 C 
ATOM     27  C   UNL     1       1.168  13.009  32.284  0.00  0.00    +0.013 C 
ATOM     28  C   UNL     1      -0.015  14.725  32.711  0.00  0.00    +0.013 C 
ATOM     29  C   UNL     1       1.151  14.452  31.738  0.00  0.00    +0.001 C 
ENDBRANCH  26  25
BRANCH  14   2
ATOM      2  O   UNL     1     -10.512   8.738  36.377  0.00  0.00    -0.391 OA
ATOM     36  H   UNL     1     -10.815   8.106  35.703  0.00  0.00    +0.210 HD
ENDBRANCH  14   2
BRANCH  11  19
ATOM     19  C   UNL     1      -9.581  11.411  36.184  0.00  0.00    +0.165 C 
BRANCH  19   3
ATOM      3  O   UNL     1     -10.813  11.533  35.510  0.00  0.00    -0.394 OA
ATOM     37  H   UNL     1     -10.692  11.169  34.617  0.00  0.00    +0.209 HD
ENDBRANCH  19   3
ENDBRANCH  11  19
BRANCH  12  22
ATOM     22  C   UNL     1      -3.948   9.915  37.680  0.00  0.00    +0.106 C 
BRANCH  22  23
ATOM      4  O   UNL     1      -2.858   8.061  36.593  0.00  0.00    -0.275 OA
ATOM      8  N   UNL     1      -2.783   8.257  38.933  0.00  0.00    -0.285 N 
ATOM     23  C   UNL     1      -3.135   8.636  37.641  0.00  0.00    +0.218 C 
ATOM     39  H   UNL     1      -3.100   8.842  39.703  0.00  0.00    +0.155 HD
BRANCH   8  30
ATOM     30  C   UNL     1      -2.029   7.126  39.325  0.00  0.00    +0.033 A 
ATOM     31  C   UNL     1      -0.739   6.941  38.828  0.00  0.00    +0.023 A 
ATOM     32  C   UNL     1      -2.577   6.194  40.207  0.00  0.00    +0.023 A 
ATOM     33  C   UNL     1       0.005   5.826  39.214  0.00  0.00    +0.002 A 
ATOM     34  C   UNL     1      -1.833   5.078  40.593  0.00  0.00    +0.002 A 
ATOM     35  C   UNL     1      -0.543   4.894  40.095  0.00  0.00    +0.000 A 
ENDBRANCH   8  30
ENDBRANCH  22  23
ENDBRANCH  12  22
TORSDOF 7
ENDMDL
MODEL 4
REMARK VINA RESULT:      -6.8     17.146     21.610
REMARK  Name = 40586252
REMARK  9 active torsions:
REMARK  status: ('A' for Active; 'I' for Inactive)
REMARK    1  A    between atoms: O_2  and  C_14
REMARK    2  A    between atoms: O_3  and  C_19
REMARK    3  A    between atoms: N_8  and  C_30
REMARK    4  A    between atoms: C_9  and  C_17
REMARK    5  A    between atoms: C_11  and  C_19
REMARK    6  A    between atoms: C_11  and  C_20
REMARK    7  A    between atoms: C_12  and  C_22
REMARK    8  A    between atoms: C_22  and  C_23
REMARK    9  A    between atoms: C_25  and  C_26
REMARK                            x       y       z     vdW  Elec       q    Type
REMARK                         _______ _______ _______ _____ _____    ______ ____
ROOT
ATOM      1  S   UNL     1      18.022   6.170  20.092  0.00  0.00    -0.057 S 
ATOM      5  O   UNL     1      20.985   8.664  22.703  0.00  0.00    -0.275 OA
ATOM      6  N   UNL     1      18.284   8.371  21.427  0.00  0.00    -0.229 NA
ATOM      7  N   UNL     1      20.187   6.892  21.383  0.00  0.00    -0.264 N 
ATOM      9  C   UNL     1      14.820   9.433  20.108  0.00  0.00    -0.019 C 
ATOM     10  C   UNL     1      14.298   7.930  20.038  0.00  0.00    +0.011 C 
ATOM     11  C   UNL     1      12.868   7.696  19.414  0.00  0.00    +0.021 C 
ATOM     12  C   UNL     1      16.040   9.486  21.138  0.00  0.00    +0.054 C 
ATOM     13  C   UNL     1      13.687  10.347  20.644  0.00  0.00    +0.010 C 
ATOM     14  C   UNL     1      11.870   8.721  20.024  0.00  0.00    +0.123 C 
ATOM     15  C   UNL     1      15.391   6.975  19.475  0.00  0.00    +0.049 C 
ATOM     16  C   UNL     1      12.356  10.163  19.929  0.00  0.00    +0.032 C 
ATOM     17  C   UNL     1      15.284   9.973  18.732  0.00  0.00    +0.012 C 
ATOM     18  C   UNL     1      17.011   8.362  20.886  0.00  0.00    +0.058 A 
ATOM     20  C   UNL     1      12.370   6.276  19.808  0.00  0.00    +0.016 C 
ATOM     21  C   UNL     1      16.694   7.237  20.152  0.00  0.00    +0.015 A 
ATOM     24  C   UNL     1      18.909   7.271  21.068  0.00  0.00    +0.165 A 
ATOM     26  C   UNL     1      21.160   7.569  22.162  0.00  0.00    +0.222 C 
ATOM     38  H   UNL     1      20.462   5.994  20.993  0.00  0.00    +0.157 HD
ENDROOT
BRANCH  26  25
ATOM     25  C   UNL     1      22.499   6.815  22.283  0.00  0.00    +0.075 C 
ATOM     27  C   UNL     1      22.440   5.321  22.661  0.00  0.00    +0.013 C 
ATOM     28  C   UNL     1      23.190   6.379  20.975  0.00  0.00    +0.013 C 
ATOM     29  C   UNL     1      23.654   5.117  21.731  0.00  0.00    +0.001 C 
ENDBRANCH  26  25
BRANCH  14   2
ATOM      2  O   UNL     1      10.597   8.623  19.387  0.00  0.00    -0.391 OA
ATOM     36  H   UNL     1      10.383   7.678  19.301  0.00  0.00    +0.210 HD
ENDBRANCH  14   2
BRANCH  11  19
ATOM     19  C   UNL     1      12.827   7.739  17.871  0.00  0.00    +0.165 C 
BRANCH  19   3
ATOM      3  O   UNL     1      11.752   6.932  17.445  0.00  0.00    -0.394 OA
ATOM     37  H   UNL     1      11.555   6.308  18.164  0.00  0.00    +0.209 HD
ENDBRANCH  19   3
ENDBRANCH  11  19
BRANCH  12  22
ATOM     22  C   UNL     1      16.755  10.841  21.212  0.00  0.00    +0.106 C 
BRANCH  22  23
ATOM      4  O   UNL     1      15.700  12.942  21.741  0.00  0.00    -0.275 OA
ATOM      8  N   UNL     1      15.829  11.251  23.367  0.00  0.00    -0.285 N 
ATOM     23  C   UNL     1      16.032  11.821  22.115  0.00  0.00    +0.218 C 
ATOM     39  H   UNL     1      16.174  10.307  23.522  0.00  0.00    +0.155 HD
BRANCH   8  30
ATOM     30  C   UNL     1      15.194  11.836  24.489  0.00  0.00    +0.033 A 
ATOM     31  C   UNL     1      13.803  11.939  24.528  0.00  0.00    +0.023 A 
ATOM     32  C   UNL     1      15.959  12.313  25.553  0.00  0.00    +0.023 A 
ATOM     33  C   UNL     1      13.177  12.516  25.633  0.00  0.00    +0.002 A 
ATOM     34  C   UNL     1      15.333  12.891  26.658  0.00  0.00    +0.002 A 
ATOM     35  C   UNL     1      13.943  12.993  26.698  0.00  0.00    +0.000 A 
ENDBRANCH   8  30
ENDBRANCH  22  23
ENDBRANCH  12  22
TORSDOF 7
ENDMDL
MODEL 5
REMARK VINA RESULT:      -6.7     24.206     27.930
REMARK  Name = 40586252
REMARK  9 active torsions:
REMARK  status: ('A' for Active; 'I' for Inactive)
REMARK    1  A    between atoms: O_2  and  C_14
REMARK    2  A    between atoms: O_3  and  C_19
REMARK    3  A    between atoms: N_8  and  C_30
REMARK    4  A    between atoms: C_9  and  C_17
REMARK    5  A    between atoms: C_11  and  C_19
REMARK    6  A    between atoms: C_11  and  C_20
REMARK    7  A    between atoms: C_12  and  C_22
REMARK    8  A    between atoms: C_22  and  C_23
REMARK    9  A    between atoms: C_25  and  C_26
REMARK                            x       y       z     vdW  Elec       q    Type
REMARK                         _______ _______ _______ _____ _____    ______ ____
ROOT
ATOM      1  S   UNL     1      -7.478  -9.951  12.556  0.00  0.00    -0.057 S 
ATOM      5  O   UNL     1      -3.609 -10.457   9.987  0.00  0.00    -0.275 OA
ATOM      6  N   UNL     1      -4.983 -10.630  12.650  0.00  0.00    -0.229 NA
ATOM      7  N   UNL     1      -5.848  -9.965  10.501  0.00  0.00    -0.264 N 
ATOM      9  C   UNL     1      -5.332 -10.890  16.481  0.00  0.00    -0.019 C 
ATOM     10  C   UNL     1      -6.864 -11.318  16.392  0.00  0.00    +0.011 C 
ATOM     11  C   UNL     1      -7.646 -11.468  17.753  0.00  0.00    +0.021 C 
ATOM     12  C   UNL     1      -4.643 -11.222  15.079  0.00  0.00    +0.054 C 
ATOM     13  C   UNL     1      -4.628 -11.726  17.581  0.00  0.00    +0.010 C 
ATOM     14  C   UNL     1      -6.782 -12.288  18.753  0.00  0.00    +0.123 C 
ATOM     15  C   UNL     1      -7.625 -10.484  15.320  0.00  0.00    +0.049 C 
ATOM     16  C   UNL     1      -5.367 -11.742  18.912  0.00  0.00    +0.032 C 
ATOM     17  C   UNL     1      -5.146  -9.387  16.804  0.00  0.00    +0.012 C 
ATOM     18  C   UNL     1      -5.494 -10.743  13.930  0.00  0.00    +0.058 A 
ATOM     20  C   UNL     1      -8.952 -12.276  17.500  0.00  0.00    +0.016 C 
ATOM     21  C   UNL     1      -6.833 -10.435  14.056  0.00  0.00    +0.015 A 
ATOM     24  C   UNL     1      -5.936 -10.213  11.845  0.00  0.00    +0.165 A 
ATOM     26  C   UNL     1      -4.732 -10.087   9.634  0.00  0.00    +0.222 C 
ATOM     38  H   UNL     1      -6.719  -9.648  10.079  0.00  0.00    +0.157 HD
ENDROOT
BRANCH  26  25
ATOM     25  C   UNL     1      -5.032  -9.704   8.171  0.00  0.00    +0.075 C 
ATOM     27  C   UNL     1      -5.042 -10.841   7.128  0.00  0.00    +0.013 C 
ATOM     28  C   UNL     1      -6.504  -9.445   7.791  0.00  0.00    +0.013 C 
ATOM     29  C   UNL     1      -6.182 -10.078   6.422  0.00  0.00    +0.001 C 
ENDBRANCH  26  25
BRANCH  14   2
ATOM      2  O   UNL     1      -7.404 -12.331  20.036  0.00  0.00    -0.391 OA
ATOM     36  H   UNL     1      -7.440 -13.262  20.315  0.00  0.00    +0.210 HD
ENDBRANCH  14   2
BRANCH  11  19
ATOM     19  C   UNL     1      -8.099 -10.133  18.383  0.00  0.00    +0.165 C 
BRANCH  19   3
ATOM      3  O   UNL     1      -9.256 -10.386  19.148  0.00  0.00    -0.394 OA
ATOM     37  H   UNL     1      -9.269 -11.337  19.348  0.00  0.00    +0.209 HD
ENDBRANCH  19   3
ENDBRANCH  11  19
BRANCH  12  22
ATOM     22  C   UNL     1      -3.195 -10.733  14.948  0.00  0.00    +0.106 C 
BRANCH  22  23
ATOM      4  O   UNL     1      -1.012 -11.744  15.088  0.00  0.00    -0.275 OA
ATOM      8  N   UNL     1      -2.871 -13.046  14.482  0.00  0.00    -0.285 N 
ATOM     23  C   UNL     1      -2.210 -11.881  14.855  0.00  0.00    +0.218 C 
ATOM     39  H   UNL     1      -3.874 -12.992  14.316  0.00  0.00    +0.155 HD
BRANCH   8  30
ATOM     30  C   UNL     1      -2.312 -14.331  14.286  0.00  0.00    +0.033 A 
ATOM     31  C   UNL     1      -1.241 -14.499  13.408  0.00  0.00    +0.023 A 
ATOM     32  C   UNL     1      -2.832 -15.430  14.970  0.00  0.00    +0.023 A 
ATOM     33  C   UNL     1      -0.689 -15.765  13.214  0.00  0.00    +0.002 A 
ATOM     34  C   UNL     1      -2.280 -16.697  14.776  0.00  0.00    +0.002 A 
ATOM     35  C   UNL     1      -1.209 -16.865  13.898  0.00  0.00    +0.000 A 
ENDBRANCH   8  30
ENDBRANCH  22  23
ENDBRANCH  12  22
TORSDOF 7
ENDMDL
MODEL 6
REMARK VINA RESULT:      -6.7     27.840     31.378
REMARK  Name = 40586252
REMARK  9 active torsions:
REMARK  status: ('A' for Active; 'I' for Inactive)
REMARK    1  A    between atoms: O_2  and  C_14
REMARK    2  A    between atoms: O_3  and  C_19
REMARK    3  A    between atoms: N_8  and  C_30
REMARK    4  A    between atoms: C_9  and  C_17
REMARK    5  A    between atoms: C_11  and  C_19
REMARK    6  A    between atoms: C_11  and  C_20
REMARK    7  A    between atoms: C_12  and  C_22
REMARK    8  A    between atoms: C_22  and  C_23
REMARK    9  A    between atoms: C_25  and  C_26
REMARK                            x       y       z     vdW  Elec       q    Type
REMARK                         _______ _______ _______ _____ _____    ______ ____
ROOT
ATOM      1  S   UNL     1     -10.132 -12.728  20.094  0.00  0.00    -0.057 S 
ATOM      5  O   UNL     1     -13.584  -9.759  19.051  0.00  0.00    -0.275 OA
ATOM      6  N   UNL     1     -10.749 -10.665  18.660  0.00  0.00    -0.229 NA
ATOM      7  N   UNL     1     -12.479 -11.559  20.080  0.00  0.00    -0.264 N 
ATOM      9  C   UNL     1      -7.055 -10.477  17.573  0.00  0.00    -0.019 C 
ATOM     10  C   UNL     1      -6.858 -12.053  17.687  0.00  0.00    +0.011 C 
ATOM     11  C   UNL     1      -5.402 -12.612  17.457  0.00  0.00    +0.021 C 
ATOM     12  C   UNL     1      -8.616 -10.184  17.402  0.00  0.00    +0.054 C 
ATOM     13  C   UNL     1      -6.320  -9.957  16.309  0.00  0.00    +0.010 C 
ATOM     14  C   UNL     1      -4.798 -11.956  16.183  0.00  0.00    +0.123 C 
ATOM     15  C   UNL     1      -7.553 -12.620  18.960  0.00  0.00    +0.049 C 
ATOM     16  C   UNL     1      -4.878 -10.434  16.195  0.00  0.00    +0.032 C 
ATOM     17  C   UNL     1      -6.519  -9.712  18.808  0.00  0.00    +0.012 C 
ATOM     18  C   UNL     1      -9.427 -10.973  18.397  0.00  0.00    +0.058 A 
ATOM     20  C   UNL     1      -5.483 -14.143  17.194  0.00  0.00    +0.016 C 
ATOM     21  C   UNL     1      -8.937 -12.073  19.071  0.00  0.00    +0.015 A 
ATOM     24  C   UNL     1     -11.219 -11.517  19.545  0.00  0.00    +0.165 A 
ATOM     26  C   UNL     1     -13.590 -10.713  19.833  0.00  0.00    +0.222 C 
ATOM     38  H   UNL     1     -12.621 -12.310  20.752  0.00  0.00    +0.157 HD
ENDROOT
BRANCH  26  25
ATOM     25  C   UNL     1     -14.849 -11.081  20.646  0.00  0.00    +0.075 C 
ATOM     27  C   UNL     1     -14.636 -11.648  22.064  0.00  0.00    +0.013 C 
ATOM     28  C   UNL     1     -15.630  -9.926  21.307  0.00  0.00    +0.013 C 
ATOM     29  C   UNL     1     -15.917 -10.893  22.474  0.00  0.00    +0.001 C 
ENDBRANCH  26  25
BRANCH  14   2
ATOM      2  O   UNL     1      -3.433 -12.342  16.018  0.00  0.00    -0.391 OA
ATOM     36  H   UNL     1      -3.185 -12.161  15.095  0.00  0.00    +0.210 HD
ENDBRANCH  14   2
BRANCH  11  19
ATOM     19  C   UNL     1      -4.453 -12.448  18.664  0.00  0.00    +0.165 C 
BRANCH  19   3
ATOM      3  O   UNL     1      -3.823 -13.688  18.891  0.00  0.00    -0.394 OA
ATOM     37  H   UNL     1      -4.514 -14.321  19.150  0.00  0.00    +0.209 HD
ENDBRANCH  19   3
ENDBRANCH  11  19
BRANCH  12  22
ATOM     22  C   UNL     1      -8.992  -8.696  17.425  0.00  0.00    +0.106 C 
BRANCH  22  23
ATOM      4  O   UNL     1      -9.638  -8.734  15.104  0.00  0.00    -0.275 OA
ATOM      8  N   UNL     1     -10.843  -7.422  16.636  0.00  0.00    -0.285 N 
ATOM     23  C   UNL     1      -9.845  -8.304  16.235  0.00  0.00    +0.218 C 
ATOM     39  H   UNL     1     -10.876  -7.155  17.617  0.00  0.00    +0.155 HD
BRANCH   8  30
ATOM     30  C   UNL     1     -11.841  -6.824  15.830  0.00  0.00    +0.033 A 
ATOM     31  C   UNL     1     -13.171  -7.224  15.954  0.00  0.00    +0.023 A 
ATOM     32  C   UNL     1     -11.493  -5.835  14.908  0.00  0.00    +0.023 A 
ATOM     33  C   UNL     1     -14.155  -6.635  15.159  0.00  0.00    +0.002 A 
ATOM     34  C   UNL     1     -12.477  -5.246  14.114  0.00  0.00    +0.002 A 
ATOM     35  C   UNL     1     -13.807  -5.647  14.238  0.00  0.00    +0.000 A 
ENDBRANCH   8  30
ENDBRANCH  22  23
ENDBRANCH  12  22
TORSDOF 7
ENDMDL
MODEL 7
REMARK VINA RESULT:      -6.6      5.436      8.103
REMARK  Name = 40586252
REMARK  9 active torsions:
REMARK  status: ('A' for Active; 'I' for Inactive)
REMARK    1  A    between atoms: O_2  and  C_14
REMARK    2  A    between atoms: O_3  and  C_19
REMARK    3  A    between atoms: N_8  and  C_30
REMARK    4  A    between atoms: C_9  and  C_17
REMARK    5  A    between atoms: C_11  and  C_19
REMARK    6  A    between atoms: C_11  and  C_20
REMARK    7  A    between atoms: C_12  and  C_22
REMARK    8  A    between atoms: C_22  and  C_23
REMARK    9  A    between atoms: C_25  and  C_26
REMARK                            x       y       z     vdW  Elec       q    Type
REMARK                         _______ _______ _______ _____ _____    ______ ____
ROOT
ATOM      1  S   UNL     1      15.014   7.986   6.589  0.00  0.00    -0.057 S 
ATOM      5  O   UNL     1      12.085   6.339   3.345  0.00  0.00    -0.275 OA
ATOM      6  N   UNL     1      14.801   7.384   4.082  0.00  0.00    -0.229 NA
ATOM      7  N   UNL     1      12.849   7.039   5.453  0.00  0.00    -0.264 N 
ATOM      9  C   UNL     1      18.327   8.853   3.560  0.00  0.00    -0.019 C 
ATOM     10  C   UNL     1      18.797   8.452   5.028  0.00  0.00    +0.011 C 
ATOM     11  C   UNL     1      20.231   8.932   5.477  0.00  0.00    +0.021 C 
ATOM     12  C   UNL     1      17.088   7.924   3.166  0.00  0.00    +0.054 C 
ATOM     13  C   UNL     1      19.479   8.582   2.558  0.00  0.00    +0.010 C 
ATOM     14  C   UNL     1      21.251   8.628   4.343  0.00  0.00    +0.123 C 
ATOM     15  C   UNL     1      17.684   8.735   6.078  0.00  0.00    +0.049 C 
ATOM     16  C   UNL     1      20.818   9.167   2.984  0.00  0.00    +0.032 C 
ATOM     17  C   UNL     1      17.911  10.341   3.448  0.00  0.00    +0.012 C 
ATOM     18  C   UNL     1      16.084   7.857   4.288  0.00  0.00    +0.058 A 
ATOM     20  C   UNL     1      20.670   8.115   6.726  0.00  0.00    +0.016 C 
ATOM     21  C   UNL     1      16.376   8.208   5.590  0.00  0.00    +0.015 A 
ATOM     24  C   UNL     1      14.145   7.414   5.222  0.00  0.00    +0.165 A 
ATOM     26  C   UNL     1      11.884   6.530   4.547  0.00  0.00    +0.222 C 
ATOM     38  H   UNL     1      12.550   7.149   6.420  0.00  0.00    +0.157 HD
ENDROOT
BRANCH  26  25
ATOM     25  C   UNL     1      10.516   6.229   5.193  0.00  0.00    +0.075 C 
ATOM     27  C   UNL     1      10.066   4.754   5.245  0.00  0.00    +0.013 C 
ATOM     28  C   UNL     1      10.443   6.227   6.734  0.00  0.00    +0.013 C 
ATOM     29  C   UNL     1       9.418   5.081   6.606  0.00  0.00    +0.001 C 
ENDBRANCH  26  25
BRANCH  14   2
ATOM      2  O   UNL     1      22.533   9.167   4.663  0.00  0.00    -0.391 OA
ATOM     36  H   UNL     1      23.197   8.485   4.466  0.00  0.00    +0.210 HD
ENDBRANCH  14   2
BRANCH  11  19
ATOM     19  C   UNL     1      20.307  10.414   5.903  0.00  0.00    +0.165 C 
BRANCH  19   3
ATOM      3  O   UNL     1      21.230  10.513   6.964  0.00  0.00    -0.394 OA
ATOM     37  H   UNL     1      21.505   9.609   7.193  0.00  0.00    +0.209 HD
ENDBRANCH  19   3
ENDBRANCH  11  19
BRANCH  12  22
ATOM     22  C   UNL     1      16.419   8.284   1.833  0.00  0.00    +0.106 C 
BRANCH  22  23
ATOM      4  O   UNL     1      16.918   6.578   0.206  0.00  0.00    -0.275 OA
ATOM      8  N   UNL     1      14.827   6.603   1.277  0.00  0.00    -0.285 N 
ATOM     23  C   UNL     1      16.112   7.058   0.998  0.00  0.00    +0.218 C 
ATOM     39  H   UNL     1      14.277   7.120   1.960  0.00  0.00    +0.155 HD
BRANCH   8  30
ATOM     30  C   UNL     1      14.164   5.488   0.710  0.00  0.00    +0.033 A 
ATOM     31  C   UNL     1      14.048   4.302   1.435  0.00  0.00    +0.023 A 
ATOM     32  C   UNL     1      13.629   5.575  -0.575  0.00  0.00    +0.023 A 
ATOM     33  C   UNL     1      13.395   3.203   0.877  0.00  0.00    +0.002 A 
ATOM     34  C   UNL     1      12.976   4.476  -1.134  0.00  0.00    +0.002 A 
ATOM     35  C   UNL     1      12.860   3.290  -0.409  0.00  0.00    +0.000 A 
ENDBRANCH   8  30
ENDBRANCH  22  23
ENDBRANCH  12  22
TORSDOF 7
ENDMDL
MODEL 8
REMARK VINA RESULT:      -6.6     28.086     32.574
REMARK  Name = 40586252
REMARK  9 active torsions:
REMARK  status: ('A' for Active; 'I' for Inactive)
REMARK    1  A    between atoms: O_2  and  C_14
REMARK    2  A    between atoms: O_3  and  C_19
REMARK    3  A    between atoms: N_8  and  C_30
REMARK    4  A    between atoms: C_9  and  C_17
REMARK    5  A    between atoms: C_11  and  C_19
REMARK    6  A    between atoms: C_11  and  C_20
REMARK    7  A    between atoms: C_12  and  C_22
REMARK    8  A    between atoms: C_22  and  C_23
REMARK    9  A    between atoms: C_25  and  C_26
REMARK                            x       y       z     vdW  Elec       q    Type
REMARK                         _______ _______ _______ _____ _____    ______ ____
ROOT
ATOM      1  S   UNL     1     -10.395 -10.664  20.064  0.00  0.00    -0.057 S 
ATOM      5  O   UNL     1      -7.158  -9.412  16.937  0.00  0.00    -0.275 OA
ATOM      6  N   UNL     1     -10.037  -9.498  17.782  0.00  0.00    -0.229 NA
ATOM      7  N   UNL     1      -8.071 -10.339  18.893  0.00  0.00    -0.264 N 
ATOM      9  C   UNL     1     -13.872  -9.284  17.436  0.00  0.00    -0.019 C 
ATOM     10  C   UNL     1     -14.086  -9.172  19.010  0.00  0.00    +0.011 C 
ATOM     11  C   UNL     1     -15.575  -9.172  19.532  0.00  0.00    +0.021 C 
ATOM     12  C   UNL     1     -12.375  -8.831  17.108  0.00  0.00    +0.054 C 
ATOM     13  C   UNL     1     -14.844  -8.316  16.714  0.00  0.00    +0.010 C 
ATOM     14  C   UNL     1     -16.418  -8.188  18.672  0.00  0.00    +0.123 C 
ATOM     15  C   UNL     1     -13.152 -10.150  19.782  0.00  0.00    +0.049 C 
ATOM     16  C   UNL     1     -16.291  -8.438  17.174  0.00  0.00    +0.032 C 
ATOM     17  C   UNL     1     -14.106 -10.717  16.898  0.00  0.00    +0.012 C 
ATOM     18  C   UNL     1     -11.394  -9.480  18.050  0.00  0.00    +0.058 A 
ATOM     20  C   UNL     1     -15.598  -8.644  20.995  0.00  0.00    +0.016 C 
ATOM     21  C   UNL     1     -11.761 -10.049  19.253  0.00  0.00    +0.015 A 
ATOM     24  C   UNL     1      -9.414 -10.103  18.770  0.00  0.00    +0.165 A 
ATOM     26  C   UNL     1      -7.013 -10.002  18.010  0.00  0.00    +0.222 C 
ATOM     38  H   UNL     1      -7.811 -10.827  19.748  0.00  0.00    +0.157 HD
ENDROOT
BRANCH  26  25
ATOM     25  C   UNL     1      -5.621 -10.449  18.502  0.00  0.00    +0.075 C 
ATOM     27  C   UNL     1      -5.571 -11.422  19.699  0.00  0.00    +0.013 C 
ATOM     28  C   UNL     1      -4.894 -11.536  17.685  0.00  0.00    +0.013 C 
ATOM     29  C   UNL     1      -4.341 -12.064  19.025  0.00  0.00    +0.001 C 
ENDBRANCH  26  25
BRANCH  14   2
ATOM      2  O   UNL     1     -17.797  -8.260  19.034  0.00  0.00    -0.391 OA
ATOM     36  H   UNL     1     -17.874  -8.879  19.780  0.00  0.00    +0.210 HD
ENDBRANCH  14   2
BRANCH  11  19
ATOM     19  C   UNL     1     -16.237 -10.566  19.583  0.00  0.00    +0.165 C 
BRANCH  19   3
ATOM      3  O   UNL     1     -17.084 -10.602  20.709  0.00  0.00    -0.394 OA
ATOM     37  H   UNL     1     -17.150 -11.529  20.993  0.00  0.00    +0.209 HD
ENDBRANCH  19   3
ENDBRANCH  11  19
BRANCH  12  22
ATOM     22  C   UNL     1     -11.958  -9.022  15.644  0.00  0.00    +0.106 C 
BRANCH  22  23
ATOM      4  O   UNL     1     -10.578  -7.067  15.361  0.00  0.00    -0.275 OA
ATOM      8  N   UNL     1     -12.431  -7.407  13.957  0.00  0.00    -0.285 N 
ATOM     23  C   UNL     1     -11.551  -7.716  14.991  0.00  0.00    +0.218 C 
ATOM     39  H   UNL     1     -13.199  -8.050  13.779  0.00  0.00    +0.155 HD
BRANCH   8  30
ATOM     30  C   UNL     1     -12.399  -6.277  13.106  0.00  0.00    +0.033 A 
ATOM     31  C   UNL     1     -12.333  -6.448  11.723  0.00  0.00    +0.023 A 
ATOM     32  C   UNL     1     -12.430  -4.993  13.650  0.00  0.00    +0.023 A 
ATOM     33  C   UNL     1     -12.301  -5.334  10.883  0.00  0.00    +0.002 A 
ATOM     34  C   UNL     1     -12.398  -3.880  12.810  0.00  0.00    +0.002 A 
ATOM     35  C   UNL     1     -12.332  -4.050  11.427  0.00  0.00    +0.000 A 
ENDBRANCH   8  30
ENDBRANCH  22  23
ENDBRANCH  12  22
TORSDOF 7
ENDMDL
MODEL 9
REMARK VINA RESULT:      -6.6     25.008     29.315
REMARK  Name = 40586252
REMARK  9 active torsions:
REMARK  status: ('A' for Active; 'I' for Inactive)
REMARK    1  A    between atoms: O_2  and  C_14
REMARK    2  A    between atoms: O_3  and  C_19
REMARK    3  A    between atoms: N_8  and  C_30
REMARK    4  A    between atoms: C_9  and  C_17
REMARK    5  A    between atoms: C_11  and  C_19
REMARK    6  A    between atoms: C_11  and  C_20
REMARK    7  A    between atoms: C_12  and  C_22
REMARK    8  A    between atoms: C_22  and  C_23
REMARK    9  A    between atoms: C_25  and  C_26
REMARK                            x       y       z     vdW  Elec       q    Type
REMARK                         _______ _______ _______ _____ _____    ______ ____
ROOT
ATOM      1  S   UNL     1      -9.976  -9.694  12.961  0.00  0.00    -0.057 S 
ATOM      5  O   UNL     1      -5.381  -9.570  12.130  0.00  0.00    -0.275 OA
ATOM      6  N   UNL     1      -7.648  -9.857  14.077  0.00  0.00    -0.229 NA
ATOM      7  N   UNL     1      -7.688  -9.505  11.694  0.00  0.00    -0.264 N 
ATOM      9  C   UNL     1      -9.434  -9.957  17.493  0.00  0.00    -0.019 C 
ATOM     10  C   UNL     1     -10.715 -10.686  16.890  0.00  0.00    +0.011 C 
ATOM     11  C   UNL     1     -11.937 -10.909  17.863  0.00  0.00    +0.021 C 
ATOM     12  C   UNL     1      -8.203 -10.227  16.510  0.00  0.00    +0.054 C 
ATOM     13  C   UNL     1      -9.097 -10.570  18.877  0.00  0.00    +0.010 C 
ATOM     14  C   UNL     1     -11.418 -11.480  19.213  0.00  0.00    +0.123 C 
ATOM     15  C   UNL     1     -11.114 -10.084  15.511  0.00  0.00    +0.049 C 
ATOM     16  C   UNL     1     -10.288 -10.656  19.821  0.00  0.00    +0.032 C 
ATOM     17  C   UNL     1      -9.634  -8.431  17.661  0.00  0.00    +0.012 C 
ATOM     18  C   UNL     1      -8.596  -9.995  15.074  0.00  0.00    +0.058 A 
ATOM     20  C   UNL     1     -12.888 -11.973  17.245  0.00  0.00    +0.016 C 
ATOM     21  C   UNL     1      -9.907  -9.952  14.644  0.00  0.00    +0.015 A 
ATOM     24  C   UNL     1      -8.258  -9.686  12.925  0.00  0.00    +0.165 A 
ATOM     26  C   UNL     1      -6.317  -9.452  11.335  0.00  0.00    +0.222 C 
ATOM     38  H   UNL     1      -8.360  -9.392  10.937  0.00  0.00    +0.157 HD
ENDROOT
BRANCH  26  25
ATOM     25  C   UNL     1      -6.072  -9.222   9.830  0.00  0.00    +0.075 C 
ATOM     27  C   UNL     1      -4.631  -8.891   9.390  0.00  0.00    +0.013 C 
ATOM     28  C   UNL     1      -5.980 -10.469   8.927  0.00  0.00    +0.013 C 
ATOM     29  C   UNL     1      -4.918  -9.704   8.111  0.00  0.00    +0.001 C 
ENDBRANCH  26  25
BRANCH  14   2
ATOM      2  O   UNL     1     -12.481 -11.572  20.161  0.00  0.00    -0.391 OA
ATOM     36  H   UNL     1     -12.693 -10.669  20.453  0.00  0.00    +0.210 HD
ENDBRANCH  14   2
BRANCH  11  19
ATOM     19  C   UNL     1     -12.809  -9.656  18.094  0.00  0.00    +0.165 C 
BRANCH  19   3
ATOM      3  O   UNL     1     -14.143 -10.082  18.258  0.00  0.00    -0.394 OA
ATOM     37  H   UNL     1     -14.118 -11.017  18.523  0.00  0.00    +0.209 HD
ENDBRANCH  19   3
ENDBRANCH  11  19
BRANCH  12  22
ATOM     22  C   UNL     1      -6.920  -9.468  16.871  0.00  0.00    +0.106 C 
BRANCH  22  23
ATOM      4  O   UNL     1      -5.491 -11.204  17.738  0.00  0.00    -0.275 OA
ATOM      8  N   UNL     1      -4.913 -10.092  15.751  0.00  0.00    -0.285 N 
ATOM     23  C   UNL     1      -5.701 -10.369  16.863  0.00  0.00    +0.218 C 
ATOM     39  H   UNL     1      -5.224  -9.358  15.118  0.00  0.00    +0.155 HD
BRANCH   8  30
ATOM     30  C   UNL     1      -3.695 -10.711  15.381  0.00  0.00    +0.033 A 
ATOM     31  C   UNL     1      -2.499 -10.305  15.973  0.00  0.00    +0.023 A 
ATOM     32  C   UNL     1      -3.690 -11.725  14.423  0.00  0.00    +0.023 A 
ATOM     33  C   UNL     1      -1.298 -10.914  15.609  0.00  0.00    +0.002 A 
ATOM     34  C   UNL     1      -2.489 -12.334  14.059  0.00  0.00    +0.002 A 
ATOM     35  C   UNL     1      -1.293 -11.928  14.651  0.00  0.00    +0.000 A 
ENDBRANCH   8  30
ENDBRANCH  22  23
ENDBRANCH  12  22
TORSDOF 7
ENDMDL
MODEL 10
REMARK VINA RESULT:      -6.5     14.924     17.060
REMARK  Name = 40586252
REMARK  9 active torsions:
REMARK  status: ('A' for Active; 'I' for Inactive)
REMARK    1  A    between atoms: O_2  and  C_14
REMARK    2  A    between atoms: O_3  and  C_19
REMARK    3  A    between atoms: N_8  and  C_30
REMARK    4  A    between atoms: C_9  and  C_17
REMARK    5  A    between atoms: C_11  and  C_19
REMARK    6  A    between atoms: C_11  and  C_20
REMARK    7  A    between atoms: C_12  and  C_22
REMARK    8  A    between atoms: C_22  and  C_23
REMARK    9  A    between atoms: C_25  and  C_26
REMARK                            x       y       z     vdW  Elec       q    Type
REMARK                         _______ _______ _______ _____ _____    ______ ____
ROOT
ATOM      1  S   UNL     1      19.019  -4.393  -1.881  0.00  0.00    -0.057 S 
ATOM      5  O   UNL     1      16.008  -7.432  -3.757  0.00  0.00    -0.275 OA
ATOM      6  N   UNL     1      18.309  -6.881  -1.910  0.00  0.00    -0.229 NA
ATOM      7  N   UNL     1      17.069  -5.379  -3.330  0.00  0.00    -0.264 N 
ATOM      9  C   UNL     1      21.344  -7.640   0.344  0.00  0.00    -0.019 C 
ATOM     10  C   UNL     1      21.285  -6.209   1.040  0.00  0.00    +0.011 C 
ATOM     11  C   UNL     1      22.440  -5.858   2.055  0.00  0.00    +0.021 C 
ATOM     12  C   UNL     1      19.903  -7.950  -0.273  0.00  0.00    +0.054 C 
ATOM     13  C   UNL     1      21.660  -8.719   1.412  0.00  0.00    +0.010 C 
ATOM     14  C   UNL     1      22.657  -7.060   3.018  0.00  0.00    +0.123 C 
ATOM     15  C   UNL     1      21.000  -5.084   0.002  0.00  0.00    +0.049 C 
ATOM     16  C   UNL     1      22.857  -8.385   2.291  0.00  0.00    +0.032 C 
ATOM     17  C   UNL     1      22.411  -7.721  -0.776  0.00  0.00    +0.012 C 
ATOM     18  C   UNL     1      19.373  -6.763  -1.035  0.00  0.00    +0.058 A 
ATOM     20  C   UNL     1      22.000  -4.644   2.923  0.00  0.00    +0.016 C 
ATOM     21  C   UNL     1      19.868  -5.483  -0.884  0.00  0.00    +0.015 A 
ATOM     24  C   UNL     1      18.041  -5.698  -2.420  0.00  0.00    +0.165 A 
ATOM     26  C   UNL     1      16.111  -6.218  -3.955  0.00  0.00    +0.222 C 
ATOM     38  H   UNL     1      17.045  -4.394  -3.584  0.00  0.00    +0.157 HD
ENDROOT
BRANCH  26  25
ATOM     25  C   UNL     1      15.181  -5.481  -4.939  0.00  0.00    +0.075 C 
ATOM     27  C   UNL     1      14.816  -6.208  -6.250  0.00  0.00    +0.013 C 
ATOM     28  C   UNL     1      13.672  -5.467  -4.616  0.00  0.00    +0.013 C 
ATOM     29  C   UNL     1      13.425  -5.550  -6.137  0.00  0.00    +0.001 C 
ENDBRANCH  26  25
BRANCH  14   2
ATOM      2  O   UNL     1      23.781  -6.827   3.866  0.00  0.00    -0.391 OA
ATOM     36  H   UNL     1      23.455  -6.408   4.680  0.00  0.00    +0.210 HD
ENDBRANCH  14   2
BRANCH  11  19
ATOM     19  C   UNL     1      23.769  -5.436   1.393  0.00  0.00    +0.165 C 
BRANCH  19   3
ATOM      3  O   UNL     1      24.297  -4.357   2.132  0.00  0.00    -0.394 OA
ATOM     37  H   UNL     1      24.171  -4.562   3.074  0.00  0.00    +0.209 HD
ENDBRANCH  19   3
ENDBRANCH  11  19
BRANCH  12  22
ATOM     22  C   UNL     1      19.830  -9.233  -1.110  0.00  0.00    +0.106 C 
BRANCH  22  23
ATOM      4  O   UNL     1      17.698 -10.137  -1.779  0.00  0.00    -0.275 OA
ATOM      8  N   UNL     1      18.466 -10.447   0.420  0.00  0.00    -0.285 N 
ATOM     23  C   UNL     1      18.533  -9.986  -0.891  0.00  0.00    +0.218 C 
ATOM     39  H   UNL     1      19.243 -10.230   1.040  0.00  0.00    +0.155 HD
BRANCH   8  30
ATOM     30  C   UNL     1      17.422 -11.189   1.021  0.00  0.00    +0.033 A 
ATOM     31  C   UNL     1      16.952 -10.834   2.285  0.00  0.00    +0.023 A 
ATOM     32  C   UNL     1      16.864 -12.278   0.350  0.00  0.00    +0.023 A 
ATOM     33  C   UNL     1      15.923 -11.566   2.879  0.00  0.00    +0.002 A 
ATOM     34  C   UNL     1      15.836 -13.010   0.944  0.00  0.00    +0.002 A 
ATOM     35  C   UNL     1      15.366 -12.654   2.208  0.00  0.00    +0.000 A 
ENDBRANCH   8  30
ENDBRANCH  22  23
ENDBRANCH  12  22
TORSDOF 7
ENDMDL
