MODEL 1
REMARK VINA RESULT:      -7.1      0.000      0.000
REMARK  Name = 40780647
REMARK  9 active torsions:
REMARK  status: ('A' for Active; 'I' for Inactive)
REMARK    1  A    between atoms: N_3  and  C_9
REMARK    2  A    between atoms: N_4  and  C_18
REMARK    3  A    between atoms: N_6  and  C_26
REMARK    4  A    between atoms: N_6  and  C_30
REMARK    5  A    between atoms: N_6  and  C_31
REMARK    6  A    between atoms: C_7  and  C_10
REMARK    7  A    between atoms: C_13  and  C_15
REMARK    8  A    between atoms: C_14  and  C_16
REMARK    9  A    between atoms: C_17  and  C_19
REMARK                            x       y       z     vdW  Elec       q    Type
REMARK                         _______ _______ _______ _____ _____    ______ ____
ROOT
ATOM      7  C   UNL     1     -14.978   5.774  22.671  0.00  0.00    +0.047 C 
ATOM      8  C   UNL     1     -15.675   6.397  23.897  0.00  0.00    +0.039 C 
ATOM      9  C   UNL     1     -16.745   5.386  24.340  0.00  0.00    +0.097 C 
ATOM     11  C   UNL     1     -16.009   4.800  22.181  0.00  0.00    -0.021 C 
ATOM     12  C   UNL     1     -16.963   4.586  23.094  0.00  0.00    -0.009 C 
ENDROOT
BRANCH   7  10
ATOM      4  N   UNL     1     -13.401   7.983  20.212  0.00  0.00    -0.236 N 
ATOM      5  N   UNL     1     -14.611   8.566  20.205  0.00  0.00    -0.171 NA
ATOM     10  C   UNL     1     -14.540   6.796  21.649  0.00  0.00    +0.003 A 
ATOM     13  C   UNL     1     -13.305   6.918  21.060  0.00  0.00    +0.046 A 
ATOM     14  C   UNL     1     -15.304   7.836  21.085  0.00  0.00    +0.064 A 
ATOM     15  C   UNL     1     -12.071   6.126  21.230  0.00  0.00    +0.066 C 
ATOM     16  C   UNL     1     -16.711   8.174  21.358  0.00  0.00    +0.068 C 
BRANCH   4  18
ATOM      1  F   UNL     1      -9.387   9.971  16.977  0.00  0.00    -0.205 F 
ATOM     18  C   UNL     1     -12.387   8.485  19.395  0.00  0.00    +0.066 A 
ATOM     20  C   UNL     1     -12.229   7.995  18.098  0.00  0.00    +0.030 A 
ATOM     21  C   UNL     1     -11.532   9.477  19.875  0.00  0.00    +0.030 A 
ATOM     24  C   UNL     1     -11.215   8.497  17.282  0.00  0.00    +0.040 A 
ATOM     25  C   UNL     1     -10.519   9.980  19.058  0.00  0.00    +0.040 A 
ATOM     29  C   UNL     1     -10.360   9.489  17.762  0.00  0.00    +0.124 A 
ENDBRANCH   4  18
ENDBRANCH   7  10
BRANCH   9   3
ATOM      2  O   UNL     1     -18.314   4.403  26.553  0.00  0.00    -0.270 OA
ATOM      3  N   UNL     1     -16.284   4.547  25.439  0.00  0.00    -0.305 N 
ATOM     17  C   UNL     1     -17.121   4.122  26.466  0.00  0.00    +0.245 C 
ATOM     32  H   UNL     1     -15.289   4.350  25.479  0.00  0.00    +0.150 HD
BRANCH  17  19
ATOM     19  C   UNL     1     -16.491   3.294  27.526  0.00  0.00    +0.037 A 
ATOM     22  C   UNL     1     -16.538   1.902  27.444  0.00  0.00    +0.015 A 
ATOM     23  C   UNL     1     -15.852   3.908  28.604  0.00  0.00    +0.015 A 
ATOM     26  C   UNL     1     -15.309   1.738  29.517  0.00  0.00    +0.029 A 
ATOM     27  C   UNL     1     -15.947   1.124  28.439  0.00  0.00    +0.024 A 
ATOM     28  C   UNL     1     -15.261   3.130  29.599  0.00  0.00    +0.024 A 
BRANCH  26   6
ATOM      6  N   UNL     1     -14.712   0.952  30.525  0.00  0.00    -0.336 N 
ATOM     30  C   UNL     1     -14.774   1.365  31.912  0.00  0.00    +0.129 C 
ATOM     31  C   UNL     1     -14.035  -0.284  30.186  0.00  0.00    +0.129 C 
ENDBRANCH  26   6
ENDBRANCH  17  19
ENDBRANCH   9   3
TORSDOF 5
ENDMDL
MODEL 2
REMARK VINA RESULT:      -6.6     22.810     25.934
REMARK  Name = 40780647
REMARK  9 active torsions:
REMARK  status: ('A' for Active; 'I' for Inactive)
REMARK    1  A    between atoms: N_3  and  C_9
REMARK    2  A    between atoms: N_4  and  C_18
REMARK    3  A    between atoms: N_6  and  C_26
REMARK    4  A    between atoms: N_6  and  C_30
REMARK    5  A    between atoms: N_6  and  C_31
REMARK    6  A    between atoms: C_7  and  C_10
REMARK    7  A    between atoms: C_13  and  C_15
REMARK    8  A    between atoms: C_14  and  C_16
REMARK    9  A    between atoms: C_17  and  C_19
REMARK                            x       y       z     vdW  Elec       q    Type
REMARK                         _______ _______ _______ _____ _____    ______ ____
ROOT
ATOM      7  C   UNL     1      -3.529 -11.573  11.443  0.00  0.00    +0.047 C 
ATOM      8  C   UNL     1      -4.883 -11.218  10.797  0.00  0.00    +0.039 C 
ATOM      9  C   UNL     1      -4.594 -10.091   9.791  0.00  0.00    +0.097 C 
ATOM     11  C   UNL     1      -2.730 -10.324  11.211  0.00  0.00    -0.021 C 
ATOM     12  C   UNL     1      -3.308  -9.526  10.307  0.00  0.00    -0.009 C 
ENDROOT
BRANCH   7  10
ATOM      4  N   UNL     1      -4.198 -12.132  15.001  0.00  0.00    -0.236 N 
ATOM      5  N   UNL     1      -3.323 -13.138  14.837  0.00  0.00    -0.171 NA
ATOM     10  C   UNL     1      -3.649 -11.985  12.892  0.00  0.00    +0.003 A 
ATOM     13  C   UNL     1      -4.428 -11.410  13.866  0.00  0.00    +0.046 A 
ATOM     14  C   UNL     1      -2.992 -13.044  13.546  0.00  0.00    +0.064 A 
ATOM     15  C   UNL     1      -5.353 -10.260  13.811  0.00  0.00    +0.066 C 
ATOM     16  C   UNL     1      -2.029 -14.002  12.973  0.00  0.00    +0.068 C 
BRANCH   4  18
ATOM      1  F   UNL     1      -6.475 -11.263  19.959  0.00  0.00    -0.205 F 
ATOM     18  C   UNL     1      -4.773 -11.912  16.253  0.00  0.00    +0.066 A 
ATOM     20  C   UNL     1      -5.867 -12.677  16.662  0.00  0.00    +0.030 A 
ATOM     21  C   UNL     1      -4.255 -10.929  17.096  0.00  0.00    +0.030 A 
ATOM     24  C   UNL     1      -6.441 -12.457  17.914  0.00  0.00    +0.040 A 
ATOM     25  C   UNL     1      -4.829 -10.710  18.348  0.00  0.00    +0.040 A 
ATOM     29  C   UNL     1      -5.923 -11.474  18.757  0.00  0.00    +0.124 A 
ENDBRANCH   4  18
ENDBRANCH   7  10
BRANCH   9   3
ATOM      2  O   UNL     1      -6.694 -10.502   7.856  0.00  0.00    -0.270 OA
ATOM      3  N   UNL     1      -4.449 -10.595   8.431  0.00  0.00    -0.305 N 
ATOM     17  C   UNL     1      -5.528 -10.760   7.569  0.00  0.00    +0.245 C 
ATOM     32  H   UNL     1      -3.525 -10.912   8.156  0.00  0.00    +0.150 HD
BRANCH  17  19
ATOM     19  C   UNL     1      -5.216 -11.309   6.225  0.00  0.00    +0.037 A 
ATOM     22  C   UNL     1      -4.017 -11.990   6.011  0.00  0.00    +0.015 A 
ATOM     23  C   UNL     1      -6.121 -11.144   5.176  0.00  0.00    +0.015 A 
ATOM     26  C   UNL     1      -4.629 -12.340   3.700  0.00  0.00    +0.029 A 
ATOM     27  C   UNL     1      -3.724 -12.506   4.748  0.00  0.00    +0.024 A 
ATOM     28  C   UNL     1      -5.828 -11.660   3.913  0.00  0.00    +0.024 A 
BRANCH  26   6
ATOM      6  N   UNL     1      -4.332 -12.860   2.423  0.00  0.00    -0.336 N 
ATOM     30  C   UNL     1      -2.956 -13.036   2.002  0.00  0.00    +0.129 C 
ATOM     31  C   UNL     1      -5.400 -13.234   1.517  0.00  0.00    +0.129 C 
ENDBRANCH  26   6
ENDBRANCH  17  19
ENDBRANCH   9   3
TORSDOF 5
ENDMDL
MODEL 3
REMARK VINA RESULT:      -6.6     21.601     24.791
REMARK  Name = 40780647
REMARK  9 active torsions:
REMARK  status: ('A' for Active; 'I' for Inactive)
REMARK    1  A    between atoms: N_3  and  C_9
REMARK    2  A    between atoms: N_4  and  C_18
REMARK    3  A    between atoms: N_6  and  C_26
REMARK    4  A    between atoms: N_6  and  C_30
REMARK    5  A    between atoms: N_6  and  C_31
REMARK    6  A    between atoms: C_7  and  C_10
REMARK    7  A    between atoms: C_13  and  C_15
REMARK    8  A    between atoms: C_14  and  C_16
REMARK    9  A    between atoms: C_17  and  C_19
REMARK                            x       y       z     vdW  Elec       q    Type
REMARK                         _______ _______ _______ _____ _____    ______ ____
ROOT
ATOM      7  C   UNL     1      -3.699 -10.703  12.166  0.00  0.00    +0.047 C 
ATOM      8  C   UNL     1      -4.566  -9.608  11.514  0.00  0.00    +0.039 C 
ATOM      9  C   UNL     1      -3.733  -9.038  10.353  0.00  0.00    +0.097 C 
ATOM     11  C   UNL     1      -2.315 -10.308  11.739  0.00  0.00    -0.021 C 
ATOM     12  C   UNL     1      -2.339  -9.409  10.749  0.00  0.00    -0.009 C 
ENDROOT
BRANCH   7  10
ATOM      4  N   UNL     1      -4.721 -11.091  15.662  0.00  0.00    -0.236 N 
ATOM      5  N   UNL     1      -3.436 -10.778  15.899  0.00  0.00    -0.171 NA
ATOM     10  C   UNL     1      -3.893 -10.807  13.661  0.00  0.00    +0.003 A 
ATOM     13  C   UNL     1      -5.046 -11.122  14.337  0.00  0.00    +0.046 A 
ATOM     14  C   UNL     1      -2.934 -10.607  14.672  0.00  0.00    +0.064 A 
ATOM     15  C   UNL     1      -6.399 -11.444  13.842  0.00  0.00    +0.066 C 
ATOM     16  C   UNL     1      -1.514 -10.247  14.514  0.00  0.00    +0.068 C 
BRANCH   4  18
ATOM      1  F   UNL     1      -8.120 -12.102  19.898  0.00  0.00    -0.205 F 
ATOM     18  C   UNL     1      -5.580 -11.346  16.732  0.00  0.00    +0.066 A 
ATOM     20  C   UNL     1      -5.802 -12.659  17.150  0.00  0.00    +0.030 A 
ATOM     21  C   UNL     1      -6.216 -10.290  17.383  0.00  0.00    +0.030 A 
ATOM     24  C   UNL     1      -6.660 -12.913  18.220  0.00  0.00    +0.040 A 
ATOM     25  C   UNL     1      -7.073 -10.544  18.453  0.00  0.00    +0.040 A 
ATOM     29  C   UNL     1      -7.296 -11.856  18.871  0.00  0.00    +0.124 A 
ENDBRANCH   4  18
ENDBRANCH   7  10
BRANCH   9   3
ATOM      2  O   UNL     1      -6.134  -8.541   8.832  0.00  0.00    -0.270 OA
ATOM      3  N   UNL     1      -4.101  -9.632   9.073  0.00  0.00    -0.305 N 
ATOM     17  C   UNL     1      -5.288  -9.327   8.415  0.00  0.00    +0.245 C 
ATOM     32  H   UNL     1      -3.490 -10.357   8.712  0.00  0.00    +0.150 HD
BRANCH  17  19
ATOM     19  C   UNL     1      -5.527 -10.037   7.132  0.00  0.00    +0.037 A 
ATOM     22  C   UNL     1      -6.501  -9.571   6.248  0.00  0.00    +0.015 A 
ATOM     23  C   UNL     1      -4.778 -11.170   6.811  0.00  0.00    +0.015 A 
ATOM     26  C   UNL     1      -5.977 -11.371   4.724  0.00  0.00    +0.029 A 
ATOM     27  C   UNL     1      -6.726 -10.238   5.044  0.00  0.00    +0.024 A 
ATOM     28  C   UNL     1      -5.004 -11.837   5.607  0.00  0.00    +0.024 A 
BRANCH  26   6
ATOM      6  N   UNL     1      -6.205 -12.047   3.507  0.00  0.00    -0.336 N 
ATOM     30  C   UNL     1      -7.493 -11.959   2.848  0.00  0.00    +0.129 C 
ATOM     31  C   UNL     1      -5.150 -12.830   2.894  0.00  0.00    +0.129 C 
ENDBRANCH  26   6
ENDBRANCH  17  19
ENDBRANCH   9   3
TORSDOF 5
ENDMDL
MODEL 4
REMARK VINA RESULT:      -6.6     23.252     26.424
REMARK  Name = 40780647
REMARK  9 active torsions:
REMARK  status: ('A' for Active; 'I' for Inactive)
REMARK    1  A    between atoms: N_3  and  C_9
REMARK    2  A    between atoms: N_4  and  C_18
REMARK    3  A    between atoms: N_6  and  C_26
REMARK    4  A    between atoms: N_6  and  C_30
REMARK    5  A    between atoms: N_6  and  C_31
REMARK    6  A    between atoms: C_7  and  C_10
REMARK    7  A    between atoms: C_13  and  C_15
REMARK    8  A    between atoms: C_14  and  C_16
REMARK    9  A    between atoms: C_17  and  C_19
REMARK                            x       y       z     vdW  Elec       q    Type
REMARK                         _______ _______ _______ _____ _____    ______ ____
ROOT
ATOM      7  C   UNL     1      -3.655 -10.437  10.180  0.00  0.00    +0.047 C 
ATOM      8  C   UNL     1      -4.734 -11.406   9.657  0.00  0.00    +0.039 C 
ATOM      9  C   UNL     1      -5.388 -10.708   8.453  0.00  0.00    +0.097 C 
ATOM     11  C   UNL     1      -4.131  -9.117   9.650  0.00  0.00    -0.021 C 
ATOM     12  C   UNL     1      -5.067  -9.269   8.707  0.00  0.00    -0.009 C 
ENDROOT
BRANCH   7  10
ATOM      4  N   UNL     1      -3.793 -10.728  13.829  0.00  0.00    -0.236 N 
ATOM      5  N   UNL     1      -2.506 -10.352  13.742  0.00  0.00    -0.171 NA
ATOM     10  C   UNL     1      -3.482 -10.489  11.680  0.00  0.00    +0.003 A 
ATOM     13  C   UNL     1      -4.423 -10.825  12.623  0.00  0.00    +0.046 A 
ATOM     14  C   UNL     1      -2.321 -10.209  12.426  0.00  0.00    +0.064 A 
ATOM     15  C   UNL     1      -5.838 -11.222  12.477  0.00  0.00    +0.066 C 
ATOM     16  C   UNL     1      -1.000  -9.796  11.921  0.00  0.00    +0.068 C 
BRANCH   4  18
ATOM      1  F   UNL     1      -6.033 -11.710  18.783  0.00  0.00    -0.205 F 
ATOM     18  C   UNL     1      -4.358 -10.976  15.081  0.00  0.00    +0.066 A 
ATOM     20  C   UNL     1      -5.083  -9.976  15.729  0.00  0.00    +0.030 A 
ATOM     21  C   UNL     1      -4.199 -12.224  15.683  0.00  0.00    +0.030 A 
ATOM     24  C   UNL     1      -5.648 -10.224  16.980  0.00  0.00    +0.040 A 
ATOM     25  C   UNL     1      -4.765 -12.472  16.933  0.00  0.00    +0.040 A 
ATOM     29  C   UNL     1      -5.489 -11.472  17.582  0.00  0.00    +0.124 A 
ENDBRANCH   4  18
ENDBRANCH   7  10
BRANCH   9   3
ATOM      2  O   UNL     1      -6.847 -11.445   6.076  0.00  0.00    -0.270 OA
ATOM      3  N   UNL     1      -4.830 -11.165   7.186  0.00  0.00    -0.305 N 
ATOM     17  C   UNL     1      -5.621 -11.499   6.092  0.00  0.00    +0.245 C 
ATOM     32  H   UNL     1      -3.828 -11.319   7.156  0.00  0.00    +0.150 HD
BRANCH  17  19
ATOM     19  C   UNL     1      -4.900 -11.972   4.882  0.00  0.00    +0.037 A 
ATOM     22  C   UNL     1      -3.511 -12.108   4.906  0.00  0.00    +0.015 A 
ATOM     23  C   UNL     1      -5.611 -12.281   3.722  0.00  0.00    +0.015 A 
ATOM     26  C   UNL     1      -3.545 -12.860   2.610  0.00  0.00    +0.029 A 
ATOM     27  C   UNL     1      -2.834 -12.552   3.770  0.00  0.00    +0.024 A 
ATOM     28  C   UNL     1      -4.933 -12.724   2.586  0.00  0.00    +0.024 A 
BRANCH  26   6
ATOM      6  N   UNL     1      -2.861 -13.308   1.461  0.00  0.00    -0.336 N 
ATOM     30  C   UNL     1      -3.380 -13.020   0.139  0.00  0.00    +0.129 C 
ATOM     31  C   UNL     1      -1.625 -14.055   1.588  0.00  0.00    +0.129 C 
ENDBRANCH  26   6
ENDBRANCH  17  19
ENDBRANCH   9   3
TORSDOF 5
ENDMDL
MODEL 5
REMARK VINA RESULT:      -6.6     19.542     22.780
REMARK  Name = 40780647
REMARK  9 active torsions:
REMARK  status: ('A' for Active; 'I' for Inactive)
REMARK    1  A    between atoms: N_3  and  C_9
REMARK    2  A    between atoms: N_4  and  C_18
REMARK    3  A    between atoms: N_6  and  C_26
REMARK    4  A    between atoms: N_6  and  C_30
REMARK    5  A    between atoms: N_6  and  C_31
REMARK    6  A    between atoms: C_7  and  C_10
REMARK    7  A    between atoms: C_13  and  C_15
REMARK    8  A    between atoms: C_14  and  C_16
REMARK    9  A    between atoms: C_17  and  C_19
REMARK                            x       y       z     vdW  Elec       q    Type
REMARK                         _______ _______ _______ _____ _____    ______ ____
ROOT
ATOM      7  C   UNL     1      -6.725 -11.526  16.467  0.00  0.00    +0.047 C 
ATOM      8  C   UNL     1      -6.109 -10.206  15.964  0.00  0.00    +0.039 C 
ATOM      9  C   UNL     1      -4.752 -10.576  15.342  0.00  0.00    +0.097 C 
ATOM     11  C   UNL     1      -5.517 -12.403  16.617  0.00  0.00    -0.021 C 
ATOM     12  C   UNL     1      -4.450 -11.886  15.998  0.00  0.00    -0.009 C 
ENDROOT
BRANCH   7  10
ATOM      4  N   UNL     1      -9.175 -11.206  19.171  0.00  0.00    -0.236 N 
ATOM      5  N   UNL     1      -8.075 -11.034  19.924  0.00  0.00    -0.171 NA
ATOM     10  C   UNL     1      -7.546 -11.361  17.725  0.00  0.00    +0.003 A 
ATOM     13  C   UNL     1      -8.913 -11.406  17.847  0.00  0.00    +0.046 A 
ATOM     14  C   UNL     1      -7.082 -11.131  19.035  0.00  0.00    +0.064 A 
ATOM     15  C   UNL     1      -9.967 -11.618  16.835  0.00  0.00    +0.066 C 
ATOM     16  C   UNL     1      -5.687 -10.995  19.489  0.00  0.00    +0.068 C 
BRANCH   4  18
ATOM      1  F   UNL     1     -14.166 -11.056  21.536  0.00  0.00    -0.205 F 
ATOM     18  C   UNL     1     -10.435 -11.168  19.769  0.00  0.00    +0.066 A 
ATOM     20  C   UNL     1     -11.124  -9.958  19.869  0.00  0.00    +0.030 A 
ATOM     21  C   UNL     1     -11.008 -12.339  20.266  0.00  0.00    +0.030 A 
ATOM     24  C   UNL     1     -12.384  -9.921  20.467  0.00  0.00    +0.040 A 
ATOM     25  C   UNL     1     -12.268 -12.301  20.862  0.00  0.00    +0.040 A 
ATOM     29  C   UNL     1     -12.956 -11.092  20.963  0.00  0.00    +0.124 A 
ENDBRANCH   4  18
ENDBRANCH   7  10
BRANCH   9   3
ATOM      2  O   UNL     1      -2.594 -10.297  13.449  0.00  0.00    -0.270 OA
ATOM      3  N   UNL     1      -4.833 -10.709  13.893  0.00  0.00    -0.305 N 
ATOM     17  C   UNL     1      -3.730 -10.555  13.060  0.00  0.00    +0.245 C 
ATOM     32  H   UNL     1      -5.758 -10.835  13.495  0.00  0.00    +0.150 HD
BRANCH  17  19
ATOM     19  C   UNL     1      -3.984 -10.697  11.603  0.00  0.00    +0.037 A 
ATOM     22  C   UNL     1      -3.912 -11.954  11.001  0.00  0.00    +0.015 A 
ATOM     23  C   UNL     1      -4.294  -9.573  10.836  0.00  0.00    +0.015 A 
ATOM     26  C   UNL     1      -4.458 -10.963   8.867  0.00  0.00    +0.029 A 
ATOM     27  C   UNL     1      -4.149 -12.087   9.633  0.00  0.00    +0.024 A 
ATOM     28  C   UNL     1      -4.531  -9.706   9.468  0.00  0.00    +0.024 A 
BRANCH  26   6
ATOM      6  N   UNL     1      -4.698 -11.096   7.483  0.00  0.00    -0.336 N 
ATOM     30  C   UNL     1      -4.082 -12.172   6.732  0.00  0.00    +0.129 C 
ATOM     31  C   UNL     1      -5.570 -10.164   6.796  0.00  0.00    +0.129 C 
ENDBRANCH  26   6
ENDBRANCH  17  19
ENDBRANCH   9   3
TORSDOF 5
ENDMDL
MODEL 6
REMARK VINA RESULT:      -6.5     31.089     34.379
REMARK  Name = 40780647
REMARK  9 active torsions:
REMARK  status: ('A' for Active; 'I' for Inactive)
REMARK    1  A    between atoms: N_3  and  C_9
REMARK    2  A    between atoms: N_4  and  C_18
REMARK    3  A    between atoms: N_6  and  C_26
REMARK    4  A    between atoms: N_6  and  C_30
REMARK    5  A    between atoms: N_6  and  C_31
REMARK    6  A    between atoms: C_7  and  C_10
REMARK    7  A    between atoms: C_13  and  C_15
REMARK    8  A    between atoms: C_14  and  C_16
REMARK    9  A    between atoms: C_17  and  C_19
REMARK                            x       y       z     vdW  Elec       q    Type
REMARK                         _______ _______ _______ _____ _____    ______ ____
ROOT
ATOM      7  C   UNL     1      19.163   7.325  21.635  0.00  0.00    +0.047 C 
ATOM      8  C   UNL     1      19.590   6.282  20.583  0.00  0.00    +0.039 C 
ATOM      9  C   UNL     1      21.126   6.228  20.633  0.00  0.00    +0.097 C 
ATOM     11  C   UNL     1      20.405   8.152  21.784  0.00  0.00    -0.021 C 
ATOM     12  C   UNL     1      21.470   7.549  21.245  0.00  0.00    -0.009 C 
ENDROOT
BRANCH   7  10
ATOM      4  N   UNL     1      15.899   8.698  20.694  0.00  0.00    -0.236 N 
ATOM      5  N   UNL     1      16.580   9.856  20.671  0.00  0.00    -0.171 NA
ATOM     10  C   UNL     1      17.930   8.103  21.239  0.00  0.00    +0.003 A 
ATOM     13  C   UNL     1      16.662   7.617  21.029  0.00  0.00    +0.046 A 
ATOM     14  C   UNL     1      17.819   9.487  21.006  0.00  0.00    +0.064 A 
ATOM     15  C   UNL     1      16.127   6.244  21.118  0.00  0.00    +0.066 C 
ATOM     16  C   UNL     1      18.881  10.505  21.091  0.00  0.00    +0.068 C 
BRANCH   4  18
ATOM      1  F   UNL     1      10.508   8.661  19.487  0.00  0.00    -0.205 F 
ATOM     18  C   UNL     1      14.538   8.688  20.389  0.00  0.00    +0.066 A 
ATOM     20  C   UNL     1      13.594   8.827  21.407  0.00  0.00    +0.030 A 
ATOM     21  C   UNL     1      14.120   8.539  19.067  0.00  0.00    +0.030 A 
ATOM     24  C   UNL     1      12.233   8.818  21.102  0.00  0.00    +0.040 A 
ATOM     25  C   UNL     1      12.759   8.531  18.762  0.00  0.00    +0.040 A 
ATOM     29  C   UNL     1      11.816   8.670  19.779  0.00  0.00    +0.124 A 
ENDBRANCH   4  18
ENDBRANCH   7  10
BRANCH   9   3
ATOM      2  O   UNL     1      23.425   4.563  20.118  0.00  0.00    -0.270 OA
ATOM      3  N   UNL     1      21.608   5.120  21.448  0.00  0.00    -0.305 N 
ATOM     17  C   UNL     1      22.732   4.372  21.114  0.00  0.00    +0.245 C 
ATOM     32  H   UNL     1      21.032   4.849  22.239  0.00  0.00    +0.150 HD
BRANCH  17  19
ATOM     19  C   UNL     1      23.077   3.259  22.035  0.00  0.00    +0.037 A 
ATOM     22  C   UNL     1      23.967   2.266  21.627  0.00  0.00    +0.015 A 
ATOM     23  C   UNL     1      22.510   3.207  23.309  0.00  0.00    +0.015 A 
ATOM     26  C   UNL     1      23.723   1.168  23.765  0.00  0.00    +0.029 A 
ATOM     27  C   UNL     1      24.290   1.220  22.492  0.00  0.00    +0.024 A 
ATOM     28  C   UNL     1      22.833   2.161  24.174  0.00  0.00    +0.024 A 
BRANCH  26   6
ATOM      6  N   UNL     1      24.049   0.110  24.640  0.00  0.00    -0.336 N 
ATOM     30  C   UNL     1      23.066  -0.396  25.578  0.00  0.00    +0.129 C 
ATOM     31  C   UNL     1      25.367  -0.490  24.606  0.00  0.00    +0.129 C 
ENDBRANCH  26   6
ENDBRANCH  17  19
ENDBRANCH   9   3
TORSDOF 5
ENDMDL
MODEL 7
REMARK VINA RESULT:      -6.5     21.096     24.430
REMARK  Name = 40780647
REMARK  9 active torsions:
REMARK  status: ('A' for Active; 'I' for Inactive)
REMARK    1  A    between atoms: N_3  and  C_9
REMARK    2  A    between atoms: N_4  and  C_18
REMARK    3  A    between atoms: N_6  and  C_26
REMARK    4  A    between atoms: N_6  and  C_30
REMARK    5  A    between atoms: N_6  and  C_31
REMARK    6  A    between atoms: C_7  and  C_10
REMARK    7  A    between atoms: C_13  and  C_15
REMARK    8  A    between atoms: C_14  and  C_16
REMARK    9  A    between atoms: C_17  and  C_19
REMARK                            x       y       z     vdW  Elec       q    Type
REMARK                         _______ _______ _______ _____ _____    ______ ____
ROOT
ATOM      7  C   UNL     1      -5.150 -10.445  10.922  0.00  0.00    +0.047 C 
ATOM      8  C   UNL     1      -4.539  -9.252  10.161  0.00  0.00    +0.039 C 
ATOM      9  C   UNL     1      -4.466  -9.678   8.685  0.00  0.00    +0.097 C 
ATOM     11  C   UNL     1      -4.860 -11.592  10.000  0.00  0.00    -0.021 C 
ATOM     12  C   UNL     1      -4.496 -11.171   8.784  0.00  0.00    -0.009 C 
ENDROOT
BRANCH   7  10
ATOM      4  N   UNL     1      -4.375 -10.912  14.472  0.00  0.00    -0.236 N 
ATOM      5  N   UNL     1      -3.113 -10.729  14.050  0.00  0.00    -0.171 NA
ATOM     10  C   UNL     1      -4.602 -10.605  12.321  0.00  0.00    +0.003 A 
ATOM     13  C   UNL     1      -5.305 -10.848  13.476  0.00  0.00    +0.046 A 
ATOM     14  C   UNL     1      -3.257 -10.543  12.734  0.00  0.00    +0.064 A 
ATOM     15  C   UNL     1      -6.754 -11.020  13.706  0.00  0.00    +0.066 C 
ATOM     16  C   UNL     1      -2.066 -10.305  11.901  0.00  0.00    +0.068 C 
BRANCH   4  18
ATOM      1  F   UNL     1      -5.367 -11.819  19.831  0.00  0.00    -0.205 F 
ATOM     18  C   UNL     1      -4.626 -11.141  15.825  0.00  0.00    +0.066 A 
ATOM     20  C   UNL     1      -4.558 -12.437  16.338  0.00  0.00    +0.030 A 
ATOM     21  C   UNL     1      -4.945 -10.075  16.666  0.00  0.00    +0.030 A 
ATOM     24  C   UNL     1      -4.808 -12.665  17.691  0.00  0.00    +0.040 A 
ATOM     25  C   UNL     1      -5.194 -10.303  18.019  0.00  0.00    +0.040 A 
ATOM     29  C   UNL     1      -5.127 -11.599  18.531  0.00  0.00    +0.124 A 
ENDBRANCH   4  18
ENDBRANCH   7  10
BRANCH   9   3
ATOM      2  O   UNL     1      -5.316 -10.552   6.071  0.00  0.00    -0.270 OA
ATOM      3  N   UNL     1      -5.594  -9.171   7.913  0.00  0.00    -0.305 N 
ATOM     17  C   UNL     1      -5.925  -9.660   6.654  0.00  0.00    +0.245 C 
ATOM     32  H   UNL     1      -6.088  -8.371   8.296  0.00  0.00    +0.150 HD
BRANCH  17  19
ATOM     19  C   UNL     1      -7.087  -9.018   5.987  0.00  0.00    +0.037 A 
ATOM     22  C   UNL     1      -7.816  -8.031   6.651  0.00  0.00    +0.015 A 
ATOM     23  C   UNL     1      -7.451  -9.404   4.696  0.00  0.00    +0.015 A 
ATOM     26  C   UNL     1      -9.271  -7.816   4.735  0.00  0.00    +0.029 A 
ATOM     27  C   UNL     1      -8.908  -7.430   6.025  0.00  0.00    +0.024 A 
ATOM     28  C   UNL     1      -8.543  -8.802   4.070  0.00  0.00    +0.024 A 
BRANCH  26   6
ATOM      6  N   UNL     1     -10.375  -7.208   4.101  0.00  0.00    -0.336 N 
ATOM     30  C   UNL     1     -10.194  -6.439   2.886  0.00  0.00    +0.129 C 
ATOM     31  C   UNL     1     -11.708  -7.353   4.653  0.00  0.00    +0.129 C 
ENDBRANCH  26   6
ENDBRANCH  17  19
ENDBRANCH   9   3
TORSDOF 5
ENDMDL
MODEL 8
REMARK VINA RESULT:      -6.5     28.088     32.375
REMARK  Name = 40780647
REMARK  9 active torsions:
REMARK  status: ('A' for Active; 'I' for Inactive)
REMARK    1  A    between atoms: N_3  and  C_9
REMARK    2  A    between atoms: N_4  and  C_18
REMARK    3  A    between atoms: N_6  and  C_26
REMARK    4  A    between atoms: N_6  and  C_30
REMARK    5  A    between atoms: N_6  and  C_31
REMARK    6  A    between atoms: C_7  and  C_10
REMARK    7  A    between atoms: C_13  and  C_15
REMARK    8  A    between atoms: C_14  and  C_16
REMARK    9  A    between atoms: C_17  and  C_19
REMARK                            x       y       z     vdW  Elec       q    Type
REMARK                         _______ _______ _______ _____ _____    ______ ____
ROOT
ATOM      7  C   UNL     1       9.663   8.960   5.050  0.00  0.00    +0.047 C 
ATOM      8  C   UNL     1      10.334   7.637   5.467  0.00  0.00    +0.039 C 
ATOM      9  C   UNL     1       9.472   6.512   4.869  0.00  0.00    +0.097 C 
ATOM     11  C   UNL     1       8.255   8.526   4.767  0.00  0.00    -0.021 C 
ATOM     12  C   UNL     1       8.157   7.197   4.662  0.00  0.00    -0.009 C 
ENDROOT
BRANCH   7  10
ATOM      4  N   UNL     1       9.843  11.183   7.956  0.00  0.00    -0.236 N 
ATOM      5  N   UNL     1      10.148  12.103   7.025  0.00  0.00    -0.171 NA
ATOM     10  C   UNL     1       9.792  10.049   6.090  0.00  0.00    +0.003 A 
ATOM     13  C   UNL     1       9.620   9.936   7.448  0.00  0.00    +0.046 A 
ATOM     14  C   UNL     1      10.116  11.404   5.887  0.00  0.00    +0.064 A 
ATOM     15  C   UNL     1       9.272   8.770   8.285  0.00  0.00    +0.066 C 
ATOM     16  C   UNL     1      10.406  12.082   4.611  0.00  0.00    +0.068 C 
BRANCH   4  18
ATOM      1  F   UNL     1       9.590  12.646  13.278  0.00  0.00    -0.205 F 
ATOM     18  C   UNL     1       9.779  11.553   9.300  0.00  0.00    +0.066 A 
ATOM     20  C   UNL     1       8.555  11.906   9.869  0.00  0.00    +0.030 A 
ATOM     21  C   UNL     1      10.939  11.570  10.074  0.00  0.00    +0.030 A 
ATOM     24  C   UNL     1       8.492  12.275  11.213  0.00  0.00    +0.040 A 
ATOM     25  C   UNL     1      10.875  11.938  11.418  0.00  0.00    +0.040 A 
ATOM     29  C   UNL     1       9.652  12.292  11.987  0.00  0.00    +0.124 A 
ENDBRANCH   4  18
ENDBRANCH   7  10
BRANCH   9   3
ATOM      2  O   UNL     1      10.591   3.899   4.378  0.00  0.00    -0.270 OA
ATOM      3  N   UNL     1      10.018   6.013   3.614  0.00  0.00    -0.305 N 
ATOM     17  C   UNL     1      10.538   4.730   3.476  0.00  0.00    +0.245 C 
ATOM     32  H   UNL     1      10.088   6.676   2.849  0.00  0.00    +0.150 HD
BRANCH  17  19
ATOM     19  C   UNL     1      11.081   4.383   2.137  0.00  0.00    +0.037 A 
ATOM     22  C   UNL     1      10.353   4.692   0.988  0.00  0.00    +0.015 A 
ATOM     23  C   UNL     1      12.319   3.748   2.029  0.00  0.00    +0.015 A 
ATOM     26  C   UNL     1      12.099   3.730  -0.377  0.00  0.00    +0.029 A 
ATOM     27  C   UNL     1      10.862   4.366  -0.269  0.00  0.00    +0.024 A 
ATOM     28  C   UNL     1      12.828   3.421   0.772  0.00  0.00    +0.024 A 
BRANCH  26   6
ATOM      6  N   UNL     1      12.614   3.399  -1.647  0.00  0.00    -0.336 N 
ATOM     30  C   UNL     1      11.974   2.381  -2.457  0.00  0.00    +0.129 C 
ATOM     31  C   UNL     1      13.786   4.078  -2.164  0.00  0.00    +0.129 C 
ENDBRANCH  26   6
ENDBRANCH  17  19
ENDBRANCH   9   3
TORSDOF 5
ENDMDL
MODEL 9
REMARK VINA RESULT:      -6.4     29.084     35.692
REMARK  Name = 40780647
REMARK  9 active torsions:
REMARK  status: ('A' for Active; 'I' for Inactive)
REMARK    1  A    between atoms: N_3  and  C_9
REMARK    2  A    between atoms: N_4  and  C_18
REMARK    3  A    between atoms: N_6  and  C_26
REMARK    4  A    between atoms: N_6  and  C_30
REMARK    5  A    between atoms: N_6  and  C_31
REMARK    6  A    between atoms: C_7  and  C_10
REMARK    7  A    between atoms: C_13  and  C_15
REMARK    8  A    between atoms: C_14  and  C_16
REMARK    9  A    between atoms: C_17  and  C_19
REMARK                            x       y       z     vdW  Elec       q    Type
REMARK                         _______ _______ _______ _____ _____    ______ ____
ROOT
ATOM      7  C   UNL     1      11.509   5.882   2.374  0.00  0.00    +0.047 C 
ATOM      8  C   UNL     1      11.810   4.429   1.958  0.00  0.00    +0.039 C 
ATOM      9  C   UNL     1      11.042   4.191   0.647  0.00  0.00    +0.097 C 
ATOM     11  C   UNL     1      10.227   6.161   1.647  0.00  0.00    -0.021 C 
ATOM     12  C   UNL     1       9.981   5.244   0.705  0.00  0.00    -0.009 C 
ENDROOT
BRANCH   7  10
ATOM      4  N   UNL     1      10.877   5.998   5.980  0.00  0.00    -0.236 N 
ATOM      5  N   UNL     1      11.962   6.791   5.977  0.00  0.00    -0.171 NA
ATOM     10  C   UNL     1      11.441   6.073   3.871  0.00  0.00    +0.003 A 
ATOM     13  C   UNL     1      10.523   5.542   4.744  0.00  0.00    +0.046 A 
ATOM     14  C   UNL     1      12.303   6.833   4.685  0.00  0.00    +0.064 A 
ATOM     15  C   UNL     1       9.366   4.656   4.508  0.00  0.00    +0.066 C 
ATOM     16  C   UNL     1      13.475   7.622   4.271  0.00  0.00    +0.068 C 
BRANCH   4  18
ATOM      1  F   UNL     1       8.308   4.886  10.743  0.00  0.00    -0.205 F 
ATOM     18  C   UNL     1      10.229   5.717   7.183  0.00  0.00    +0.066 A 
ATOM     20  C   UNL     1       9.563   6.733   7.870  0.00  0.00    +0.030 A 
ATOM     21  C   UNL     1      10.246   4.421   7.699  0.00  0.00    +0.030 A 
ATOM     24  C   UNL     1       8.915   6.451   9.073  0.00  0.00    +0.040 A 
ATOM     25  C   UNL     1       9.597   4.140   8.901  0.00  0.00    +0.040 A 
ATOM     29  C   UNL     1       8.932   5.155   9.588  0.00  0.00    +0.124 A 
ENDBRANCH   4  18
ENDBRANCH   7  10
BRANCH   9   3
ATOM      2  O   UNL     1      10.641   3.047  -1.971  0.00  0.00    -0.270 OA
ATOM      3  N   UNL     1      11.895   4.356  -0.524  0.00  0.00    -0.305 N 
ATOM     17  C   UNL     1      11.616   3.760  -1.749  0.00  0.00    +0.245 C 
ATOM     32  H   UNL     1      12.766   4.859  -0.389  0.00  0.00    +0.150 HD
BRANCH  17  19
ATOM     19  C   UNL     1      12.598   4.005  -2.836  0.00  0.00    +0.037 A 
ATOM     22  C   UNL     1      12.349   3.527  -4.123  0.00  0.00    +0.015 A 
ATOM     23  C   UNL     1      13.772   4.712  -2.570  0.00  0.00    +0.015 A 
ATOM     26  C   UNL     1      14.445   4.463  -4.877  0.00  0.00    +0.029 A 
ATOM     27  C   UNL     1      13.272   3.756  -5.143  0.00  0.00    +0.024 A 
ATOM     28  C   UNL     1      14.695   4.941  -3.591  0.00  0.00    +0.024 A 
BRANCH  26   6
ATOM      6  N   UNL     1      15.379   4.694  -5.908  0.00  0.00    -0.336 N 
ATOM     30  C   UNL     1      15.030   4.426  -7.289  0.00  0.00    +0.129 C 
ATOM     31  C   UNL     1      16.697   5.211  -5.601  0.00  0.00    +0.129 C 
ENDBRANCH  26   6
ENDBRANCH  17  19
ENDBRANCH   9   3
TORSDOF 5
ENDMDL
MODEL 10
REMARK VINA RESULT:      -6.4     21.458     23.168
REMARK  Name = 40780647
REMARK  9 active torsions:
REMARK  status: ('A' for Active; 'I' for Inactive)
REMARK    1  A    between atoms: N_3  and  C_9
REMARK    2  A    between atoms: N_4  and  C_18
REMARK    3  A    between atoms: N_6  and  C_26
REMARK    4  A    between atoms: N_6  and  C_30
REMARK    5  A    between atoms: N_6  and  C_31
REMARK    6  A    between atoms: C_7  and  C_10
REMARK    7  A    between atoms: C_13  and  C_15
REMARK    8  A    between atoms: C_14  and  C_16
REMARK    9  A    between atoms: C_17  and  C_19
REMARK                            x       y       z     vdW  Elec       q    Type
REMARK                         _______ _______ _______ _____ _____    ______ ____
ROOT
ATOM      7  C   UNL     1      -5.259  -9.812   9.290  0.00  0.00    +0.047 C 
ATOM      8  C   UNL     1      -4.570 -11.123   9.716  0.00  0.00    +0.039 C 
ATOM      9  C   UNL     1      -3.361 -10.713  10.573  0.00  0.00    +0.097 C 
ATOM     11  C   UNL     1      -4.150  -8.811   9.430  0.00  0.00    -0.021 C 
ATOM     12  C   UNL     1      -3.124  -9.302  10.134  0.00  0.00    -0.009 C 
ENDROOT
BRANCH   7  10
ATOM      4  N   UNL     1      -7.115  -9.563   6.142  0.00  0.00    -0.236 N 
ATOM      5  N   UNL     1      -6.260 -10.524   5.754  0.00  0.00    -0.171 NA
ATOM     10  C   UNL     1      -5.877  -9.882   7.914  0.00  0.00    +0.003 A 
ATOM     13  C   UNL     1      -6.928  -9.143   7.427  0.00  0.00    +0.046 A 
ATOM     14  C   UNL     1      -5.505 -10.714   6.841  0.00  0.00    +0.064 A 
ATOM     15  C   UNL     1      -7.750  -8.095   8.065  0.00  0.00    +0.066 C 
ATOM     16  C   UNL     1      -4.426 -11.717   6.806  0.00  0.00    +0.068 C 
BRANCH   4  18
ATOM      1  F   UNL     1     -10.929  -7.701   2.606  0.00  0.00    -0.205 F 
ATOM     18  C   UNL     1      -8.078  -9.092   5.249  0.00  0.00    +0.066 A 
ATOM     20  C   UNL     1      -7.766  -8.058   4.367  0.00  0.00    +0.030 A 
ATOM     21  C   UNL     1      -9.354  -9.656   5.239  0.00  0.00    +0.030 A 
ATOM     24  C   UNL     1      -8.729  -7.588   3.474  0.00  0.00    +0.040 A 
ATOM     25  C   UNL     1     -10.317  -9.187   4.345  0.00  0.00    +0.040 A 
ATOM     29  C   UNL     1     -10.005  -8.152   3.463  0.00  0.00    +0.124 A 
ENDBRANCH   4  18
ENDBRANCH   7  10
BRANCH   9   3
ATOM      2  O   UNL     1      -1.610 -11.671  12.656  0.00  0.00    -0.270 OA
ATOM      3  N   UNL     1      -3.651 -10.787  12.000  0.00  0.00    -0.305 N 
ATOM     17  C   UNL     1      -2.737 -11.267  12.931  0.00  0.00    +0.245 C 
ATOM     32  H   UNL     1      -4.596 -10.553  12.287  0.00  0.00    +0.150 HD
BRANCH  17  19
ATOM     19  C   UNL     1      -3.196 -11.302  14.343  0.00  0.00    +0.037 A 
ATOM     22  C   UNL     1      -4.398 -11.931  14.671  0.00  0.00    +0.015 A 
ATOM     23  C   UNL     1      -2.426 -10.705  15.342  0.00  0.00    +0.015 A 
ATOM     26  C   UNL     1      -4.059 -11.366  16.995  0.00  0.00    +0.029 A 
ATOM     27  C   UNL     1      -4.829 -11.963  15.997  0.00  0.00    +0.024 A 
ATOM     28  C   UNL     1      -2.858 -10.738  16.669  0.00  0.00    +0.024 A 
BRANCH  26   6
ATOM      6  N   UNL     1      -4.496 -11.398  18.336  0.00  0.00    -0.336 N 
ATOM     30  C   UNL     1      -5.665 -10.646  18.746  0.00  0.00    +0.129 C 
ATOM     31  C   UNL     1      -3.785 -12.190  19.320  0.00  0.00    +0.129 C 
ENDBRANCH  26   6
ENDBRANCH  17  19
ENDBRANCH   9   3
TORSDOF 5
ENDMDL
