MODEL 1
REMARK VINA RESULT:      -6.4      0.000      0.000
REMARK  Name = 7128122
REMARK  11 active torsions:
REMARK  status: ('A' for Active; 'I' for Inactive)
REMARK    1  A    between atoms: O_6  and  C_24
REMARK    2  A    between atoms: O_6  and  C_31
REMARK    3  A    between atoms: N_9  and  C_14
REMARK    4  A    between atoms: N_10  and  C_20
REMARK    5  A    between atoms: N_11  and  C_28
REMARK    6  A    between atoms: C_15  and  C_18
REMARK    7  A    between atoms: C_19  and  C_23
REMARK    8  A    between atoms: C_20  and  C_21
REMARK    9  A    between atoms: C_20  and  C_24
REMARK   10  A    between atoms: C_21  and  C_25
REMARK   11  A    between atoms: C_21  and  C_26
REMARK                            x       y       z     vdW  Elec       q    Type
REMARK                         _______ _______ _______ _____ _____    ______ ____
ROOT
ATOM      4  O   UNL     1      15.899  -6.032  -3.396  0.00  0.00    -0.268 OA
ATOM      8  N   UNL     1      17.031  -8.043  -3.710  0.00  0.00    -0.283 N 
ATOM     14  C   UNL     1      18.235  -9.485  -2.262  0.00  0.00    +0.105 C 
ATOM     15  C   UNL     1      17.726  -8.053  -2.426  0.00  0.00    +0.182 C 
ATOM     16  C   UNL     1      18.411  -9.969  -3.703  0.00  0.00    +0.043 C 
ATOM     17  C   UNL     1      17.288  -9.272  -4.461  0.00  0.00    +0.111 C 
ATOM     19  C   UNL     1      16.106  -7.060  -4.036  0.00  0.00    +0.267 C 
ENDROOT
BRANCH  14   9
ATOM      5  O   UNL     1      18.520 -10.578   0.370  0.00  0.00    -0.252 OA
ATOM      9  N   UNL     1      17.275 -10.302  -1.557  0.00  0.00    -0.294 N 
ATOM     11  N   UNL     1      16.395 -11.552   0.156  0.00  0.00    -0.267 N 
ATOM     22  C   UNL     1      17.494 -10.798  -0.267  0.00  0.00    +0.304 C 
ATOM     37  H   UNL     1      16.372 -10.471  -1.989  0.00  0.00    +0.151 HD
ATOM     39  H   UNL     1      15.620 -11.639  -0.496  0.00  0.00    +0.156 HD
BRANCH  11  28
ATOM      1  F   UNL     1      16.686 -14.315   0.373  0.00  0.00    -0.203 F 
ATOM      2  F   UNL     1      15.726 -14.157   5.003  0.00  0.00    -0.205 F 
ATOM     28  C   UNL     1      16.225 -12.219   1.391  0.00  0.00    +0.070 A 
ATOM     32  C   UNL     1      16.377 -13.603   1.466  0.00  0.00    +0.147 A 
ATOM     33  C   UNL     1      15.903 -11.490   2.535  0.00  0.00    +0.029 A 
ATOM     34  C   UNL     1      16.209 -14.259   2.686  0.00  0.00    +0.078 A 
ATOM     35  C   UNL     1      15.734 -12.145   3.756  0.00  0.00    +0.040 A 
ATOM     36  C   UNL     1      15.887 -13.529   3.831  0.00  0.00    +0.126 A 
ENDBRANCH  11  28
ENDBRANCH  14   9
BRANCH  19  23
ATOM     12  N   UNL     1      15.791  -6.764  -6.394  0.00  0.00    -0.247 NA
ATOM     13  N   UNL     1      13.357  -8.154  -6.305  0.00  0.00    -0.259 NA
ATOM     23  C   UNL     1      15.301  -7.272  -5.245  0.00  0.00    +0.144 A 
ATOM     27  C   UNL     1      14.105  -7.954  -5.202  0.00  0.00    +0.143 A 
ATOM     29  C   UNL     1      15.044  -6.965  -7.497  0.00  0.00    +0.131 A 
ATOM     30  C   UNL     1      13.848  -7.647  -7.453  0.00  0.00    +0.130 A 
ENDBRANCH  19  23
BRANCH  15  18
ATOM      3  O   UNL     1      19.840  -7.307  -3.246  0.00  0.00    -0.274 OA
ATOM     10  N   UNL     1      18.653  -5.936  -1.787  0.00  0.00    -0.301 N 
ATOM     18  C   UNL     1      18.856  -7.075  -2.551  0.00  0.00    +0.236 C 
ATOM     38  H   UNL     1      17.770  -5.832  -1.295  0.00  0.00    +0.150 HD
BRANCH  10  20
ATOM     20  C   UNL     1      19.602  -4.853  -1.715  0.00  0.00    +0.184 C 
BRANCH  20  21
ATOM     21  C   UNL     1      20.431  -4.879  -0.412  0.00  0.00    +0.014 C 
ATOM     25  C   UNL     1      19.534  -5.098   0.811  0.00  0.00    +0.009 C 
ATOM     26  C   UNL     1      21.553  -5.923  -0.430  0.00  0.00    +0.009 C 
ENDBRANCH  20  21
BRANCH  20  24
ATOM      7  O   UNL     1      19.560  -2.465  -2.092  0.00  0.00    -0.249 OA
ATOM     24  C   UNL     1      18.927  -3.500  -1.915  0.00  0.00    +0.328 C 
BRANCH  24   6
ATOM      6  O   UNL     1      17.567  -3.590  -1.872  0.00  0.00    -0.467 OA
ATOM     31  C   UNL     1      16.857  -2.683  -2.721  0.00  0.00    +0.280 C 
ENDBRANCH  24   6
ENDBRANCH  20  24
ENDBRANCH  10  20
ENDBRANCH  15  18
TORSDOF 8
ENDMDL
MODEL 2
REMARK VINA RESULT:      -6.2     25.833     29.189
REMARK  Name = 7128122
REMARK  11 active torsions:
REMARK  status: ('A' for Active; 'I' for Inactive)
REMARK    1  A    between atoms: O_6  and  C_24
REMARK    2  A    between atoms: O_6  and  C_31
REMARK    3  A    between atoms: N_9  and  C_14
REMARK    4  A    between atoms: N_10  and  C_20
REMARK    5  A    between atoms: N_11  and  C_28
REMARK    6  A    between atoms: C_15  and  C_18
REMARK    7  A    between atoms: C_19  and  C_23
REMARK    8  A    between atoms: C_20  and  C_21
REMARK    9  A    between atoms: C_20  and  C_24
REMARK   10  A    between atoms: C_21  and  C_25
REMARK   11  A    between atoms: C_21  and  C_26
REMARK                            x       y       z     vdW  Elec       q    Type
REMARK                         _______ _______ _______ _____ _____    ______ ____
ROOT
ATOM      4  O   UNL     1      14.376  13.077  21.103  0.00  0.00    -0.268 OA
ATOM      8  N   UNL     1      14.179  10.764  21.283  0.00  0.00    -0.283 N 
ATOM     14  C   UNL     1      15.197   8.943  20.155  0.00  0.00    +0.105 C 
ATOM     15  C   UNL     1      14.875  10.433  20.044  0.00  0.00    +0.182 C 
ATOM     16  C   UNL     1      14.090   8.406  21.065  0.00  0.00    +0.043 C 
ATOM     17  C   UNL     1      13.821   9.556  22.027  0.00  0.00    +0.111 C 
ATOM     19  C   UNL     1      14.072  12.071  21.739  0.00  0.00    +0.267 C 
ENDROOT
BRANCH  14   9
ATOM      5  O   UNL     1      16.791   6.570  19.983  0.00  0.00    -0.252 OA
ATOM      9  N   UNL     1      16.498   8.732  20.744  0.00  0.00    -0.294 N 
ATOM     11  N   UNL     1      18.435   7.625  21.285  0.00  0.00    -0.267 N 
ATOM     22  C   UNL     1      17.213   7.537  20.612  0.00  0.00    +0.304 C 
ATOM     37  H   UNL     1      16.945   9.509  21.222  0.00  0.00    +0.151 HD
ATOM     39  H   UNL     1      18.634   8.502  21.762  0.00  0.00    +0.156 HD
BRANCH  11  28
ATOM      1  F   UNL     1      20.038   7.415  23.556  0.00  0.00    -0.203 F 
ATOM      2  F   UNL     1      22.371   3.743  21.695  0.00  0.00    -0.205 F 
ATOM     28  C   UNL     1      19.440   6.636  21.392  0.00  0.00    +0.070 A 
ATOM     32  C   UNL     1      20.226   6.558  22.542  0.00  0.00    +0.147 A 
ATOM     33  C   UNL     1      19.645   5.739  20.345  0.00  0.00    +0.029 A 
ATOM     34  C   UNL     1      21.216   5.580  22.645  0.00  0.00    +0.078 A 
ATOM     35  C   UNL     1      20.636   4.762  20.447  0.00  0.00    +0.040 A 
ATOM     36  C   UNL     1      21.421   4.682  21.596  0.00  0.00    +0.126 A 
ENDBRANCH  11  28
ENDBRANCH  14   9
BRANCH  19  23
ATOM     12  N   UNL     1      14.447  12.137  24.106  0.00  0.00    -0.247 NA
ATOM     13  N   UNL     1      11.750  12.744  24.578  0.00  0.00    -0.259 NA
ATOM     23  C   UNL     1      13.558  12.266  23.100  0.00  0.00    +0.144 A 
ATOM     27  C   UNL     1      12.233  12.563  23.333  0.00  0.00    +0.143 A 
ATOM     29  C   UNL     1      13.964  12.318  25.351  0.00  0.00    +0.131 A 
ATOM     30  C   UNL     1      12.639  12.615  25.583  0.00  0.00    +0.130 A 
ENDBRANCH  19  23
BRANCH  15  18
ATOM      3  O   UNL     1      13.454  11.833  18.732  0.00  0.00    -0.274 OA
ATOM     10  N   UNL     1      13.599   9.570  18.206  0.00  0.00    -0.301 N 
ATOM     18  C   UNL     1      13.909  10.710  18.930  0.00  0.00    +0.236 C 
ATOM     38  H   UNL     1      14.084   8.705  18.430  0.00  0.00    +0.150 HD
BRANCH  10  20
ATOM     20  C   UNL     1      12.677   9.562  17.098  0.00  0.00    +0.184 C 
BRANCH  20  21
ATOM     21  C   UNL     1      11.554   8.517  17.271  0.00  0.00    +0.014 C 
ATOM     25  C   UNL     1      11.013   8.516  18.704  0.00  0.00    +0.009 C 
ATOM     26  C   UNL     1      10.400   8.699  16.278  0.00  0.00    +0.009 C 
ENDBRANCH  20  21
BRANCH  20  24
ATOM      7  O   UNL     1      14.002   8.358  15.473  0.00  0.00    -0.249 OA
ATOM     24  C   UNL     1      13.399   9.385  15.767  0.00  0.00    +0.328 C 
BRANCH  24   6
ATOM      6  O   UNL     1      13.290  10.486  14.970  0.00  0.00    -0.467 OA
ATOM     31  C   UNL     1      14.172  11.569  15.281  0.00  0.00    +0.280 C 
ENDBRANCH  24   6
ENDBRANCH  20  24
ENDBRANCH  10  20
ENDBRANCH  15  18
TORSDOF 8
ENDMDL
MODEL 3
REMARK VINA RESULT:      -6.0     25.794     29.096
REMARK  Name = 7128122
REMARK  11 active torsions:
REMARK  status: ('A' for Active; 'I' for Inactive)
REMARK    1  A    between atoms: O_6  and  C_24
REMARK    2  A    between atoms: O_6  and  C_31
REMARK    3  A    between atoms: N_9  and  C_14
REMARK    4  A    between atoms: N_10  and  C_20
REMARK    5  A    between atoms: N_11  and  C_28
REMARK    6  A    between atoms: C_15  and  C_18
REMARK    7  A    between atoms: C_19  and  C_23
REMARK    8  A    between atoms: C_20  and  C_21
REMARK    9  A    between atoms: C_20  and  C_24
REMARK   10  A    between atoms: C_21  and  C_25
REMARK   11  A    between atoms: C_21  and  C_26
REMARK                            x       y       z     vdW  Elec       q    Type
REMARK                         _______ _______ _______ _____ _____    ______ ____
ROOT
ATOM      4  O   UNL     1      13.943  12.132  21.354  0.00  0.00    -0.268 OA
ATOM      8  N   UNL     1      13.359   9.879  21.445  0.00  0.00    -0.283 N 
ATOM     14  C   UNL     1      14.287   7.910  20.504  0.00  0.00    +0.105 C 
ATOM     15  C   UNL     1      14.228   9.431  20.361  0.00  0.00    +0.182 C 
ATOM     16  C   UNL     1      12.953   7.561  21.167  0.00  0.00    +0.043 C 
ATOM     17  C   UNL     1      12.679   8.750  22.080  0.00  0.00    +0.111 C 
ATOM     19  C   UNL     1      13.366  11.192  21.897  0.00  0.00    +0.267 C 
ENDROOT
BRANCH  14   9
ATOM      5  O   UNL     1      17.028   7.676  19.705  0.00  0.00    -0.252 OA
ATOM      9  N   UNL     1      15.398   7.507  21.335  0.00  0.00    -0.294 N 
ATOM     11  N   UNL     1      17.568   7.005  21.889  0.00  0.00    -0.267 N 
ATOM     22  C   UNL     1      16.712   7.418  20.864  0.00  0.00    +0.304 C 
ATOM     37  H   UNL     1      15.230   7.344  22.323  0.00  0.00    +0.151 HD
ATOM     39  H   UNL     1      17.146   6.830  22.798  0.00  0.00    +0.156 HD
BRANCH  11  28
ATOM      1  F   UNL     1      18.688   5.224  20.062  0.00  0.00    -0.203 F 
ATOM      2  F   UNL     1      23.046   6.190  21.632  0.00  0.00    -0.205 F 
ATOM     28  C   UNL     1      18.965   6.795  21.822  0.00  0.00    +0.070 A 
ATOM     32  C   UNL     1      19.494   5.896  20.896  0.00  0.00    +0.147 A 
ATOM     33  C   UNL     1      19.814   7.489  22.684  0.00  0.00    +0.029 A 
ATOM     34  C   UNL     1      20.873   5.691  20.831  0.00  0.00    +0.078 A 
ATOM     35  C   UNL     1      21.193   7.284  22.620  0.00  0.00    +0.040 A 
ATOM     36  C   UNL     1      21.722   6.386  21.694  0.00  0.00    +0.126 A 
ENDBRANCH  11  28
ENDBRANCH  14   9
BRANCH  19  23
ATOM     12  N   UNL     1      11.294  11.631  23.020  0.00  0.00    -0.247 NA
ATOM     13  N   UNL     1      12.610  11.854  25.487  0.00  0.00    -0.259 NA
ATOM     23  C   UNL     1      12.630  11.479  23.133  0.00  0.00    +0.144 A 
ATOM     27  C   UNL     1      13.275  11.589  24.345  0.00  0.00    +0.143 A 
ATOM     29  C   UNL     1      10.629  11.895  24.162  0.00  0.00    +0.131 A 
ATOM     30  C   UNL     1      11.275  12.005  25.373  0.00  0.00    +0.130 A 
ENDBRANCH  19  23
BRANCH  15  18
ATOM      3  O   UNL     1      12.335   9.904  18.986  0.00  0.00    -0.274 OA
ATOM     10  N   UNL     1      14.466  10.104  18.072  0.00  0.00    -0.301 N 
ATOM     18  C   UNL     1      13.557   9.841  19.085  0.00  0.00    +0.236 C 
ATOM     38  H   UNL     1      15.458  10.073  18.291  0.00  0.00    +0.150 HD
BRANCH  10  20
ATOM     20  C   UNL     1      14.077  10.496  16.741  0.00  0.00    +0.184 C 
BRANCH  20  21
ATOM     21  C   UNL     1      13.597   9.300  15.889  0.00  0.00    +0.014 C 
ATOM     25  C   UNL     1      14.046   7.969  16.501  0.00  0.00    +0.009 C 
ATOM     26  C   UNL     1      12.081   9.287  15.664  0.00  0.00    +0.009 C 
ENDBRANCH  20  21
BRANCH  20  24
ATOM      7  O   UNL     1      15.666  10.909  14.966  0.00  0.00    -0.249 OA
ATOM     24  C   UNL     1      15.185  11.269  16.035  0.00  0.00    +0.328 C 
BRANCH  24   6
ATOM      6  O   UNL     1      15.561  12.381  16.728  0.00  0.00    -0.467 OA
ATOM     31  C   UNL     1      16.917  12.800  16.546  0.00  0.00    +0.280 C 
ENDBRANCH  24   6
ENDBRANCH  20  24
ENDBRANCH  10  20
ENDBRANCH  15  18
TORSDOF 8
ENDMDL
MODEL 4
REMARK VINA RESULT:      -6.0      3.948      6.149
REMARK  Name = 7128122
REMARK  11 active torsions:
REMARK  status: ('A' for Active; 'I' for Inactive)
REMARK    1  A    between atoms: O_6  and  C_24
REMARK    2  A    between atoms: O_6  and  C_31
REMARK    3  A    between atoms: N_9  and  C_14
REMARK    4  A    between atoms: N_10  and  C_20
REMARK    5  A    between atoms: N_11  and  C_28
REMARK    6  A    between atoms: C_15  and  C_18
REMARK    7  A    between atoms: C_19  and  C_23
REMARK    8  A    between atoms: C_20  and  C_21
REMARK    9  A    between atoms: C_20  and  C_24
REMARK   10  A    between atoms: C_21  and  C_25
REMARK   11  A    between atoms: C_21  and  C_26
REMARK                            x       y       z     vdW  Elec       q    Type
REMARK                         _______ _______ _______ _____ _____    ______ ____
ROOT
ATOM      4  O   UNL     1      19.529  -4.656   1.394  0.00  0.00    -0.268 OA
ATOM      8  N   UNL     1      20.473  -6.415   0.194  0.00  0.00    -0.283 N 
ATOM     14  C   UNL     1      20.839  -8.710   0.671  0.00  0.00    +0.105 C 
ATOM     15  C   UNL     1      20.592  -7.344   1.313  0.00  0.00    +0.182 C 
ATOM     16  C   UNL     1      21.524  -8.362  -0.652  0.00  0.00    +0.043 C 
ATOM     17  C   UNL     1      20.878  -7.046  -1.063  0.00  0.00    +0.111 C 
ATOM     19  C   UNL     1      19.865  -5.175   0.332  0.00  0.00    +0.267 C 
ENDROOT
BRANCH  14   9
ATOM      5  O   UNL     1      19.534 -10.517   2.469  0.00  0.00    -0.252 OA
ATOM      9  N   UNL     1      19.597  -9.410   0.441  0.00  0.00    -0.294 N 
ATOM     11  N   UNL     1      17.830 -10.808   0.881  0.00  0.00    -0.267 N 
ATOM     22  C   UNL     1      19.025 -10.279   1.376  0.00  0.00    +0.304 C 
ATOM     37  H   UNL     1      19.080  -9.213  -0.410  0.00  0.00    +0.151 HD
ATOM     39  H   UNL     1      17.546 -10.509  -0.049  0.00  0.00    +0.156 HD
BRANCH  11  28
ATOM      1  F   UNL     1      16.189 -10.027   2.993  0.00  0.00    -0.203 F 
ATOM      2  F   UNL     1      14.403 -14.393   3.358  0.00  0.00    -0.205 F 
ATOM     28  C   UNL     1      16.955 -11.720   1.515  0.00  0.00    +0.070 A 
ATOM     32  C   UNL     1      16.147 -11.298   2.570  0.00  0.00    +0.147 A 
ATOM     33  C   UNL     1      16.902 -13.046   1.083  0.00  0.00    +0.029 A 
ATOM     34  C   UNL     1      15.284 -12.201   3.193  0.00  0.00    +0.078 A 
ATOM     35  C   UNL     1      16.040 -13.948   1.706  0.00  0.00    +0.040 A 
ATOM     36  C   UNL     1      15.232 -13.527   2.761  0.00  0.00    +0.126 A 
ENDBRANCH  11  28
ENDBRANCH  14   9
BRANCH  19  23
ATOM     12  N   UNL     1      20.630  -3.751  -1.440  0.00  0.00    -0.247 NA
ATOM     13  N   UNL     1      18.075  -3.715  -2.596  0.00  0.00    -0.259 NA
ATOM     23  C   UNL     1      19.592  -4.422  -0.899  0.00  0.00    +0.144 A 
ATOM     27  C   UNL     1      18.338  -4.403  -1.467  0.00  0.00    +0.143 A 
ATOM     29  C   UNL     1      20.368  -3.064  -2.569  0.00  0.00    +0.131 A 
ATOM     30  C   UNL     1      19.113  -3.046  -3.136  0.00  0.00    +0.130 A 
ENDBRANCH  19  23
BRANCH  15  18
ATOM      3  O   UNL     1      22.419  -5.890   1.809  0.00  0.00    -0.274 OA
ATOM     10  N   UNL     1      22.038  -7.727   3.188  0.00  0.00    -0.301 N 
ATOM     18  C   UNL     1      21.774  -6.888   2.116  0.00  0.00    +0.236 C 
ATOM     38  H   UNL     1      21.397  -8.493   3.374  0.00  0.00    +0.150 HD
BRANCH  10  20
ATOM     20  C   UNL     1      23.134  -7.522   4.101  0.00  0.00    +0.184 C 
BRANCH  20  21
ATOM     21  C   UNL     1      24.460  -8.114   3.575  0.00  0.00    +0.014 C 
ATOM     25  C   UNL     1      24.213  -9.082   2.414  0.00  0.00    +0.009 C 
ATOM     26  C   UNL     1      25.476  -7.045   3.157  0.00  0.00    +0.009 C 
ENDBRANCH  20  21
BRANCH  20  24
ATOM      7  O   UNL     1      22.097  -7.429   6.283  0.00  0.00    -0.249 OA
ATOM     24  C   UNL     1      22.809  -8.044   5.496  0.00  0.00    +0.328 C 
BRANCH  24   6
ATOM      6  O   UNL     1      23.396  -9.248   5.747  0.00  0.00    -0.467 OA
ATOM     31  C   UNL     1      22.536 -10.389   5.664  0.00  0.00    +0.280 C 
ENDBRANCH  24   6
ENDBRANCH  20  24
ENDBRANCH  10  20
ENDBRANCH  15  18
TORSDOF 8
ENDMDL
MODEL 5
REMARK VINA RESULT:      -5.9     22.365     25.235
REMARK  Name = 7128122
REMARK  11 active torsions:
REMARK  status: ('A' for Active; 'I' for Inactive)
REMARK    1  A    between atoms: O_6  and  C_24
REMARK    2  A    between atoms: O_6  and  C_31
REMARK    3  A    between atoms: N_9  and  C_14
REMARK    4  A    between atoms: N_10  and  C_20
REMARK    5  A    between atoms: N_11  and  C_28
REMARK    6  A    between atoms: C_15  and  C_18
REMARK    7  A    between atoms: C_19  and  C_23
REMARK    8  A    between atoms: C_20  and  C_21
REMARK    9  A    between atoms: C_20  and  C_24
REMARK   10  A    between atoms: C_21  and  C_25
REMARK   11  A    between atoms: C_21  and  C_26
REMARK                            x       y       z     vdW  Elec       q    Type
REMARK                         _______ _______ _______ _____ _____    ______ ____
ROOT
ATOM      4  O   UNL     1      -4.566  -8.107   9.795  0.00  0.00    -0.268 OA
ATOM      8  N   UNL     1      -5.111 -10.257   9.082  0.00  0.00    -0.283 N 
ATOM     14  C   UNL     1      -5.686 -11.184   6.977  0.00  0.00    +0.105 C 
ATOM     15  C   UNL     1      -5.625  -9.878   7.770  0.00  0.00    +0.182 C 
ATOM     16  C   UNL     1      -5.881 -12.249   8.058  0.00  0.00    +0.043 C 
ATOM     17  C   UNL     1      -5.094 -11.710   9.246  0.00  0.00    +0.111 C 
ATOM     19  C   UNL     1      -4.546  -9.327   9.945  0.00  0.00    +0.267 C 
ENDROOT
BRANCH  14   9
ATOM      5  O   UNL     1      -5.330 -12.907   4.716  0.00  0.00    -0.252 OA
ATOM      9  N   UNL     1      -4.460 -11.409   6.246  0.00  0.00    -0.294 N 
ATOM     11  N   UNL     1      -3.068 -12.285   4.646  0.00  0.00    -0.267 N 
ATOM     22  C   UNL     1      -4.372 -12.271   5.148  0.00  0.00    +0.304 C 
ATOM     37  H   UNL     1      -3.640 -10.867   6.498  0.00  0.00    +0.151 HD
ATOM     39  H   UNL     1      -2.386 -11.699   5.121  0.00  0.00    +0.156 HD
BRANCH  11  28
ATOM      1  F   UNL     1      -0.967 -14.094   4.940  0.00  0.00    -0.203 F 
ATOM      2  F   UNL     1      -1.120 -15.179   0.337  0.00  0.00    -0.205 F 
ATOM     28  C   UNL     1      -2.568 -13.025   3.548  0.00  0.00    +0.070 A 
ATOM     32  C   UNL     1      -1.516 -13.922   3.729  0.00  0.00    +0.147 A 
ATOM     33  C   UNL     1      -3.131 -12.855   2.283  0.00  0.00    +0.029 A 
ATOM     34  C   UNL     1      -1.026 -14.650   2.644  0.00  0.00    +0.078 A 
ATOM     35  C   UNL     1      -2.641 -13.583   1.199  0.00  0.00    +0.040 A 
ATOM     36  C   UNL     1      -1.589 -14.480   1.378  0.00  0.00    +0.126 A 
ENDBRANCH  11  28
ENDBRANCH  14   9
BRANCH  19  23
ATOM     12  N   UNL     1      -4.621 -10.096  12.214  0.00  0.00    -0.247 NA
ATOM     13  N   UNL     1      -1.852 -10.540  12.220  0.00  0.00    -0.259 NA
ATOM     23  C   UNL     1      -3.856  -9.847  11.132  0.00  0.00    +0.144 A 
ATOM     27  C   UNL     1      -2.496 -10.064  11.136  0.00  0.00    +0.143 A 
ATOM     29  C   UNL     1      -3.977 -10.573  13.298  0.00  0.00    +0.131 A 
ATOM     30  C   UNL     1      -2.617 -10.790  13.300  0.00  0.00    +0.130 A 
ENDBRANCH  19  23
BRANCH  15  18
ATOM      3  O   UNL     1      -7.724  -9.718   8.895  0.00  0.00    -0.274 OA
ATOM     10  N   UNL     1      -7.306  -8.311   7.088  0.00  0.00    -0.301 N 
ATOM     18  C   UNL     1      -6.992  -9.306   8.000  0.00  0.00    +0.236 C 
ATOM     38  H   UNL     1      -6.594  -8.016   6.426  0.00  0.00    +0.150 HD
BRANCH  10  20
ATOM     20  C   UNL     1      -8.569  -7.616   7.079  0.00  0.00    +0.184 C 
BRANCH  20  21
ATOM     21  C   UNL     1      -8.997  -7.183   5.660  0.00  0.00    +0.014 C 
ATOM     25  C   UNL     1      -8.314  -8.041   4.590  0.00  0.00    +0.009 C 
ATOM     26  C   UNL     1     -10.516  -7.202   5.453  0.00  0.00    +0.009 C 
ENDBRANCH  20  21
BRANCH  20  24
ATOM      7  O   UNL     1      -7.576  -5.738   8.234  0.00  0.00    -0.249 OA
ATOM     24  C   UNL     1      -8.568  -6.434   8.042  0.00  0.00    +0.328 C 
BRANCH  24   6
ATOM      6  O   UNL     1      -9.777  -6.257   8.644  0.00  0.00    -0.467 OA
ATOM     31  C   UNL     1     -10.182  -4.898   8.841  0.00  0.00    +0.280 C 
ENDBRANCH  24   6
ENDBRANCH  20  24
ENDBRANCH  10  20
ENDBRANCH  15  18
TORSDOF 8
ENDMDL
MODEL 6
REMARK VINA RESULT:      -5.9     27.341     31.044
REMARK  Name = 7128122
REMARK  11 active torsions:
REMARK  status: ('A' for Active; 'I' for Inactive)
REMARK    1  A    between atoms: O_6  and  C_24
REMARK    2  A    between atoms: O_6  and  C_31
REMARK    3  A    between atoms: N_9  and  C_14
REMARK    4  A    between atoms: N_10  and  C_20
REMARK    5  A    between atoms: N_11  and  C_28
REMARK    6  A    between atoms: C_15  and  C_18
REMARK    7  A    between atoms: C_19  and  C_23
REMARK    8  A    between atoms: C_20  and  C_21
REMARK    9  A    between atoms: C_20  and  C_24
REMARK   10  A    between atoms: C_21  and  C_25
REMARK   11  A    between atoms: C_21  and  C_26
REMARK                            x       y       z     vdW  Elec       q    Type
REMARK                         _______ _______ _______ _____ _____    ______ ____
ROOT
ATOM      4  O   UNL     1      -6.553 -12.936  14.862  0.00  0.00    -0.268 OA
ATOM      8  N   UNL     1      -6.260 -12.301  17.084  0.00  0.00    -0.283 N 
ATOM     14  C   UNL     1      -6.245 -10.208  18.198  0.00  0.00    +0.105 C 
ATOM     15  C   UNL     1      -6.073 -10.875  16.833  0.00  0.00    +0.182 C 
ATOM     16  C   UNL     1      -5.821 -11.297  19.184  0.00  0.00    +0.043 C 
ATOM     17  C   UNL     1      -6.277 -12.589  18.518  0.00  0.00    +0.111 C 
ATOM     19  C   UNL     1      -6.571 -13.191  16.064  0.00  0.00    +0.267 C 
ENDROOT
BRANCH  14   9
ATOM      5  O   UNL     1      -7.975  -8.895  16.329  0.00  0.00    -0.252 OA
ATOM      9  N   UNL     1      -7.618  -9.818  18.418  0.00  0.00    -0.294 N 
ATOM     11  N   UNL     1      -9.679  -8.925  17.943  0.00  0.00    -0.267 N 
ATOM     22  C   UNL     1      -8.397  -9.177  17.448  0.00  0.00    +0.304 C 
ATOM     37  H   UNL     1      -8.061 -10.078  19.294  0.00  0.00    +0.151 HD
ATOM     39  H   UNL     1      -9.870  -9.222  18.897  0.00  0.00    +0.156 HD
BRANCH  11  28
ATOM      1  F   UNL     1     -12.109 -10.231  17.551  0.00  0.00    -0.203 F 
ATOM      2  F   UNL     1     -13.903  -6.452  15.340  0.00  0.00    -0.205 F 
ATOM     28  C   UNL     1     -10.758  -8.297  17.279  0.00  0.00    +0.070 A 
ATOM     32  C   UNL     1     -11.962  -8.978  17.099  0.00  0.00    +0.147 A 
ATOM     33  C   UNL     1     -10.616  -6.993  16.804  0.00  0.00    +0.029 A 
ATOM     34  C   UNL     1     -13.025  -8.355  16.443  0.00  0.00    +0.078 A 
ATOM     35  C   UNL     1     -11.679  -6.371  16.148  0.00  0.00    +0.040 A 
ATOM     36  C   UNL     1     -12.883  -7.051  15.968  0.00  0.00    +0.126 A 
ENDBRANCH  11  28
ENDBRANCH  14   9
BRANCH  19  23
ATOM     12  N   UNL     1      -8.254 -14.733  16.797  0.00  0.00    -0.247 NA
ATOM     13  N   UNL     1      -6.396 -16.834  16.837  0.00  0.00    -0.259 NA
ATOM     23  C   UNL     1      -6.962 -14.551  16.457  0.00  0.00    +0.144 A 
ATOM     27  C   UNL     1      -6.050 -15.583  16.477  0.00  0.00    +0.143 A 
ATOM     29  C   UNL     1      -8.601 -15.985  17.156  0.00  0.00    +0.131 A 
ATOM     30  C   UNL     1      -7.688 -17.017  17.176  0.00  0.00    +0.130 A 
ENDBRANCH  19  23
BRANCH  15  18
ATOM      3  O   UNL     1      -3.741 -10.416  17.046  0.00  0.00    -0.274 OA
ATOM     10  N   UNL     1      -4.599 -10.926  14.943  0.00  0.00    -0.301 N 
ATOM     18  C   UNL     1      -4.677 -10.717  16.311  0.00  0.00    +0.236 C 
ATOM     38  H   UNL     1      -5.435 -11.226  14.449  0.00  0.00    +0.150 HD
BRANCH  10  20
ATOM     20  C   UNL     1      -3.373 -10.811  14.193  0.00  0.00    +0.184 C 
BRANCH  20  21
ATOM     21  C   UNL     1      -3.605 -10.866  12.668  0.00  0.00    +0.014 C 
ATOM     25  C   UNL     1      -4.837 -10.049  12.265  0.00  0.00    +0.009 C 
ATOM     26  C   UNL     1      -2.388 -10.412  11.854  0.00  0.00    +0.009 C 
ENDBRANCH  20  21
BRANCH  20  24
ATOM      7  O   UNL     1      -1.260 -11.538  15.117  0.00  0.00    -0.249 OA
ATOM     24  C   UNL     1      -2.345 -11.847  14.635  0.00  0.00    +0.328 C 
BRANCH  24   6
ATOM      6  O   UNL     1      -2.777 -13.123  14.431  0.00  0.00    -0.467 OA
ATOM     31  C   UNL     1      -1.870 -13.982  13.733  0.00  0.00    +0.280 C 
ENDBRANCH  24   6
ENDBRANCH  20  24
ENDBRANCH  10  20
ENDBRANCH  15  18
TORSDOF 8
ENDMDL
MODEL 7
REMARK VINA RESULT:      -5.9     26.750     29.599
REMARK  Name = 7128122
REMARK  11 active torsions:
REMARK  status: ('A' for Active; 'I' for Inactive)
REMARK    1  A    between atoms: O_6  and  C_24
REMARK    2  A    between atoms: O_6  and  C_31
REMARK    3  A    between atoms: N_9  and  C_14
REMARK    4  A    between atoms: N_10  and  C_20
REMARK    5  A    between atoms: N_11  and  C_28
REMARK    6  A    between atoms: C_15  and  C_18
REMARK    7  A    between atoms: C_19  and  C_23
REMARK    8  A    between atoms: C_20  and  C_21
REMARK    9  A    between atoms: C_20  and  C_24
REMARK   10  A    between atoms: C_21  and  C_25
REMARK   11  A    between atoms: C_21  and  C_26
REMARK                            x       y       z     vdW  Elec       q    Type
REMARK                         _______ _______ _______ _____ _____    ______ ____
ROOT
ATOM      4  O   UNL     1      21.777   4.990  23.983  0.00  0.00    -0.268 OA
ATOM      8  N   UNL     1      20.777   6.914  23.133  0.00  0.00    -0.283 N 
ATOM     14  C   UNL     1      19.357   7.338  21.282  0.00  0.00    +0.105 C 
ATOM     15  C   UNL     1      20.374   6.347  21.850  0.00  0.00    +0.182 C 
ATOM     16  C   UNL     1      19.774   8.672  21.903  0.00  0.00    +0.043 C 
ATOM     17  C   UNL     1      20.292   8.286  23.282  0.00  0.00    +0.111 C 
ATOM     19  C   UNL     1      21.373   6.142  24.121  0.00  0.00    +0.267 C 
ENDROOT
BRANCH  14   9
ATOM      5  O   UNL     1      16.930   8.500  20.300  0.00  0.00    -0.252 OA
ATOM      9  N   UNL     1      18.011   6.985  21.670  0.00  0.00    -0.294 N 
ATOM     11  N   UNL     1      15.717   7.058  21.700  0.00  0.00    -0.267 N 
ATOM     22  C   UNL     1      16.875   7.605  21.139  0.00  0.00    +0.304 C 
ATOM     37  H   UNL     1      17.879   6.206  22.308  0.00  0.00    +0.151 HD
ATOM     39  H   UNL     1      15.845   6.319  22.387  0.00  0.00    +0.156 HD
BRANCH  11  28
ATOM      1  F   UNL     1      14.525   9.282  22.884  0.00  0.00    -0.203 F 
ATOM      2  F   UNL     1      10.450   8.424  20.638  0.00  0.00    -0.205 F 
ATOM     28  C   UNL     1      14.374   7.409  21.431  0.00  0.00    +0.070 A 
ATOM     32  C   UNL     1      13.807   8.528  22.040  0.00  0.00    +0.147 A 
ATOM     33  C   UNL     1      13.616   6.632  20.555  0.00  0.00    +0.029 A 
ATOM     34  C   UNL     1      12.481   8.871  21.772  0.00  0.00    +0.078 A 
ATOM     35  C   UNL     1      12.290   6.975  20.288  0.00  0.00    +0.040 A 
ATOM     36  C   UNL     1      11.723   8.094  20.896  0.00  0.00    +0.126 A 
ENDBRANCH  11  28
ENDBRANCH  14   9
BRANCH  19  23
ATOM     12  N   UNL     1      20.496   6.602  26.305  0.00  0.00    -0.247 NA
ATOM     13  N   UNL     1      22.818   8.011  27.006  0.00  0.00    -0.259 NA
ATOM     23  C   UNL     1      21.526   6.753  25.447  0.00  0.00    +0.144 A 
ATOM     27  C   UNL     1      22.666   7.445  25.792  0.00  0.00    +0.143 A 
ATOM     29  C   UNL     1      20.648   7.167  27.519  0.00  0.00    +0.131 A 
ATOM     30  C   UNL     1      21.788   7.860  27.863  0.00  0.00    +0.130 A 
ENDBRANCH  19  23
BRANCH  15  18
ATOM      3  O   UNL     1      21.911   7.177  20.224  0.00  0.00    -0.274 OA
ATOM     10  N   UNL     1      22.328   5.112  21.214  0.00  0.00    -0.301 N 
ATOM     18  C   UNL     1      21.613   6.282  21.008  0.00  0.00    +0.236 C 
ATOM     38  H   UNL     1      22.011   4.469  21.934  0.00  0.00    +0.150 HD
BRANCH  10  20
ATOM     20  C   UNL     1      23.546   4.795  20.511  0.00  0.00    +0.184 C 
BRANCH  20  21
ATOM     21  C   UNL     1      23.809   3.275  20.440  0.00  0.00    +0.014 C 
ATOM     25  C   UNL     1      25.170   2.978  19.801  0.00  0.00    +0.009 C 
ATOM     26  C   UNL     1      23.709   2.579  21.802  0.00  0.00    +0.009 C 
ENDBRANCH  20  21
BRANCH  20  24
ATOM      7  O   UNL     1      25.002   5.535  22.294  0.00  0.00    -0.249 OA
ATOM     24  C   UNL     1      24.742   5.538  21.095  0.00  0.00    +0.328 C 
BRANCH  24   6
ATOM      6  O   UNL     1      25.464   6.188  20.139  0.00  0.00    -0.467 OA
ATOM     31  C   UNL     1      25.349   7.614  20.134  0.00  0.00    +0.280 C 
ENDBRANCH  24   6
ENDBRANCH  20  24
ENDBRANCH  10  20
ENDBRANCH  15  18
TORSDOF 8
ENDMDL
MODEL 8
REMARK VINA RESULT:      -5.8     14.414     18.338
REMARK  Name = 7128122
REMARK  11 active torsions:
REMARK  status: ('A' for Active; 'I' for Inactive)
REMARK    1  A    between atoms: O_6  and  C_24
REMARK    2  A    between atoms: O_6  and  C_31
REMARK    3  A    between atoms: N_9  and  C_14
REMARK    4  A    between atoms: N_10  and  C_20
REMARK    5  A    between atoms: N_11  and  C_28
REMARK    6  A    between atoms: C_15  and  C_18
REMARK    7  A    between atoms: C_19  and  C_23
REMARK    8  A    between atoms: C_20  and  C_21
REMARK    9  A    between atoms: C_20  and  C_24
REMARK   10  A    between atoms: C_21  and  C_25
REMARK   11  A    between atoms: C_21  and  C_26
REMARK                            x       y       z     vdW  Elec       q    Type
REMARK                         _______ _______ _______ _____ _____    ______ ____
ROOT
ATOM      4  O   UNL     1      11.287   4.184   3.291  0.00  0.00    -0.268 OA
ATOM      8  N   UNL     1      12.213   6.195   2.566  0.00  0.00    -0.283 N 
ATOM     14  C   UNL     1      13.485   7.888   3.634  0.00  0.00    +0.105 C 
ATOM     15  C   UNL     1      12.518   6.732   3.889  0.00  0.00    +0.182 C 
ATOM     16  C   UNL     1      13.114   8.359   2.227  0.00  0.00    +0.043 C 
ATOM     17  C   UNL     1      12.706   7.079   1.510  0.00  0.00    +0.111 C 
ATOM     19  C   UNL     1      11.698   4.917   2.394  0.00  0.00    +0.267 C 
ENDROOT
BRANCH  14   9
ATOM      5  O   UNL     1      15.792   9.498   4.172  0.00  0.00    -0.252 OA
ATOM      9  N   UNL     1      14.857   7.441   3.685  0.00  0.00    -0.294 N 
ATOM     11  N   UNL     1      17.134   7.586   3.940  0.00  0.00    -0.267 N 
ATOM     22  C   UNL     1      15.931   8.297   3.955  0.00  0.00    +0.304 C 
ATOM     37  H   UNL     1      15.048   6.449   3.585  0.00  0.00    +0.151 HD
ATOM     39  H   UNL     1      17.077   6.590   3.742  0.00  0.00    +0.156 HD
BRANCH  11  28
ATOM      1  F   UNL     1      17.962   8.425   6.465  0.00  0.00    -0.203 F 
ATOM      2  F   UNL     1      22.252   9.532   4.806  0.00  0.00    -0.205 F 
ATOM     28  C   UNL     1      18.439   8.084   4.164  0.00  0.00    +0.070 A 
ATOM     32  C   UNL     1      18.822   8.496   5.440  0.00  0.00    +0.147 A 
ATOM     33  C   UNL     1      19.343   8.162   3.105  0.00  0.00    +0.029 A 
ATOM     34  C   UNL     1      20.111   8.985   5.657  0.00  0.00    +0.078 A 
ATOM     35  C   UNL     1      20.631   8.651   3.322  0.00  0.00    +0.040 A 
ATOM     36  C   UNL     1      21.015   9.063   4.597  0.00  0.00    +0.126 A 
ENDBRANCH  11  28
ENDBRANCH  14   9
BRANCH  19  23
ATOM     12  N   UNL     1      12.743   3.745   0.582  0.00  0.00    -0.247 NA
ATOM     13  N   UNL     1      10.473   4.090  -1.029  0.00  0.00    -0.259 NA
ATOM     23  C   UNL     1      11.646   4.395   1.023  0.00  0.00    +0.144 A 
ATOM     27  C   UNL     1      10.532   4.564   0.231  0.00  0.00    +0.143 A 
ATOM     29  C   UNL     1      12.683   3.270  -0.678  0.00  0.00    +0.131 A 
ATOM     30  C   UNL     1      11.569   3.440  -1.469  0.00  0.00    +0.130 A 
ENDBRANCH  19  23
BRANCH  15  18
ATOM      3  O   UNL     1      10.259   7.489   3.744  0.00  0.00    -0.274 OA
ATOM     10  N   UNL     1      11.255   7.320   5.841  0.00  0.00    -0.301 N 
ATOM     18  C   UNL     1      11.217   7.213   4.459  0.00  0.00    +0.236 C 
ATOM     38  H   UNL     1      12.089   7.007   6.329  0.00  0.00    +0.150 HD
BRANCH  10  20
ATOM     20  C   UNL     1      10.140   7.782   6.629  0.00  0.00    +0.184 C 
BRANCH  20  21
ATOM     21  C   UNL     1      10.447   9.101   7.371  0.00  0.00    +0.014 C 
ATOM     25  C   UNL     1      11.914   9.506   7.198  0.00  0.00    +0.009 C 
ATOM     26  C   UNL     1       9.534  10.258   6.949  0.00  0.00    +0.009 C 
ENDBRANCH  20  21
BRANCH  20  24
ATOM      7  O   UNL     1       8.765   6.912   8.418  0.00  0.00    -0.249 OA
ATOM     24  C   UNL     1       9.649   6.707   7.593  0.00  0.00    +0.328 C 
BRANCH  24   6
ATOM      6  O   UNL     1      10.301   5.522   7.421  0.00  0.00    -0.467 OA
ATOM     31  C   UNL     1       9.841   4.435   8.231  0.00  0.00    +0.280 C 
ENDBRANCH  24   6
ENDBRANCH  20  24
ENDBRANCH  10  20
ENDBRANCH  15  18
TORSDOF 8
ENDMDL
MODEL 9
REMARK VINA RESULT:      -5.8     24.807     27.821
REMARK  Name = 7128122
REMARK  11 active torsions:
REMARK  status: ('A' for Active; 'I' for Inactive)
REMARK    1  A    between atoms: O_6  and  C_24
REMARK    2  A    between atoms: O_6  and  C_31
REMARK    3  A    between atoms: N_9  and  C_14
REMARK    4  A    between atoms: N_10  and  C_20
REMARK    5  A    between atoms: N_11  and  C_28
REMARK    6  A    between atoms: C_15  and  C_18
REMARK    7  A    between atoms: C_19  and  C_23
REMARK    8  A    between atoms: C_20  and  C_21
REMARK    9  A    between atoms: C_20  and  C_24
REMARK   10  A    between atoms: C_21  and  C_25
REMARK   11  A    between atoms: C_21  and  C_26
REMARK                            x       y       z     vdW  Elec       q    Type
REMARK                         _______ _______ _______ _____ _____    ______ ____
ROOT
ATOM      4  O   UNL     1      -4.017 -14.022  12.421  0.00  0.00    -0.268 OA
ATOM      8  N   UNL     1      -2.815 -12.488  13.698  0.00  0.00    -0.283 N 
ATOM     14  C   UNL     1      -3.267 -10.291  14.467  0.00  0.00    +0.105 C 
ATOM     15  C   UNL     1      -3.658 -11.330  13.416  0.00  0.00    +0.182 C 
ATOM     16  C   UNL     1      -1.813 -10.640  14.791  0.00  0.00    +0.043 C 
ATOM     17  C   UNL     1      -1.767 -12.157  14.663  0.00  0.00    +0.111 C 
ATOM     19  C   UNL     1      -3.132 -13.757  13.232  0.00  0.00    +0.267 C 
ENDROOT
BRANCH  14   9
ATOM      5  O   UNL     1      -6.064  -9.697  14.649  0.00  0.00    -0.252 OA
ATOM      9  N   UNL     1      -4.099 -10.399  15.643  0.00  0.00    -0.294 N 
ATOM     11  N   UNL     1      -6.003 -10.288  16.919  0.00  0.00    -0.267 N 
ATOM     22  C   UNL     1      -5.463 -10.088  15.646  0.00  0.00    +0.304 C 
ATOM     37  H   UNL     1      -3.692 -10.781  16.491  0.00  0.00    +0.151 HD
ATOM     39  H   UNL     1      -5.367 -10.616  17.642  0.00  0.00    +0.156 HD
BRANCH  11  28
ATOM      1  F   UNL     1      -7.330 -12.152  18.511  0.00  0.00    -0.203 F 
ATOM      2  F   UNL     1     -11.241  -9.489  18.550  0.00  0.00    -0.205 F 
ATOM     28  C   UNL     1      -7.340 -10.087  17.337  0.00  0.00    +0.070 A 
ATOM     32  C   UNL     1      -7.976 -11.040  18.133  0.00  0.00    +0.147 A 
ATOM     33  C   UNL     1      -8.022  -8.934  16.950  0.00  0.00    +0.029 A 
ATOM     34  C   UNL     1      -9.294 -10.838  18.543  0.00  0.00    +0.078 A 
ATOM     35  C   UNL     1      -9.340  -8.732  17.360  0.00  0.00    +0.040 A 
ATOM     36  C   UNL     1      -9.976  -9.684  18.156  0.00  0.00    +0.126 A 
ENDBRANCH  11  28
ENDBRANCH  14   9
BRANCH  19  23
ATOM     12  N   UNL     1      -1.160 -15.119  13.173  0.00  0.00    -0.247 NA
ATOM     13  N   UNL     1      -2.102 -16.683  15.301  0.00  0.00    -0.259 NA
ATOM     23  C   UNL     1      -2.349 -14.880  13.762  0.00  0.00    +0.144 A 
ATOM     27  C   UNL     1      -2.812 -15.649  14.807  0.00  0.00    +0.143 A 
ATOM     29  C   UNL     1      -0.450 -16.152  13.668  0.00  0.00    +0.131 A 
ATOM     30  C   UNL     1      -0.913 -16.920  14.713  0.00  0.00    +0.130 A 
ENDBRANCH  19  23
BRANCH  15  18
ATOM      3  O   UNL     1      -2.229 -10.346  11.778  0.00  0.00    -0.274 OA
ATOM     10  N   UNL     1      -4.328 -11.110  11.125  0.00  0.00    -0.301 N 
ATOM     18  C   UNL     1      -3.306 -10.877  12.031  0.00  0.00    +0.236 C 
ATOM     38  H   UNL     1      -5.154 -11.610  11.442  0.00  0.00    +0.150 HD
BRANCH  10  20
ATOM     20  C   UNL     1      -4.249 -10.746   9.732  0.00  0.00    +0.184 C 
BRANCH  20  21
ATOM     21  C   UNL     1      -5.351  -9.747   9.318  0.00  0.00    +0.014 C 
ATOM     25  C   UNL     1      -6.736 -10.240   9.750  0.00  0.00    +0.009 C 
ATOM     26  C   UNL     1      -5.113  -8.329   9.849  0.00  0.00    +0.009 C 
ENDBRANCH  20  21
BRANCH  20  24
ATOM      7  O   UNL     1      -4.094 -13.113   9.261  0.00  0.00    -0.249 OA
ATOM     24  C   UNL     1      -4.247 -11.975   8.829  0.00  0.00    +0.328 C 
BRANCH  24   6
ATOM      6  O   UNL     1      -4.433 -11.653   7.518  0.00  0.00    -0.467 OA
ATOM     31  C   UNL     1      -5.162 -12.607   6.739  0.00  0.00    +0.280 C 
ENDBRANCH  24   6
ENDBRANCH  20  24
ENDBRANCH  10  20
ENDBRANCH  15  18
TORSDOF 8
ENDMDL
MODEL 10
REMARK VINA RESULT:      -5.8      3.722      5.321
REMARK  Name = 7128122
REMARK  11 active torsions:
REMARK  status: ('A' for Active; 'I' for Inactive)
REMARK    1  A    between atoms: O_6  and  C_24
REMARK    2  A    between atoms: O_6  and  C_31
REMARK    3  A    between atoms: N_9  and  C_14
REMARK    4  A    between atoms: N_10  and  C_20
REMARK    5  A    between atoms: N_11  and  C_28
REMARK    6  A    between atoms: C_15  and  C_18
REMARK    7  A    between atoms: C_19  and  C_23
REMARK    8  A    between atoms: C_20  and  C_21
REMARK    9  A    between atoms: C_20  and  C_24
REMARK   10  A    between atoms: C_21  and  C_25
REMARK   11  A    between atoms: C_21  and  C_26
REMARK                            x       y       z     vdW  Elec       q    Type
REMARK                         _______ _______ _______ _____ _____    ______ ____
ROOT
ATOM      4  O   UNL     1      20.103  -4.940   1.068  0.00  0.00    -0.268 OA
ATOM      8  N   UNL     1      20.373  -6.553  -0.590  0.00  0.00    -0.283 N 
ATOM     14  C   UNL     1      20.536  -8.919  -0.559  0.00  0.00    +0.105 C 
ATOM     15  C   UNL     1      20.696  -7.664   0.299  0.00  0.00    +0.182 C 
ATOM     16  C   UNL     1      20.825  -8.421  -1.977  0.00  0.00    +0.043 C 
ATOM     17  C   UNL     1      20.279  -6.999  -1.981  0.00  0.00    +0.111 C 
ATOM     19  C   UNL     1      20.020  -5.302  -0.103  0.00  0.00    +0.267 C 
ENDROOT
BRANCH  14   9
ATOM      5  O   UNL     1      19.577 -10.799   1.378  0.00  0.00    -0.252 OA
ATOM      9  N   UNL     1      19.197  -9.451  -0.461  0.00  0.00    -0.294 N 
ATOM     11  N   UNL     1      17.461 -10.703   0.367  0.00  0.00    -0.267 N 
ATOM     22  C   UNL     1      18.809 -10.370   0.520  0.00  0.00    +0.304 C 
ATOM     37  H   UNL     1      18.486  -9.094  -1.092  0.00  0.00    +0.151 HD
ATOM     39  H   UNL     1      16.962 -10.259  -0.400  0.00  0.00    +0.156 HD
BRANCH  11  28
ATOM      1  F   UNL     1      16.642 -13.179  -0.617  0.00  0.00    -0.203 F 
ATOM      2  F   UNL     1      14.450 -14.188   3.453  0.00  0.00    -0.205 F 
ATOM     28  C   UNL     1      16.692 -11.594   1.152  0.00  0.00    +0.070 A 
ATOM     32  C   UNL     1      16.298 -12.826   0.630  0.00  0.00    +0.147 A 
ATOM     33  C   UNL     1      16.328 -11.238   2.450  0.00  0.00    +0.029 A 
ATOM     34  C   UNL     1      15.540 -13.703   1.407  0.00  0.00    +0.078 A 
ATOM     35  C   UNL     1      15.570 -12.115   3.227  0.00  0.00    +0.040 A 
ATOM     36  C   UNL     1      15.176 -13.346   2.706  0.00  0.00    +0.126 A 
ENDBRANCH  11  28
ENDBRANCH  14   9
BRANCH  19  23
ATOM     12  N   UNL     1      20.383  -3.473  -1.611  0.00  0.00    -0.247 NA
ATOM     13  N   UNL     1      17.662  -3.412  -2.289  0.00  0.00    -0.259 NA
ATOM     23  C   UNL     1      19.494  -4.330  -1.070  0.00  0.00    +0.144 A 
ATOM     27  C   UNL     1      18.157  -4.300  -1.403  0.00  0.00    +0.143 A 
ATOM     29  C   UNL     1      19.888  -2.586  -2.497  0.00  0.00    +0.131 A 
ATOM     30  C   UNL     1      18.552  -2.557  -2.829  0.00  0.00    +0.130 A 
ENDBRANCH  19  23
BRANCH  15  18
ATOM      3  O   UNL     1      23.051  -7.542  -0.068  0.00  0.00    -0.274 OA
ATOM     10  N   UNL     1      22.231  -7.211   2.085  0.00  0.00    -0.301 N 
ATOM     18  C   UNL     1      22.119  -7.463   0.727  0.00  0.00    +0.236 C 
ATOM     38  H   UNL     1      21.380  -7.113   2.632  0.00  0.00    +0.150 HD
BRANCH  10  20
ATOM     20  C   UNL     1      23.493  -7.004   2.750  0.00  0.00    +0.184 C 
BRANCH  20  21
ATOM     21  C   UNL     1      23.494  -7.542   4.198  0.00  0.00    +0.014 C 
ATOM     25  C   UNL     1      22.066  -7.733   4.719  0.00  0.00    +0.009 C 
ATOM     26  C   UNL     1      24.287  -8.844   4.359  0.00  0.00    +0.009 C 
ENDBRANCH  20  21
BRANCH  20  24
ATOM      7  O   UNL     1      23.130  -4.627   2.490  0.00  0.00    -0.249 OA
ATOM     24  C   UNL     1      23.920  -5.541   2.703  0.00  0.00    +0.328 C 
BRANCH  24   6
ATOM      6  O   UNL     1      25.257  -5.386   2.920  0.00  0.00    -0.467 OA
ATOM     31  C   UNL     1      26.103  -5.625   1.791  0.00  0.00    +0.280 C 
ENDBRANCH  24   6
ENDBRANCH  20  24
ENDBRANCH  10  20
ENDBRANCH  15  18
TORSDOF 8
ENDMDL
