MODEL 1
REMARK VINA RESULT:      -7.5      0.000      0.000
REMARK  Name = 26743574
REMARK  4 active torsions:
REMARK  status: ('A' for Active; 'I' for Inactive)
REMARK    1  A    between atoms: O_2  and  C_11
REMARK    2  A    between atoms: N_4  and  C_7
REMARK    3  A    between atoms: C_8  and  C_14
REMARK    4  A    between atoms: C_17  and  C_18
REMARK                            x       y       z     vdW  Elec       q    Type
REMARK                         _______ _______ _______ _____ _____    ______ ____
ROOT
ATOM      4  N   UNL     1      13.451   8.608  19.515  0.00  0.00    -0.286 NA
ATOM      8  C   UNL     1      13.945   7.576  18.581  0.00  0.00    +0.149 C 
ATOM      9  C   UNL     1      12.586   9.492  18.736  0.00  0.00    +0.116 C 
ATOM     10  C   UNL     1      13.935   8.259  17.199  0.00  0.00    +0.061 C 
ATOM     11  C   UNL     1      13.378   9.654  17.453  0.00  0.00    +0.130 C 
ENDROOT
BRANCH   4   7
ATOM      1  O   UNL     1      10.309   7.196  21.916  0.00  0.00    -0.380 OA
ATOM      7  C   UNL     1      12.763   8.052  20.678  0.00  0.00    +0.062 C 
ATOM     12  C   UNL     1      11.721   9.042  21.204  0.00  0.00    +0.047 C 
ATOM     13  C   UNL     1      12.094   6.717  20.337  0.00  0.00    +0.047 C 
ATOM     15  C   UNL     1      10.920   8.415  22.339  0.00  0.00    +0.161 C 
ATOM     16  C   UNL     1      11.273   6.219  21.521  0.00  0.00    +0.161 C 
ENDBRANCH   4   7
BRANCH   8  14
ATOM      3  O   UNL     1      15.771   5.986  18.255  0.00  0.00    -0.336 OA
ATOM      5  N   UNL     1      16.132   7.468  19.894  0.00  0.00    -0.190 NA
ATOM      6  N   UNL     1      17.032   5.682  18.784  0.00  0.00    -0.056 NA
ATOM     14  C   UNL     1      15.311   7.049  18.964  0.00  0.00    +0.245 A 
ATOM     17  C   UNL     1      17.173   6.599  19.745  0.00  0.00    +0.202 A 
BRANCH  17  18
ATOM     18  C   UNL     1      18.343   6.675  20.573  0.00  0.00    +0.022 A 
ATOM     19  C   UNL     1      19.363   5.736  20.425  0.00  0.00    +0.012 A 
ATOM     20  C   UNL     1      18.459   7.687  21.525  0.00  0.00    +0.012 A 
ATOM     21  C   UNL     1      20.500   5.809  21.229  0.00  0.00    +0.001 A 
ATOM     22  C   UNL     1      19.596   7.760  22.330  0.00  0.00    +0.001 A 
ATOM     23  C   UNL     1      20.617   6.821  22.182  0.00  0.00    +0.000 A 
ENDBRANCH  17  18
ENDBRANCH   8  14
BRANCH  11   2
ATOM      2  O   UNL     1      12.559  10.069  16.378  0.00  0.00    -0.390 OA
ATOM     24  H   UNL     1      13.128  10.154  15.593  0.00  0.00    +0.210 HD
ENDBRANCH  11   2
TORSDOF 4
ENDMDL
MODEL 2
REMARK VINA RESULT:      -6.2      4.114      5.933
REMARK  Name = 26743574
REMARK  4 active torsions:
REMARK  status: ('A' for Active; 'I' for Inactive)
REMARK    1  A    between atoms: O_2  and  C_11
REMARK    2  A    between atoms: N_4  and  C_7
REMARK    3  A    between atoms: C_8  and  C_14
REMARK    4  A    between atoms: C_17  and  C_18
REMARK                            x       y       z     vdW  Elec       q    Type
REMARK                         _______ _______ _______ _____ _____    ______ ____
ROOT
ATOM      4  N   UNL     1      11.551   8.530  20.989  0.00  0.00    -0.286 NA
ATOM      8  C   UNL     1      12.805   8.036  20.385  0.00  0.00    +0.149 C 
ATOM      9  C   UNL     1      11.085   7.480  21.893  0.00  0.00    +0.116 C 
ATOM     10  C   UNL     1      12.672   6.501  20.401  0.00  0.00    +0.061 C 
ATOM     11  C   UNL     1      11.332   6.229  21.073  0.00  0.00    +0.130 C 
ENDROOT
BRANCH   4   7
ATOM      1  O   UNL     1      12.242  11.269  24.096  0.00  0.00    -0.380 OA
ATOM      7  C   UNL     1      11.706   9.813  21.670  0.00  0.00    +0.062 C 
ATOM     12  C   UNL     1      10.672   9.948  22.792  0.00  0.00    +0.047 C 
ATOM     13  C   UNL     1      13.120   9.969  22.238  0.00  0.00    +0.047 C 
ATOM     15  C   UNL     1      10.910  11.230  23.581  0.00  0.00    +0.161 C 
ATOM     16  C   UNL     1      13.222  11.251  23.057  0.00  0.00    +0.161 C 
ENDBRANCH   4   7
BRANCH   8  14
ATOM      3  O   UNL     1      12.377   7.977  17.980  0.00  0.00    -0.336 OA
ATOM      5  N   UNL     1      13.801   9.584  18.615  0.00  0.00    -0.190 NA
ATOM      6  N   UNL     1      12.749   8.652  16.810  0.00  0.00    -0.056 NA
ATOM     14  C   UNL     1      13.040   8.589  18.996  0.00  0.00    +0.245 A 
ATOM     17  C   UNL     1      13.589   9.585  17.268  0.00  0.00    +0.202 A 
BRANCH  17  18
ATOM     18  C   UNL     1      14.233  10.533  16.405  0.00  0.00    +0.022 A 
ATOM     19  C   UNL     1      14.246  11.886  16.743  0.00  0.00    +0.012 A 
ATOM     20  C   UNL     1      14.845  10.102  15.228  0.00  0.00    +0.012 A 
ATOM     21  C   UNL     1      14.871  12.809  15.904  0.00  0.00    +0.001 A 
ATOM     22  C   UNL     1      15.471  11.025  14.389  0.00  0.00    +0.001 A 
ATOM     23  C   UNL     1      15.483  12.378  14.727  0.00  0.00    +0.000 A 
ENDBRANCH  17  18
ENDBRANCH   8  14
BRANCH  11   2
ATOM      2  O   UNL     1      11.404   5.073  21.885  0.00  0.00    -0.390 OA
ATOM     24  H   UNL     1      11.002   5.293  22.743  0.00  0.00    +0.210 HD
ENDBRANCH  11   2
TORSDOF 4
ENDMDL
MODEL 3
REMARK VINA RESULT:      -6.2     26.925     28.507
REMARK  Name = 26743574
REMARK  4 active torsions:
REMARK  status: ('A' for Active; 'I' for Inactive)
REMARK    1  A    between atoms: O_2  and  C_11
REMARK    2  A    between atoms: N_4  and  C_7
REMARK    3  A    between atoms: C_8  and  C_14
REMARK    4  A    between atoms: C_17  and  C_18
REMARK                            x       y       z     vdW  Elec       q    Type
REMARK                         _______ _______ _______ _____ _____    ______ ____
ROOT
ATOM      4  N   UNL     1      -7.310 -11.051  17.552  0.00  0.00    -0.286 NA
ATOM      8  C   UNL     1      -6.032 -10.325  17.407  0.00  0.00    +0.149 C 
ATOM      9  C   UNL     1      -7.516 -11.244  18.986  0.00  0.00    +0.116 C 
ATOM     10  C   UNL     1      -5.210 -10.723  18.648  0.00  0.00    +0.061 C 
ATOM     11  C   UNL     1      -6.127 -11.636  19.451  0.00  0.00    +0.130 C 
ENDROOT
BRANCH   4   7
ATOM      1  O   UNL     1     -10.753  -8.677  17.183  0.00  0.00    -0.380 OA
ATOM      7  C   UNL     1      -8.436 -10.365  16.922  0.00  0.00    +0.062 C 
ATOM     12  C   UNL     1      -9.759 -10.871  17.504  0.00  0.00    +0.047 C 
ATOM     13  C   UNL     1      -8.330  -8.848  17.102  0.00  0.00    +0.047 C 
ATOM     15  C   UNL     1     -10.927 -10.073  16.938  0.00  0.00    +0.161 C 
ATOM     16  C   UNL     1      -9.577  -8.162  16.557  0.00  0.00    +0.161 C 
ENDBRANCH   4   7
BRANCH   8  14
ATOM      3  O   UNL     1      -4.713 -11.858  16.035  0.00  0.00    -0.336 OA
ATOM      5  N   UNL     1      -5.205  -9.922  15.025  0.00  0.00    -0.190 NA
ATOM      6  N   UNL     1      -4.135 -11.926  14.760  0.00  0.00    -0.056 NA
ATOM     14  C   UNL     1      -5.324 -10.647  16.108  0.00  0.00    +0.245 A 
ATOM     17  C   UNL     1      -4.468 -10.748  14.227  0.00  0.00    +0.202 A 
BRANCH  17  18
ATOM     18  C   UNL     1      -4.083 -10.366  12.899  0.00  0.00    +0.022 A 
ATOM     19  C   UNL     1      -2.749 -10.465  12.505  0.00  0.00    +0.012 A 
ATOM     20  C   UNL     1      -5.042  -9.895  12.002  0.00  0.00    +0.012 A 
ATOM     21  C   UNL     1      -2.373 -10.093  11.215  0.00  0.00    +0.001 A 
ATOM     22  C   UNL     1      -4.666  -9.523  10.711  0.00  0.00    +0.001 A 
ATOM     23  C   UNL     1      -3.332  -9.622  10.317  0.00  0.00    +0.000 A 
ENDBRANCH  17  18
ENDBRANCH   8  14
BRANCH  11   2
ATOM      2  O   UNL     1      -5.957 -11.422  20.838  0.00  0.00    -0.390 OA
ATOM     24  H   UNL     1      -5.005 -11.484  21.029  0.00  0.00    +0.210 HD
ENDBRANCH  11   2
TORSDOF 4
ENDMDL
MODEL 4
REMARK VINA RESULT:      -6.2     16.961     20.031
REMARK  Name = 26743574
REMARK  4 active torsions:
REMARK  status: ('A' for Active; 'I' for Inactive)
REMARK    1  A    between atoms: O_2  and  C_11
REMARK    2  A    between atoms: N_4  and  C_7
REMARK    3  A    between atoms: C_8  and  C_14
REMARK    4  A    between atoms: C_17  and  C_18
REMARK                            x       y       z     vdW  Elec       q    Type
REMARK                         _______ _______ _______ _____ _____    ______ ____
ROOT
ATOM      4  N   UNL     1      13.338   4.404  -0.330  0.00  0.00    -0.286 NA
ATOM      8  C   UNL     1      13.487   3.952   1.068  0.00  0.00    +0.149 C 
ATOM      9  C   UNL     1      14.546   3.978  -1.035  0.00  0.00    +0.116 C 
ATOM     10  C   UNL     1      15.009   3.908   1.307  0.00  0.00    +0.061 C 
ATOM     11  C   UNL     1      15.629   4.307  -0.026  0.00  0.00    +0.130 C 
ENDROOT
BRANCH   4   7
ATOM      1  O   UNL     1      10.587   3.510  -3.373  0.00  0.00    -0.380 OA
ATOM      7  C   UNL     1      12.123   3.906  -0.971  0.00  0.00    +0.062 C 
ATOM     12  C   UNL     1      11.383   5.050  -1.669  0.00  0.00    +0.047 C 
ATOM     13  C   UNL     1      12.445   2.797  -1.977  0.00  0.00    +0.047 C 
ATOM     15  C   UNL     1      10.183   4.512  -2.440  0.00  0.00    +0.161 C 
ATOM     16  C   UNL     1      11.185   2.384  -2.730  0.00  0.00    +0.161 C 
ENDBRANCH   4   7
BRANCH   8  14
ATOM      3  O   UNL     1      13.406   5.993   2.409  0.00  0.00    -0.336 OA
ATOM      5  N   UNL     1      11.599   4.687   2.622  0.00  0.00    -0.190 NA
ATOM      6  N   UNL     1      12.557   6.647   3.312  0.00  0.00    -0.056 NA
ATOM     14  C   UNL     1      12.766   4.849   2.050  0.00  0.00    +0.245 A 
ATOM     17  C   UNL     1      11.515   5.815   3.386  0.00  0.00    +0.202 A 
BRANCH  17  18
ATOM     18  C   UNL     1      10.373   6.081   4.212  0.00  0.00    +0.022 A 
ATOM     19  C   UNL     1      10.245   5.449   5.448  0.00  0.00    +0.012 A 
ATOM     20  C   UNL     1       9.390   6.971   3.779  0.00  0.00    +0.012 A 
ATOM     21  C   UNL     1       9.135   5.706   6.252  0.00  0.00    +0.001 A 
ATOM     22  C   UNL     1       8.279   7.228   4.583  0.00  0.00    +0.001 A 
ATOM     23  C   UNL     1       8.151   6.596   5.819  0.00  0.00    +0.000 A 
ENDBRANCH  17  18
ENDBRANCH   8  14
BRANCH  11   2
ATOM      2  O   UNL     1      16.813   3.573  -0.267  0.00  0.00    -0.390 OA
ATOM     24  H   UNL     1      17.319   4.049  -0.948  0.00  0.00    +0.210 HD
ENDBRANCH  11   2
TORSDOF 4
ENDMDL
MODEL 5
REMARK VINA RESULT:      -6.1     25.179     28.493
REMARK  Name = 26743574
REMARK  4 active torsions:
REMARK  status: ('A' for Active; 'I' for Inactive)
REMARK    1  A    between atoms: O_2  and  C_11
REMARK    2  A    between atoms: N_4  and  C_7
REMARK    3  A    between atoms: C_8  and  C_14
REMARK    4  A    between atoms: C_17  and  C_18
REMARK                            x       y       z     vdW  Elec       q    Type
REMARK                         _______ _______ _______ _____ _____    ______ ____
ROOT
ATOM      4  N   UNL     1      -3.253 -10.526  14.281  0.00  0.00    -0.286 NA
ATOM      8  C   UNL     1      -3.500 -11.262  15.536  0.00  0.00    +0.149 C 
ATOM      9  C   UNL     1      -1.802 -10.400  14.152  0.00  0.00    +0.116 C 
ATOM     10  C   UNL     1      -2.285 -10.939  16.427  0.00  0.00    +0.061 C 
ATOM     11  C   UNL     1      -1.392 -10.053  15.569  0.00  0.00    +0.130 C 
ENDROOT
BRANCH   4   7
ATOM      1  O   UNL     1      -4.334 -11.154  10.272  0.00  0.00    -0.380 OA
ATOM      7  C   UNL     1      -3.856 -11.161  13.111  0.00  0.00    +0.062 C 
ATOM     12  C   UNL     1      -4.862 -10.215  12.451  0.00  0.00    +0.047 C 
ATOM     13  C   UNL     1      -2.787 -11.580  12.098  0.00  0.00    +0.047 C 
ATOM     15  C   UNL     1      -5.401 -10.827  11.163  0.00  0.00    +0.161 C 
ATOM     16  C   UNL     1      -3.440 -12.118  10.830  0.00  0.00    +0.161 C 
ENDBRANCH   4   7
BRANCH   8  14
ATOM      3  O   UNL     1      -5.331  -9.675  15.851  0.00  0.00    -0.336 OA
ATOM      5  N   UNL     1      -5.547 -11.565  17.032  0.00  0.00    -0.190 NA
ATOM      6  N   UNL     1      -6.531  -9.555  16.564  0.00  0.00    -0.056 NA
ATOM     14  C   UNL     1      -4.816 -10.888  16.183  0.00  0.00    +0.245 A 
ATOM     17  C   UNL     1      -6.588 -10.708  17.235  0.00  0.00    +0.202 A 
BRANCH  17  18
ATOM     18  C   UNL     1      -7.672 -11.034  18.117  0.00  0.00    +0.022 A 
ATOM     19  C   UNL     1      -7.578 -12.145  18.954  0.00  0.00    +0.012 A 
ATOM     20  C   UNL     1      -8.818 -10.241  18.137  0.00  0.00    +0.012 A 
ATOM     21  C   UNL     1      -8.631 -12.464  19.812  0.00  0.00    +0.001 A 
ATOM     22  C   UNL     1      -9.872 -10.559  18.994  0.00  0.00    +0.001 A 
ATOM     23  C   UNL     1      -9.778 -11.671  19.832  0.00  0.00    +0.000 A 
ENDBRANCH  17  18
ENDBRANCH   8  14
BRANCH  11   2
ATOM      2  O   UNL     1      -0.027 -10.338  15.806  0.00  0.00    -0.390 OA
ATOM     24  H   UNL     1       0.215  -9.924  16.652  0.00  0.00    +0.210 HD
ENDBRANCH  11   2
TORSDOF 4
ENDMDL
MODEL 6
REMARK VINA RESULT:      -6.0     17.408     20.550
REMARK  Name = 26743574
REMARK  4 active torsions:
REMARK  status: ('A' for Active; 'I' for Inactive)
REMARK    1  A    between atoms: O_2  and  C_11
REMARK    2  A    between atoms: N_4  and  C_7
REMARK    3  A    between atoms: C_8  and  C_14
REMARK    4  A    between atoms: C_17  and  C_18
REMARK                            x       y       z     vdW  Elec       q    Type
REMARK                         _______ _______ _______ _____ _____    ______ ____
ROOT
ATOM      4  N   UNL     1      13.052   4.202  -0.361  0.00  0.00    -0.286 NA
ATOM      8  C   UNL     1      12.996   3.483   0.927  0.00  0.00    +0.149 C 
ATOM      9  C   UNL     1      14.429   4.091  -0.839  0.00  0.00    +0.116 C 
ATOM     10  C   UNL     1      14.425   3.579   1.493  0.00  0.00    +0.061 C 
ATOM     11  C   UNL     1      15.220   4.329   0.432  0.00  0.00    +0.130 C 
ENDROOT
BRANCH   4   7
ATOM      1  O   UNL     1      10.897   3.917  -3.954  0.00  0.00    -0.380 OA
ATOM      7  C   UNL     1      12.088   3.706  -1.342  0.00  0.00    +0.062 C 
ATOM     12  C   UNL     1      11.079   4.800  -1.697  0.00  0.00    +0.047 C 
ATOM     13  C   UNL     1      12.795   3.213  -2.608  0.00  0.00    +0.047 C 
ATOM     15  C   UNL     1      10.149   4.325  -2.808  0.00  0.00    +0.161 C 
ATOM     16  C   UNL     1      11.770   2.824  -3.668  0.00  0.00    +0.161 C 
ENDBRANCH   4   7
BRANCH   8  14
ATOM      3  O   UNL     1      11.497   3.219   2.839  0.00  0.00    -0.336 OA
ATOM      5  N   UNL     1      11.414   5.243   1.886  0.00  0.00    -0.190 NA
ATOM      6  N   UNL     1      10.557   3.956   3.570  0.00  0.00    -0.056 NA
ATOM     14  C   UNL     1      11.954   4.051   1.867  0.00  0.00    +0.245 A 
ATOM     17  C   UNL     1      10.564   5.137   2.947  0.00  0.00    +0.202 A 
BRANCH  17  18
ATOM     18  C   UNL     1       9.735   6.232   3.361  0.00  0.00    +0.022 A 
ATOM     19  C   UNL     1       9.425   7.251   2.460  0.00  0.00    +0.012 A 
ATOM     20  C   UNL     1       9.240   6.279   4.664  0.00  0.00    +0.012 A 
ATOM     21  C   UNL     1       8.620   8.316   2.861  0.00  0.00    +0.001 A 
ATOM     22  C   UNL     1       8.434   7.346   5.066  0.00  0.00    +0.001 A 
ATOM     23  C   UNL     1       8.124   8.364   4.165  0.00  0.00    +0.000 A 
ENDBRANCH  17  18
ENDBRANCH   8  14
BRANCH  11   2
ATOM      2  O   UNL     1      16.535   3.818   0.336  0.00  0.00    -0.390 OA
ATOM     24  H   UNL     1      17.135   4.481   0.718  0.00  0.00    +0.210 HD
ENDBRANCH  11   2
TORSDOF 4
ENDMDL
MODEL 7
REMARK VINA RESULT:      -5.9     13.457     17.290
REMARK  Name = 26743574
REMARK  4 active torsions:
REMARK  status: ('A' for Active; 'I' for Inactive)
REMARK    1  A    between atoms: O_2  and  C_11
REMARK    2  A    between atoms: N_4  and  C_7
REMARK    3  A    between atoms: C_8  and  C_14
REMARK    4  A    between atoms: C_17  and  C_18
REMARK                            x       y       z     vdW  Elec       q    Type
REMARK                         _______ _______ _______ _____ _____    ______ ____
ROOT
ATOM      4  N   UNL     1      11.208   7.060   6.874  0.00  0.00    -0.286 NA
ATOM      8  C   UNL     1      10.282   6.516   5.860  0.00  0.00    +0.149 C 
ATOM      9  C   UNL     1      11.551   5.949   7.760  0.00  0.00    +0.116 C 
ATOM     10  C   UNL     1       9.578   5.338   6.562  0.00  0.00    +0.061 C 
ATOM     11  C   UNL     1      10.208   5.272   7.948  0.00  0.00    +0.130 C 
ENDROOT
BRANCH   4   7
ATOM      1  O   UNL     1      14.844   9.151   6.674  0.00  0.00    -0.380 OA
ATOM      7  C   UNL     1      12.394   7.687   6.294  0.00  0.00    +0.062 C 
ATOM     12  C   UNL     1      12.414   9.184   6.615  0.00  0.00    +0.047 C 
ATOM     13  C   UNL     1      13.675   7.023   6.807  0.00  0.00    +0.047 C 
ATOM     15  C   UNL     1      13.709   9.816   6.118  0.00  0.00    +0.161 C 
ATOM     16  C   UNL     1      14.900   7.774   6.297  0.00  0.00    +0.161 C 
ENDBRANCH   4   7
BRANCH   8  14
ATOM      3  O   UNL     1       8.943   8.529   6.214  0.00  0.00    -0.336 OA
ATOM      5  N   UNL     1       8.756   7.656   4.160  0.00  0.00    -0.190 NA
ATOM      6  N   UNL     1       8.053   9.357   5.518  0.00  0.00    -0.056 NA
ATOM     14  C   UNL     1       9.310   7.554   5.342  0.00  0.00    +0.245 A 
ATOM     17  C   UNL     1       7.994   8.777   4.316  0.00  0.00    +0.202 A 
BRANCH  17  18
ATOM     18  C   UNL     1       7.185   9.292   3.249  0.00  0.00    +0.022 A 
ATOM     19  C   UNL     1       5.973   9.920   3.535  0.00  0.00    +0.012 A 
ATOM     20  C   UNL     1       7.611   9.166   1.927  0.00  0.00    +0.012 A 
ATOM     21  C   UNL     1       5.185  10.421   2.499  0.00  0.00    +0.001 A 
ATOM     22  C   UNL     1       6.822   9.667   0.890  0.00  0.00    +0.001 A 
ATOM     23  C   UNL     1       5.610  10.294   1.176  0.00  0.00    +0.000 A 
ENDBRANCH  17  18
ENDBRANCH   8  14
BRANCH  11   2
ATOM      2  O   UNL     1      10.349   3.930   8.370  0.00  0.00    -0.390 OA
ATOM     24  H   UNL     1      11.085   3.899   9.005  0.00  0.00    +0.210 HD
ENDBRANCH  11   2
TORSDOF 4
ENDMDL
MODEL 8
REMARK VINA RESULT:      -5.9     22.771     26.021
REMARK  Name = 26743574
REMARK  4 active torsions:
REMARK  status: ('A' for Active; 'I' for Inactive)
REMARK    1  A    between atoms: O_2  and  C_11
REMARK    2  A    between atoms: N_4  and  C_7
REMARK    3  A    between atoms: C_8  and  C_14
REMARK    4  A    between atoms: C_17  and  C_18
REMARK                            x       y       z     vdW  Elec       q    Type
REMARK                         _______ _______ _______ _____ _____    ______ ____
ROOT
ATOM      4  N   UNL     1      -3.234   8.644   4.599  0.00  0.00    -0.286 NA
ATOM      8  C   UNL     1      -2.746   9.954   4.124  0.00  0.00    +0.149 C 
ATOM      9  C   UNL     1      -2.901   8.567   6.020  0.00  0.00    +0.116 C 
ATOM     10  C   UNL     1      -1.564  10.294   5.053  0.00  0.00    +0.061 C 
ATOM     11  C   UNL     1      -1.496   9.138   6.042  0.00  0.00    +0.130 C 
ENDROOT
BRANCH   4   7
ATOM      1  O   UNL     1      -7.273   7.818   5.395  0.00  0.00    -0.380 OA
ATOM      7  C   UNL     1      -4.661   8.438   4.357  0.00  0.00    +0.062 C 
ATOM     12  C   UNL     1      -5.068   7.018   4.757  0.00  0.00    +0.047 C 
ATOM     13  C   UNL     1      -5.503   9.462   5.124  0.00  0.00    +0.047 C 
ATOM     15  C   UNL     1      -6.576   6.841   4.621  0.00  0.00    +0.161 C 
ATOM     16  C   UNL     1      -6.987   9.149   4.967  0.00  0.00    +0.161 C 
ENDBRANCH   4   7
BRANCH   8  14
ATOM      3  O   UNL     1      -1.080   9.564   2.381  0.00  0.00    -0.336 OA
ATOM      5  N   UNL     1      -3.071  10.233   1.607  0.00  0.00    -0.190 NA
ATOM      6  N   UNL     1      -0.956   9.624   0.986  0.00  0.00    -0.056 NA
ATOM     14  C   UNL     1      -2.355   9.936   2.662  0.00  0.00    +0.245 A 
ATOM     17  C   UNL     1      -2.171  10.027   0.603  0.00  0.00    +0.202 A 
BRANCH  17  18
ATOM     18  C   UNL     1      -2.517  10.230  -0.774  0.00  0.00    +0.022 A 
ATOM     19  C   UNL     1      -1.522  10.521  -1.707  0.00  0.00    +0.012 A 
ATOM     20  C   UNL     1      -3.848  10.138  -1.179  0.00  0.00    +0.012 A 
ATOM     21  C   UNL     1      -1.858  10.720  -3.046  0.00  0.00    +0.001 A 
ATOM     22  C   UNL     1      -4.184  10.338  -2.519  0.00  0.00    +0.001 A 
ATOM     23  C   UNL     1      -3.189  10.628  -3.452  0.00  0.00    +0.000 A 
ENDBRANCH  17  18
ENDBRANCH   8  14
BRANCH  11   2
ATOM      2  O   UNL     1      -1.137   9.600   7.329  0.00  0.00    -0.390 OA
ATOM     24  H   UNL     1      -1.211   8.848   7.942  0.00  0.00    +0.210 HD
ENDBRANCH  11   2
TORSDOF 4
ENDMDL
MODEL 9
REMARK VINA RESULT:      -5.8     13.550     16.620
REMARK  Name = 26743574
REMARK  4 active torsions:
REMARK  status: ('A' for Active; 'I' for Inactive)
REMARK    1  A    between atoms: O_2  and  C_11
REMARK    2  A    between atoms: N_4  and  C_7
REMARK    3  A    between atoms: C_8  and  C_14
REMARK    4  A    between atoms: C_17  and  C_18
REMARK                            x       y       z     vdW  Elec       q    Type
REMARK                         _______ _______ _______ _____ _____    ______ ____
ROOT
ATOM      4  N   UNL     1       9.297   6.889   7.025  0.00  0.00    -0.286 NA
ATOM      8  C   UNL     1      10.769   6.891   6.917  0.00  0.00    +0.149 C 
ATOM      9  C   UNL     1       8.982   6.441   8.380  0.00  0.00    +0.116 C 
ATOM     10  C   UNL     1      11.239   5.815   7.916  0.00  0.00    +0.061 C 
ATOM     11  C   UNL     1       9.962   5.300   8.568  0.00  0.00    +0.130 C 
ENDROOT
BRANCH   4   7
ATOM      1  O   UNL     1       8.697  10.597   5.148  0.00  0.00    -0.380 OA
ATOM      7  C   UNL     1       8.695   8.186   6.721  0.00  0.00    +0.062 C 
ATOM     12  C   UNL     1       9.712   9.309   6.942  0.00  0.00    +0.047 C 
ATOM     13  C   UNL     1       8.172   8.227   5.282  0.00  0.00    +0.047 C 
ATOM     15  C   UNL     1       9.125  10.648   6.509  0.00  0.00    +0.161 C 
ATOM     16  C   UNL     1       7.671   9.626   4.941  0.00  0.00    +0.161 C 
ENDBRANCH   4   7
BRANCH   8  14
ATOM      3  O   UNL     1      12.338   7.332   5.096  0.00  0.00    -0.336 OA
ATOM      5  N   UNL     1      10.768   5.814   4.601  0.00  0.00    -0.190 NA
ATOM      6  N   UNL     1      12.589   6.926   3.778  0.00  0.00    -0.056 NA
ATOM     14  C   UNL     1      11.250   6.628   5.506  0.00  0.00    +0.245 A 
ATOM     17  C   UNL     1      11.622   6.031   3.560  0.00  0.00    +0.202 A 
BRANCH  17  18
ATOM     18  C   UNL     1      11.482   5.335   2.313  0.00  0.00    +0.022 A 
ATOM     19  C   UNL     1      12.479   4.457   1.890  0.00  0.00    +0.012 A 
ATOM     20  C   UNL     1      10.349   5.538   1.525  0.00  0.00    +0.012 A 
ATOM     21  C   UNL     1      12.344   3.781   0.677  0.00  0.00    +0.001 A 
ATOM     22  C   UNL     1      10.215   4.862   0.311  0.00  0.00    +0.001 A 
ATOM     23  C   UNL     1      11.211   3.983  -0.112  0.00  0.00    +0.000 A 
ENDBRANCH  17  18
ENDBRANCH   8  14
BRANCH  11   2
ATOM      2  O   UNL     1      10.179   5.013   9.935  0.00  0.00    -0.390 OA
ATOM     24  H   UNL     1      10.123   5.853  10.423  0.00  0.00    +0.210 HD
ENDBRANCH  11   2
TORSDOF 4
ENDMDL
MODEL 10
REMARK VINA RESULT:      -5.8      4.341      9.469
REMARK  Name = 26743574
REMARK  4 active torsions:
REMARK  status: ('A' for Active; 'I' for Inactive)
REMARK    1  A    between atoms: O_2  and  C_11
REMARK    2  A    between atoms: N_4  and  C_7
REMARK    3  A    between atoms: C_8  and  C_14
REMARK    4  A    between atoms: C_17  and  C_18
REMARK                            x       y       z     vdW  Elec       q    Type
REMARK                         _______ _______ _______ _____ _____    ______ ____
ROOT
ATOM      4  N   UNL     1      22.915   5.636  21.224  0.00  0.00    -0.286 NA
ATOM      8  C   UNL     1      21.706   5.469  22.055  0.00  0.00    +0.149 C 
ATOM      9  C   UNL     1      23.952   6.171  22.104  0.00  0.00    +0.116 C 
ATOM     10  C   UNL     1      21.844   6.526  23.168  0.00  0.00    +0.061 C 
ATOM     11  C   UNL     1      23.182   7.205  22.902  0.00  0.00    +0.130 C 
ENDROOT
BRANCH   4   7
ATOM      1  O   UNL     1      25.175   2.192  20.411  0.00  0.00    -0.380 OA
ATOM      7  C   UNL     1      23.336   4.402  20.564  0.00  0.00    +0.062 C 
ATOM     12  C   UNL     1      24.755   4.553  20.011  0.00  0.00    +0.047 C 
ATOM     13  C   UNL     1      23.272   3.212  21.527  0.00  0.00    +0.047 C 
ATOM     15  C   UNL     1      25.242   3.229  19.432  0.00  0.00    +0.161 C 
ATOM     16  C   UNL     1      23.840   1.963  20.863  0.00  0.00    +0.161 C 
ENDBRANCH   4   7
BRANCH   8  14
ATOM      3  O   UNL     1      20.191   4.679  20.308  0.00  0.00    -0.336 OA
ATOM      5  N   UNL     1      19.496   6.535  21.350  0.00  0.00    -0.190 NA
ATOM      6  N   UNL     1      18.969   5.024  19.715  0.00  0.00    -0.056 NA
ATOM     14  C   UNL     1      20.427   5.619  21.260  0.00  0.00    +0.245 A 
ATOM     17  C   UNL     1      18.623   6.128  20.383  0.00  0.00    +0.202 A 
BRANCH  17  18
ATOM     18  C   UNL     1      17.412   6.847  20.110  0.00  0.00    +0.022 A 
ATOM     19  C   UNL     1      16.447   6.292  19.271  0.00  0.00    +0.012 A 
ATOM     20  C   UNL     1      17.201   8.101  20.683  0.00  0.00    +0.012 A 
ATOM     21  C   UNL     1      15.270   6.990  19.003  0.00  0.00    +0.001 A 
ATOM     22  C   UNL     1      16.023   8.800  20.416  0.00  0.00    +0.001 A 
ATOM     23  C   UNL     1      15.057   8.245  19.577  0.00  0.00    +0.000 A 
ENDBRANCH  17  18
ENDBRANCH   8  14
BRANCH  11   2
ATOM      2  O   UNL     1      23.832   7.522  24.117  0.00  0.00    -0.390 OA
ATOM     24  H   UNL     1      23.269   8.157  24.593  0.00  0.00    +0.210 HD
ENDBRANCH  11   2
TORSDOF 4
ENDMDL
