MODEL 1
REMARK VINA RESULT:      -7.2      0.000      0.000
REMARK  Name = 45361409
REMARK  10 active torsions:
REMARK  status: ('A' for Active; 'I' for Inactive)
REMARK    1  A    between atoms: O_2  and  C_10
REMARK    2  A    between atoms: N_5  and  C_14
REMARK    3  A    between atoms: N_6  and  C_24
REMARK    4  A    between atoms: C_7  and  C_17
REMARK    5  A    between atoms: C_9  and  C_19
REMARK    6  A    between atoms: C_13  and  C_18
REMARK    7  A    between atoms: C_18  and  C_20
REMARK    8  A    between atoms: C_18  and  C_21
REMARK    9  A    between atoms: C_22  and  C_23
REMARK   10  A    between atoms: C_24  and  C_27
REMARK                            x       y       z     vdW  Elec       q    Type
REMARK                         _______ _______ _______ _____ _____    ______ ____
ROOT
ATOM      7  C   UNL     1      -4.641 -11.029  16.951  0.00  0.00    -0.027 C 
ATOM      8  C   UNL     1      -5.441 -10.414  15.754  0.00  0.00    +0.028 C 
ATOM      9  C   UNL     1      -6.988 -10.523  16.001  0.00  0.00    +0.012 C 
ATOM     10  C   UNL     1      -4.941 -10.978  14.393  0.00  0.00    +0.122 C 
ATOM     11  C   UNL     1      -3.127 -10.805  16.728  0.00  0.00    +0.007 C 
ATOM     12  C   UNL     1      -5.039 -10.297  18.252  0.00  0.00    +0.009 C 
ATOM     13  C   UNL     1      -3.409 -10.845  14.221  0.00  0.00    +0.029 C 
ATOM     14  C   UNL     1      -7.366  -9.848  17.351  0.00  0.00    +0.076 C 
ATOM     15  C   UNL     1      -2.625 -11.391  15.415  0.00  0.00    +0.007 C 
ATOM     16  C   UNL     1      -6.534 -10.345  18.533  0.00  0.00    +0.023 C 
ATOM     17  C   UNL     1      -4.900 -12.548  17.120  0.00  0.00    +0.011 C 
ATOM     19  C   UNL     1      -7.836  -9.909  14.875  0.00  0.00    +0.010 C 
ENDROOT
BRANCH  14   5
ATOM      4  O   UNL     1      -9.402  -7.823  17.347  0.00  0.00    -0.270 OA
ATOM      5  N   UNL     1      -8.768 -10.030  17.667  0.00  0.00    -0.308 N 
ATOM     22  C   UNL     1      -9.675  -8.985  17.637  0.00  0.00    +0.244 C 
ATOM     34  H   UNL     1      -9.041 -10.938  18.027  0.00  0.00    +0.149 HD
BRANCH  22  23
ATOM     23  C   UNL     1     -11.069  -9.330  18.013  0.00  0.00    +0.037 A 
ATOM     25  C   UNL     1     -11.334  -9.922  19.248  0.00  0.00    +0.013 A 
ATOM     26  C   UNL     1     -12.117  -9.061  17.131  0.00  0.00    +0.013 A 
ATOM     28  C   UNL     1     -12.643 -10.246  19.602  0.00  0.00    +0.001 A 
ATOM     29  C   UNL     1     -13.427  -9.384  17.484  0.00  0.00    +0.001 A 
ATOM     30  C   UNL     1     -13.691  -9.976  18.719  0.00  0.00    +0.000 A 
ENDBRANCH  22  23
ENDBRANCH  14   5
BRANCH  10   2
ATOM      2  O   UNL     1      -5.537 -10.241  13.324  0.00  0.00    -0.391 OA
ATOM     35  H   UNL     1      -5.143  -9.352  13.312  0.00  0.00    +0.210 HD
ENDBRANCH  10   2
BRANCH  13  18
ATOM     18  C   UNL     1      -2.920 -11.522  12.935  0.00  0.00    +0.077 C 
ATOM     20  C   UNL     1      -1.735 -12.432  13.237  0.00  0.00    +0.017 C 
BRANCH  18  21
ATOM      3  O   UNL     1      -1.457  -9.922  11.856  0.00  0.00    -0.276 OA
ATOM      6  N   UNL     1      -3.605 -10.197  11.024  0.00  0.00    -0.310 N 
ATOM     21  C   UNL     1      -2.560 -10.465  11.895  0.00  0.00    +0.216 C 
ATOM     36  H   UNL     1      -4.492 -10.675  11.147  0.00  0.00    +0.149 HD
BRANCH   6  24
ATOM     24  C   UNL     1      -3.503  -9.230   9.955  0.00  0.00    +0.146 C 
BRANCH  24  27
ATOM      1  S   UNL     1      -5.208  -9.951   7.884  0.00  0.00    -0.100 S 
ATOM     27  C   UNL     1      -4.819  -9.015   9.265  0.00  0.00    +0.007 A 
ATOM     31  C   UNL     1      -5.822  -8.129   9.588  0.00  0.00    +0.013 A 
ATOM     32  C   UNL     1      -6.925  -8.219   8.691  0.00  0.00    +0.008 A 
ATOM     33  C   UNL     1      -6.723  -9.171   7.716  0.00  0.00    +0.045 A 
ENDBRANCH  24  27
ENDBRANCH   6  24
ENDBRANCH  18  21
ENDBRANCH  13  18
TORSDOF 7
ENDMDL
MODEL 2
REMARK VINA RESULT:      -7.1     18.141     19.448
REMARK  Name = 45361409
REMARK  10 active torsions:
REMARK  status: ('A' for Active; 'I' for Inactive)
REMARK    1  A    between atoms: O_2  and  C_10
REMARK    2  A    between atoms: N_5  and  C_14
REMARK    3  A    between atoms: N_6  and  C_24
REMARK    4  A    between atoms: C_7  and  C_17
REMARK    5  A    between atoms: C_9  and  C_19
REMARK    6  A    between atoms: C_13  and  C_18
REMARK    7  A    between atoms: C_18  and  C_20
REMARK    8  A    between atoms: C_18  and  C_21
REMARK    9  A    between atoms: C_22  and  C_23
REMARK   10  A    between atoms: C_24  and  C_27
REMARK                            x       y       z     vdW  Elec       q    Type
REMARK                         _______ _______ _______ _____ _____    ______ ____
ROOT
ATOM      7  C   UNL     1     -14.994   7.520  20.584  0.00  0.00    -0.027 C 
ATOM      8  C   UNL     1     -13.775   6.602  20.931  0.00  0.00    +0.028 C 
ATOM      9  C   UNL     1     -14.000   5.866  22.301  0.00  0.00    +0.012 C 
ATOM     10  C   UNL     1     -12.431   7.377  20.802  0.00  0.00    +0.122 C 
ATOM     11  C   UNL     1     -14.791   8.140  19.182  0.00  0.00    +0.007 C 
ATOM     12  C   UNL     1     -16.276   6.658  20.537  0.00  0.00    +0.009 C 
ATOM     13  C   UNL     1     -12.280   8.081  19.433  0.00  0.00    +0.029 C 
ATOM     14  C   UNL     1     -15.331   5.063  22.267  0.00  0.00    +0.076 C 
ATOM     15  C   UNL     1     -13.495   8.932  19.064  0.00  0.00    +0.007 C 
ATOM     16  C   UNL     1     -16.534   5.899  21.831  0.00  0.00    +0.023 C 
ATOM     17  C   UNL     1     -15.186   8.665  21.611  0.00  0.00    +0.011 C 
ATOM     19  C   UNL     1     -12.850   4.923  22.689  0.00  0.00    +0.010 C 
ENDROOT
BRANCH  14   5
ATOM      4  O   UNL     1     -16.510   2.486  22.728  0.00  0.00    -0.270 OA
ATOM      5  N   UNL     1     -15.629   4.466  23.552  0.00  0.00    -0.308 N 
ATOM     22  C   UNL     1     -16.202   3.211  23.670  0.00  0.00    +0.244 C 
ATOM     34  H   UNL     1     -15.508   5.055  24.369  0.00  0.00    +0.149 HD
BRANCH  22  23
ATOM     23  C   UNL     1     -16.469   2.752  25.057  0.00  0.00    +0.037 A 
ATOM     25  C   UNL     1     -16.172   3.583  26.137  0.00  0.00    +0.013 A 
ATOM     26  C   UNL     1     -17.020   1.490  25.280  0.00  0.00    +0.013 A 
ATOM     28  C   UNL     1     -16.423   3.152  27.439  0.00  0.00    +0.001 A 
ATOM     29  C   UNL     1     -17.273   1.058  26.582  0.00  0.00    +0.001 A 
ATOM     30  C   UNL     1     -16.975   1.889  27.662  0.00  0.00    +0.000 A 
ENDBRANCH  22  23
ENDBRANCH  14   5
BRANCH  10   2
ATOM      2  O   UNL     1     -11.340   6.461  20.912  0.00  0.00    -0.391 OA
ATOM     35  H   UNL     1     -11.095   6.393  21.851  0.00  0.00    +0.210 HD
ENDBRANCH  10   2
BRANCH  13  18
ATOM     18  C   UNL     1     -11.014   8.944  19.375  0.00  0.00    +0.077 C 
ATOM     20  C   UNL     1     -11.234  10.252  20.125  0.00  0.00    +0.017 C 
BRANCH  18  21
ATOM      3  O   UNL     1     -10.194  10.278  17.527  0.00  0.00    -0.276 OA
ATOM      6  N   UNL     1     -10.810   8.079  17.120  0.00  0.00    -0.310 N 
ATOM     21  C   UNL     1     -10.623   9.195  17.921  0.00  0.00    +0.216 C 
ATOM     36  H   UNL     1     -11.195   7.232  17.525  0.00  0.00    +0.149 HD
BRANCH   6  24
ATOM     24  C   UNL     1     -10.512   8.074  15.706  0.00  0.00    +0.146 C 
BRANCH  24  27
ATOM      1  S   UNL     1     -11.575   8.512  13.177  0.00  0.00    -0.100 S 
ATOM     27  C   UNL     1     -11.733   8.337  14.874  0.00  0.00    +0.007 A 
ATOM     31  C   UNL     1     -13.041   8.468  15.286  0.00  0.00    +0.013 A 
ATOM     32  C   UNL     1     -13.924   8.716  14.196  0.00  0.00    +0.008 A 
ATOM     33  C   UNL     1     -13.258   8.764  12.991  0.00  0.00    +0.045 A 
ENDBRANCH  24  27
ENDBRANCH   6  24
ENDBRANCH  18  21
ENDBRANCH  13  18
TORSDOF 7
ENDMDL
MODEL 3
REMARK VINA RESULT:      -6.9     24.169     27.222
REMARK  Name = 45361409
REMARK  10 active torsions:
REMARK  status: ('A' for Active; 'I' for Inactive)
REMARK    1  A    between atoms: O_2  and  C_10
REMARK    2  A    between atoms: N_5  and  C_14
REMARK    3  A    between atoms: N_6  and  C_24
REMARK    4  A    between atoms: C_7  and  C_17
REMARK    5  A    between atoms: C_9  and  C_19
REMARK    6  A    between atoms: C_13  and  C_18
REMARK    7  A    between atoms: C_18  and  C_20
REMARK    8  A    between atoms: C_18  and  C_21
REMARK    9  A    between atoms: C_22  and  C_23
REMARK   10  A    between atoms: C_24  and  C_27
REMARK                            x       y       z     vdW  Elec       q    Type
REMARK                         _______ _______ _______ _____ _____    ______ ____
ROOT
ATOM      7  C   UNL     1      13.740   4.889   0.621  0.00  0.00    -0.027 C 
ATOM      8  C   UNL     1      12.186   4.774   0.478  0.00  0.00    +0.028 C 
ATOM      9  C   UNL     1      11.502   4.657   1.887  0.00  0.00    +0.012 C 
ATOM     10  C   UNL     1      11.796   3.670  -0.547  0.00  0.00    +0.122 C 
ATOM     11  C   UNL     1      14.372   5.115  -0.773  0.00  0.00    +0.007 C 
ATOM     12  C   UNL     1      14.075   6.120   1.494  0.00  0.00    +0.009 C 
ATOM     13  C   UNL     1      12.512   3.842  -1.908  0.00  0.00    +0.029 C 
ATOM     14  C   UNL     1      11.906   5.862   2.783  0.00  0.00    +0.076 C 
ATOM     15  C   UNL     1      14.024   4.016  -1.768  0.00  0.00    +0.007 C 
ATOM     16  C   UNL     1      13.417   6.077   2.866  0.00  0.00    +0.023 C 
ATOM     17  C   UNL     1      14.374   3.625   1.256  0.00  0.00    +0.011 C 
ATOM     19  C   UNL     1       9.968   4.568   1.821  0.00  0.00    +0.010 C 
ENDROOT
BRANCH  14   5
ATOM      4  O   UNL     1       9.918   7.519   4.025  0.00  0.00    -0.270 OA
ATOM      5  N   UNL     1      11.387   5.729   4.128  0.00  0.00    -0.308 N 
ATOM     22  C   UNL     1      10.424   6.583   4.637  0.00  0.00    +0.244 C 
ATOM     34  H   UNL     1      11.842   5.050   4.729  0.00  0.00    +0.149 HD
BRANCH  22  23
ATOM     23  C   UNL     1      10.015   6.329   6.042  0.00  0.00    +0.037 A 
ATOM     25  C   UNL     1       9.429   7.348   6.794  0.00  0.00    +0.013 A 
ATOM     26  C   UNL     1      10.216   5.071   6.611  0.00  0.00    +0.013 A 
ATOM     28  C   UNL     1       9.044   7.110   8.113  0.00  0.00    +0.001 A 
ATOM     29  C   UNL     1       9.831   4.832   7.930  0.00  0.00    +0.001 A 
ATOM     30  C   UNL     1       9.245   5.851   8.681  0.00  0.00    +0.000 A 
ENDBRANCH  22  23
ENDBRANCH  14   5
BRANCH  10   2
ATOM      2  O   UNL     1      10.394   3.739  -0.812  0.00  0.00    -0.391 OA
ATOM     35  H   UNL     1      10.272   4.111  -1.703  0.00  0.00    +0.210 HD
ENDBRANCH  10   2
BRANCH  13  18
ATOM     18  C   UNL     1      12.216   2.675  -2.858  0.00  0.00    +0.077 C 
ATOM     20  C   UNL     1      13.063   2.797  -4.119  0.00  0.00    +0.017 C 
BRANCH  18  21
ATOM      3  O   UNL     1       9.993   1.713  -2.848  0.00  0.00    -0.276 OA
ATOM      6  N   UNL     1      10.314   3.752  -3.907  0.00  0.00    -0.310 N 
ATOM     21  C   UNL     1      10.726   2.639  -3.189  0.00  0.00    +0.216 C 
ATOM     36  H   UNL     1      10.995   4.457  -4.169  0.00  0.00    +0.149 HD
BRANCH   6  24
ATOM     24  C   UNL     1       8.948   3.942  -4.337  0.00  0.00    +0.146 C 
BRANCH  24  27
ATOM      1  S   UNL     1       6.897   5.812  -4.451  0.00  0.00    -0.100 S 
ATOM     27  C   UNL     1       8.359   5.210  -3.790  0.00  0.00    +0.007 A 
ATOM     31  C   UNL     1       8.839   6.014  -2.781  0.00  0.00    +0.013 A 
ATOM     32  C   UNL     1       7.997   7.139  -2.546  0.00  0.00    +0.008 A 
ATOM     33  C   UNL     1       6.905   7.152  -3.385  0.00  0.00    +0.045 A 
ENDBRANCH  24  27
ENDBRANCH   6  24
ENDBRANCH  18  21
ENDBRANCH  13  18
TORSDOF 7
ENDMDL
MODEL 4
REMARK VINA RESULT:      -6.8      3.398      8.568
REMARK  Name = 45361409
REMARK  10 active torsions:
REMARK  status: ('A' for Active; 'I' for Inactive)
REMARK    1  A    between atoms: O_2  and  C_10
REMARK    2  A    between atoms: N_5  and  C_14
REMARK    3  A    between atoms: N_6  and  C_24
REMARK    4  A    between atoms: C_7  and  C_17
REMARK    5  A    between atoms: C_9  and  C_19
REMARK    6  A    between atoms: C_13  and  C_18
REMARK    7  A    between atoms: C_18  and  C_20
REMARK    8  A    between atoms: C_18  and  C_21
REMARK    9  A    between atoms: C_22  and  C_23
REMARK   10  A    between atoms: C_24  and  C_27
REMARK                            x       y       z     vdW  Elec       q    Type
REMARK                         _______ _______ _______ _____ _____    ______ ____
ROOT
ATOM      7  C   UNL     1      -3.206 -11.433  11.799  0.00  0.00    -0.027 C 
ATOM      8  C   UNL     1      -4.538 -10.914  12.434  0.00  0.00    +0.028 C 
ATOM      9  C   UNL     1      -5.299  -9.965  11.439  0.00  0.00    +0.012 C 
ATOM     10  C   UNL     1      -4.295 -10.332  13.856  0.00  0.00    +0.122 C 
ATOM     11  C   UNL     1      -2.540 -12.450  12.756  0.00  0.00    +0.007 C 
ATOM     12  C   UNL     1      -3.531 -12.172  10.480  0.00  0.00    +0.009 C 
ATOM     13  C   UNL     1      -3.536 -11.316  14.778  0.00  0.00    +0.029 C 
ATOM     14  C   UNL     1      -5.554 -10.694  10.089  0.00  0.00    +0.076 C 
ATOM     15  C   UNL     1      -2.264 -11.872  14.138  0.00  0.00    +0.007 C 
ATOM     16  C   UNL     1      -4.293 -11.310   9.484  0.00  0.00    +0.023 C 
ATOM     17  C   UNL     1      -2.201 -10.290  11.508  0.00  0.00    +0.011 C 
ATOM     19  C   UNL     1      -6.635  -9.440  11.990  0.00  0.00    +0.010 C 
ENDROOT
BRANCH  14   5
ATOM      4  O   UNL     1      -7.669 -11.345   8.260  0.00  0.00    -0.270 OA
ATOM      5  N   UNL     1      -6.151  -9.812   9.108  0.00  0.00    -0.308 N 
ATOM     22  C   UNL     1      -7.171 -10.222   8.267  0.00  0.00    +0.244 C 
ATOM     34  H   UNL     1      -5.711  -8.907   8.980  0.00  0.00    +0.149 HD
BRANCH  22  23
ATOM     23  C   UNL     1      -7.656  -9.207   7.298  0.00  0.00    +0.037 A 
ATOM     25  C   UNL     1      -8.613  -8.270   7.690  0.00  0.00    +0.013 A 
ATOM     26  C   UNL     1      -7.153  -9.187   5.997  0.00  0.00    +0.013 A 
ATOM     28  C   UNL     1      -9.069  -7.316   6.780  0.00  0.00    +0.001 A 
ATOM     29  C   UNL     1      -7.607  -8.232   5.088  0.00  0.00    +0.001 A 
ATOM     30  C   UNL     1      -8.565  -7.297   5.479  0.00  0.00    +0.000 A 
ENDBRANCH  22  23
ENDBRANCH  14   5
BRANCH  10   2
ATOM      2  O   UNL     1      -5.550 -10.070  14.486  0.00  0.00    -0.391 OA
ATOM     35  H   UNL     1      -6.212  -9.915  13.789  0.00  0.00    +0.210 HD
ENDBRANCH  10   2
BRANCH  13  18
ATOM     18  C   UNL     1      -3.191 -10.677  16.130  0.00  0.00    +0.077 C 
ATOM     20  C   UNL     1      -1.682 -10.672  16.339  0.00  0.00    +0.017 C 
BRANCH  18  21
ATOM      3  O   UNL     1      -3.499 -11.422  18.414  0.00  0.00    -0.276 OA
ATOM      6  N   UNL     1      -5.042 -12.085  16.814  0.00  0.00    -0.310 N 
ATOM     21  C   UNL     1      -3.906 -11.422  17.253  0.00  0.00    +0.216 C 
ATOM     36  H   UNL     1      -5.290 -12.053  15.830  0.00  0.00    +0.149 HD
BRANCH   6  24
ATOM     24  C   UNL     1      -5.884 -12.861  17.695  0.00  0.00    +0.146 C 
BRANCH  24  27
ATOM      1  S   UNL     1      -7.865 -12.547  19.617  0.00  0.00    -0.100 S 
ATOM     27  C   UNL     1      -7.069 -12.075  18.174  0.00  0.00    +0.007 A 
ATOM     31  C   UNL     1      -7.654 -10.968  17.601  0.00  0.00    +0.013 A 
ATOM     32  C   UNL     1      -8.769 -10.500  18.354  0.00  0.00    +0.008 A 
ATOM     33  C   UNL     1      -8.994 -11.267  19.475  0.00  0.00    +0.045 A 
ENDBRANCH  24  27
ENDBRANCH   6  24
ENDBRANCH  18  21
ENDBRANCH  13  18
TORSDOF 7
ENDMDL
MODEL 5
REMARK VINA RESULT:      -6.7     24.929     26.885
REMARK  Name = 45361409
REMARK  10 active torsions:
REMARK  status: ('A' for Active; 'I' for Inactive)
REMARK    1  A    between atoms: O_2  and  C_10
REMARK    2  A    between atoms: N_5  and  C_14
REMARK    3  A    between atoms: N_6  and  C_24
REMARK    4  A    between atoms: C_7  and  C_17
REMARK    5  A    between atoms: C_9  and  C_19
REMARK    6  A    between atoms: C_13  and  C_18
REMARK    7  A    between atoms: C_18  and  C_20
REMARK    8  A    between atoms: C_18  and  C_21
REMARK    9  A    between atoms: C_22  and  C_23
REMARK   10  A    between atoms: C_24  and  C_27
REMARK                            x       y       z     vdW  Elec       q    Type
REMARK                         _______ _______ _______ _____ _____    ______ ____
ROOT
ATOM      7  C   UNL     1       9.564   6.160   5.859  0.00  0.00    -0.027 C 
ATOM      8  C   UNL     1      10.432   7.397   5.453  0.00  0.00    +0.028 C 
ATOM      9  C   UNL     1       9.877   8.711   6.112  0.00  0.00    +0.012 C 
ATOM     10  C   UNL     1      10.638   7.459   3.912  0.00  0.00    +0.122 C 
ATOM     11  C   UNL     1      10.201   4.872   5.287  0.00  0.00    +0.007 C 
ATOM     12  C   UNL     1       9.553   6.036   7.399  0.00  0.00    +0.009 C 
ATOM     13  C   UNL     1      11.179   6.131   3.331  0.00  0.00    +0.029 C 
ATOM     14  C   UNL     1       9.800   8.547   7.656  0.00  0.00    +0.076 C 
ATOM     15  C   UNL     1      10.369   4.913   3.774  0.00  0.00    +0.007 C 
ATOM     16  C   UNL     1       9.048   7.291   8.097  0.00  0.00    +0.023 C 
ATOM     17  C   UNL     1       8.105   6.264   5.345  0.00  0.00    +0.011 C 
ATOM     19  C   UNL     1      10.702   9.964   5.777  0.00  0.00    +0.010 C 
ENDROOT
BRANCH  14   5
ATOM      4  O   UNL     1      11.134  10.597   9.159  0.00  0.00    -0.270 OA
ATOM      5  N   UNL     1       9.184   9.696   8.287  0.00  0.00    -0.308 N 
ATOM     22  C   UNL     1       9.917  10.633   8.994  0.00  0.00    +0.244 C 
ATOM     34  H   UNL     1       8.170   9.727   8.289  0.00  0.00    +0.149 HD
BRANCH  22  23
ATOM     23  C   UNL     1       9.134  11.738   9.604  0.00  0.00    +0.037 A 
ATOM     25  C   UNL     1       8.612  12.751   8.799  0.00  0.00    +0.013 A 
ATOM     26  C   UNL     1       8.919  11.762  10.982  0.00  0.00    +0.013 A 
ATOM     28  C   UNL     1       7.877  13.788   9.371  0.00  0.00    +0.001 A 
ATOM     29  C   UNL     1       8.182  12.799  11.555  0.00  0.00    +0.001 A 
ATOM     30  C   UNL     1       7.661  13.812  10.750  0.00  0.00    +0.000 A 
ENDBRANCH  22  23
ENDBRANCH  14   5
BRANCH  10   2
ATOM      2  O   UNL     1      11.605   8.464   3.600  0.00  0.00    -0.391 OA
ATOM     35  H   UNL     1      12.449   8.210   4.012  0.00  0.00    +0.210 HD
ENDBRANCH  10   2
BRANCH  13  18
ATOM     18  C   UNL     1      11.252   6.168   1.799  0.00  0.00    +0.077 C 
ATOM     20  C   UNL     1       9.932   5.700   1.199  0.00  0.00    +0.017 C 
BRANCH  18  21
ATOM      3  O   UNL     1      13.593   5.611   1.523  0.00  0.00    -0.276 OA
ATOM      6  N   UNL     1      12.000   4.187   0.621  0.00  0.00    -0.310 N 
ATOM     21  C   UNL     1      12.419   5.313   1.314  0.00  0.00    +0.216 C 
ATOM     36  H   UNL     1      11.008   4.032   0.471  0.00  0.00    +0.149 HD
BRANCH   6  24
ATOM     24  C   UNL     1      12.923   3.225   0.062  0.00  0.00    +0.146 C 
BRANCH  24  27
ATOM      1  S   UNL     1      13.813   4.324  -2.329  0.00  0.00    -0.100 S 
ATOM     27  C   UNL     1      12.871   3.204  -1.438  0.00  0.00    +0.007 A 
ATOM     31  C   UNL     1      12.140   2.375  -2.259  0.00  0.00    +0.013 A 
ATOM     32  C   UNL     1      12.356   2.662  -3.638  0.00  0.00    +0.008 A 
ATOM     33  C   UNL     1      13.243   3.700  -3.818  0.00  0.00    +0.045 A 
ENDBRANCH  24  27
ENDBRANCH   6  24
ENDBRANCH  18  21
ENDBRANCH  13  18
TORSDOF 7
ENDMDL
MODEL 6
REMARK VINA RESULT:      -6.5     19.219     21.840
REMARK  Name = 45361409
REMARK  10 active torsions:
REMARK  status: ('A' for Active; 'I' for Inactive)
REMARK    1  A    between atoms: O_2  and  C_10
REMARK    2  A    between atoms: N_5  and  C_14
REMARK    3  A    between atoms: N_6  and  C_24
REMARK    4  A    between atoms: C_7  and  C_17
REMARK    5  A    between atoms: C_9  and  C_19
REMARK    6  A    between atoms: C_13  and  C_18
REMARK    7  A    between atoms: C_18  and  C_20
REMARK    8  A    between atoms: C_18  and  C_21
REMARK    9  A    between atoms: C_22  and  C_23
REMARK   10  A    between atoms: C_24  and  C_27
REMARK                            x       y       z     vdW  Elec       q    Type
REMARK                         _______ _______ _______ _____ _____    ______ ____
ROOT
ATOM      7  C   UNL     1     -13.274   6.968  21.225  0.00  0.00    -0.027 C 
ATOM      8  C   UNL     1     -14.123   6.998  19.911  0.00  0.00    +0.028 C 
ATOM      9  C   UNL     1     -13.747   8.243  19.030  0.00  0.00    +0.012 C 
ATOM     10  C   UNL     1     -15.640   6.831  20.217  0.00  0.00    +0.122 C 
ATOM     11  C   UNL     1     -13.587   5.675  22.013  0.00  0.00    +0.007 C 
ATOM     12  C   UNL     1     -11.773   6.942  20.855  0.00  0.00    +0.009 C 
ATOM     13  C   UNL     1     -15.936   5.591  21.094  0.00  0.00    +0.029 C 
ATOM     14  C   UNL     1     -12.221   8.246  18.727  0.00  0.00    +0.076 C 
ATOM     15  C   UNL     1     -15.066   5.527  22.349  0.00  0.00    +0.007 C 
ATOM     16  C   UNL     1     -11.353   8.112  19.977  0.00  0.00    +0.023 C 
ATOM     17  C   UNL     1     -13.551   8.188  22.140  0.00  0.00    +0.011 C 
ATOM     19  C   UNL     1     -14.526   8.318  17.707  0.00  0.00    +0.010 C 
ENDROOT
BRANCH  14   5
ATOM      4  O   UNL     1     -10.284   8.410  16.614  0.00  0.00    -0.270 OA
ATOM      5  N   UNL     1     -11.819   9.440  18.014  0.00  0.00    -0.308 N 
ATOM     22  C   UNL     1     -10.871   9.416  17.005  0.00  0.00    +0.244 C 
ATOM     34  H   UNL     1     -12.177  10.323  18.362  0.00  0.00    +0.149 HD
BRANCH  22  23
ATOM     23  C   UNL     1     -10.549  10.729  16.391  0.00  0.00    +0.037 A 
ATOM     25  C   UNL     1     -11.244  11.161  15.261  0.00  0.00    +0.013 A 
ATOM     26  C   UNL     1      -9.553  11.533  16.945  0.00  0.00    +0.013 A 
ATOM     28  C   UNL     1     -10.943  12.394  14.685  0.00  0.00    +0.001 A 
ATOM     29  C   UNL     1      -9.251  12.767  16.370  0.00  0.00    +0.001 A 
ATOM     30  C   UNL     1      -9.946  13.198  15.240  0.00  0.00    +0.000 A 
ENDBRANCH  22  23
ENDBRANCH  14   5
BRANCH  10   2
ATOM      2  O   UNL     1     -16.355   6.646  18.995  0.00  0.00    -0.391 OA
ATOM     35  H   UNL     1     -15.709   6.463  18.290  0.00  0.00    +0.210 HD
ENDBRANCH  10   2
BRANCH  13  18
ATOM     18  C   UNL     1     -17.415   5.517  21.492  0.00  0.00    +0.077 C 
ATOM     20  C   UNL     1     -17.749   6.627  22.481  0.00  0.00    +0.017 C 
BRANCH  18  21
ATOM      3  O   UNL     1     -17.606   3.103  21.425  0.00  0.00    -0.276 OA
ATOM      6  N   UNL     1     -18.162   4.205  23.388  0.00  0.00    -0.310 N 
ATOM     21  C   UNL     1     -17.729   4.141  22.073  0.00  0.00    +0.216 C 
ATOM     36  H   UNL     1     -18.259   5.109  23.839  0.00  0.00    +0.149 HD
BRANCH   6  24
ATOM     24  C   UNL     1     -18.520   3.031  24.151  0.00  0.00    +0.146 C 
BRANCH  24  27
ATOM      1  S   UNL     1     -17.571   1.331  26.132  0.00  0.00    -0.100 S 
ATOM     27  C   UNL     1     -17.644   2.857  25.358  0.00  0.00    +0.007 A 
ATOM     31  C   UNL     1     -16.842   3.789  25.978  0.00  0.00    +0.013 A 
ATOM     32  C   UNL     1     -16.159   3.244  27.103  0.00  0.00    +0.008 A 
ATOM     33  C   UNL     1     -16.465   1.916  27.301  0.00  0.00    +0.045 A 
ENDBRANCH  24  27
ENDBRANCH   6  24
ENDBRANCH  18  21
ENDBRANCH  13  18
TORSDOF 7
ENDMDL
MODEL 7
REMARK VINA RESULT:      -6.5      3.508      5.786
REMARK  Name = 45361409
REMARK  10 active torsions:
REMARK  status: ('A' for Active; 'I' for Inactive)
REMARK    1  A    between atoms: O_2  and  C_10
REMARK    2  A    between atoms: N_5  and  C_14
REMARK    3  A    between atoms: N_6  and  C_24
REMARK    4  A    between atoms: C_7  and  C_17
REMARK    5  A    between atoms: C_9  and  C_19
REMARK    6  A    between atoms: C_13  and  C_18
REMARK    7  A    between atoms: C_18  and  C_20
REMARK    8  A    between atoms: C_18  and  C_21
REMARK    9  A    between atoms: C_22  and  C_23
REMARK   10  A    between atoms: C_24  and  C_27
REMARK                            x       y       z     vdW  Elec       q    Type
REMARK                         _______ _______ _______ _____ _____    ______ ____
ROOT
ATOM      7  C   UNL     1      -4.248 -10.695  11.111  0.00  0.00    -0.027 C 
ATOM      8  C   UNL     1      -5.704 -10.170  11.347  0.00  0.00    +0.028 C 
ATOM      9  C   UNL     1      -6.284 -10.719  12.699  0.00  0.00    +0.012 C 
ATOM     10  C   UNL     1      -6.596 -10.403  10.093  0.00  0.00    +0.122 C 
ATOM     11  C   UNL     1      -3.667 -10.049   9.832  0.00  0.00    +0.007 C 
ATOM     12  C   UNL     1      -3.360 -10.267  12.301  0.00  0.00    +0.009 C 
ATOM     13  C   UNL     1      -5.960  -9.845   8.798  0.00  0.00    +0.029 C 
ATOM     14  C   UNL     1      -5.343 -10.346  13.879  0.00  0.00    +0.076 C 
ATOM     15  C   UNL     1      -4.517 -10.309   8.595  0.00  0.00    +0.007 C 
ATOM     16  C   UNL     1      -3.887 -10.748  13.645  0.00  0.00    +0.023 C 
ATOM     17  C   UNL     1      -4.191 -12.237  10.961  0.00  0.00    +0.011 C 
ATOM     19  C   UNL     1      -7.704 -10.217  13.008  0.00  0.00    +0.010 C 
ENDROOT
BRANCH  14   5
ATOM      4  O   UNL     1      -5.666  -8.996  16.393  0.00  0.00    -0.270 OA
ATOM      5  N   UNL     1      -5.787 -10.934  15.126  0.00  0.00    -0.308 N 
ATOM     22  C   UNL     1      -5.910 -10.196  16.290  0.00  0.00    +0.244 C 
ATOM     34  H   UNL     1      -5.895 -11.943  15.142  0.00  0.00    +0.149 HD
BRANCH  22  23
ATOM     23  C   UNL     1      -6.352 -10.952  17.490  0.00  0.00    +0.037 A 
ATOM     25  C   UNL     1      -7.286 -11.980  17.362  0.00  0.00    +0.013 A 
ATOM     26  C   UNL     1      -5.831 -10.635  18.744  0.00  0.00    +0.013 A 
ATOM     28  C   UNL     1      -7.700 -12.691  18.488  0.00  0.00    +0.001 A 
ATOM     29  C   UNL     1      -6.244 -11.346  19.871  0.00  0.00    +0.001 A 
ATOM     30  C   UNL     1      -7.178 -12.374  19.744  0.00  0.00    +0.000 A 
ENDBRANCH  22  23
ENDBRANCH  14   5
BRANCH  10   2
ATOM      2  O   UNL     1      -7.841  -9.724  10.262  0.00  0.00    -0.391 OA
ATOM     35  H   UNL     1      -7.756  -9.119  11.019  0.00  0.00    +0.210 HD
ENDBRANCH  10   2
BRANCH  13  18
ATOM     18  C   UNL     1      -6.791 -10.199   7.559  0.00  0.00    +0.077 C 
ATOM     20  C   UNL     1      -6.012 -11.152   6.659  0.00  0.00    +0.017 C 
BRANCH  18  21
ATOM      3  O   UNL     1      -7.089  -8.816   5.593  0.00  0.00    -0.276 OA
ATOM      6  N   UNL     1      -7.640  -7.932   7.666  0.00  0.00    -0.310 N 
ATOM     21  C   UNL     1      -7.182  -8.926   6.814  0.00  0.00    +0.216 C 
ATOM     36  H   UNL     1      -7.658  -8.100   8.667  0.00  0.00    +0.149 HD
BRANCH   6  24
ATOM     24  C   UNL     1      -8.067  -6.635   7.194  0.00  0.00    +0.146 C 
BRANCH  24  27
ATOM      1  S   UNL     1     -10.738  -7.098   7.799  0.00  0.00    -0.100 S 
ATOM     27  C   UNL     1      -9.307  -6.162   7.896  0.00  0.00    +0.007 A 
ATOM     31  C   UNL     1      -9.484  -5.024   8.652  0.00  0.00    +0.013 A 
ATOM     32  C   UNL     1     -10.812  -4.919   9.157  0.00  0.00    +0.008 A 
ATOM     33  C   UNL     1     -11.599  -5.980   8.769  0.00  0.00    +0.045 A 
ENDBRANCH  24  27
ENDBRANCH   6  24
ENDBRANCH  18  21
ENDBRANCH  13  18
TORSDOF 7
ENDMDL
MODEL 8
REMARK VINA RESULT:      -6.3     24.957     29.726
REMARK  Name = 45361409
REMARK  10 active torsions:
REMARK  status: ('A' for Active; 'I' for Inactive)
REMARK    1  A    between atoms: O_2  and  C_10
REMARK    2  A    between atoms: N_5  and  C_14
REMARK    3  A    between atoms: N_6  and  C_24
REMARK    4  A    between atoms: C_7  and  C_17
REMARK    5  A    between atoms: C_9  and  C_19
REMARK    6  A    between atoms: C_13  and  C_18
REMARK    7  A    between atoms: C_18  and  C_20
REMARK    8  A    between atoms: C_18  and  C_21
REMARK    9  A    between atoms: C_22  and  C_23
REMARK   10  A    between atoms: C_24  and  C_27
REMARK                            x       y       z     vdW  Elec       q    Type
REMARK                         _______ _______ _______ _____ _____    ______ ____
ROOT
ATOM      7  C   UNL     1      12.580   8.613   3.253  0.00  0.00    -0.027 C 
ATOM      8  C   UNL     1      12.686   8.043   4.706  0.00  0.00    +0.028 C 
ATOM      9  C   UNL     1      14.160   7.610   5.030  0.00  0.00    +0.012 C 
ATOM     10  C   UNL     1      11.599   6.961   4.967  0.00  0.00    +0.122 C 
ATOM     11  C   UNL     1      11.144   9.133   3.006  0.00  0.00    +0.007 C 
ATOM     12  C   UNL     1      13.546   9.811   3.110  0.00  0.00    +0.009 C 
ATOM     13  C   UNL     1      10.174   7.454   4.620  0.00  0.00    +0.029 C 
ATOM     14  C   UNL     1      15.133   8.803   4.811  0.00  0.00    +0.076 C 
ATOM     15  C   UNL     1      10.079   8.066   3.222  0.00  0.00    +0.007 C 
ATOM     16  C   UNL     1      14.989   9.459   3.437  0.00  0.00    +0.023 C 
ATOM     17  C   UNL     1      12.918   7.554   2.173  0.00  0.00    +0.011 C 
ATOM     19  C   UNL     1      14.342   7.066   6.457  0.00  0.00    +0.010 C 
ENDROOT
BRANCH  14   5
ATOM      4  O   UNL     1      17.169  10.269   6.206  0.00  0.00    -0.270 OA
ATOM      5  N   UNL     1      16.515   8.408   4.989  0.00  0.00    -0.308 N 
ATOM     22  C   UNL     1      17.424   9.189   5.681  0.00  0.00    +0.244 C 
ATOM     34  H   UNL     1      16.824   7.584   4.483  0.00  0.00    +0.149 HD
BRANCH  22  23
ATOM     23  C   UNL     1      18.809   8.657   5.752  0.00  0.00    +0.037 A 
ATOM     25  C   UNL     1      19.373   8.029   4.642  0.00  0.00    +0.013 A 
ATOM     26  C   UNL     1      19.546   8.788   6.929  0.00  0.00    +0.013 A 
ATOM     28  C   UNL     1      20.674   7.530   4.708  0.00  0.00    +0.001 A 
ATOM     29  C   UNL     1      20.848   8.290   6.996  0.00  0.00    +0.001 A 
ATOM     30  C   UNL     1      21.412   7.660   5.886  0.00  0.00    +0.000 A 
ENDBRANCH  22  23
ENDBRANCH  14   5
BRANCH  10   2
ATOM      2  O   UNL     1      11.586   6.623   6.355  0.00  0.00    -0.391 OA
ATOM     35  H   UNL     1      12.446   6.227   6.578  0.00  0.00    +0.210 HD
ENDBRANCH  10   2
BRANCH  13  18
ATOM     18  C   UNL     1       9.135   6.334   4.759  0.00  0.00    +0.077 C 
ATOM     20  C   UNL     1       8.397   6.465   6.086  0.00  0.00    +0.017 C 
BRANCH  18  21
ATOM      3  O   UNL     1       9.880   4.175   5.565  0.00  0.00    -0.276 OA
ATOM      6  N   UNL     1      10.346   4.760   3.370  0.00  0.00    -0.310 N 
ATOM     21  C   UNL     1       9.817   4.974   4.634  0.00  0.00    +0.216 C 
ATOM     36  H   UNL     1      10.272   5.488   2.667  0.00  0.00    +0.149 HD
BRANCH   6  24
ATOM     24  C   UNL     1      11.042   3.545   3.010  0.00  0.00    +0.146 C 
BRANCH  24  27
ATOM      1  S   UNL     1      11.235   4.549   0.427  0.00  0.00    -0.100 S 
ATOM     27  C   UNL     1      11.885   3.724   1.781  0.00  0.00    +0.007 A 
ATOM     31  C   UNL     1      13.177   3.304   1.558  0.00  0.00    +0.013 A 
ATOM     32  C   UNL     1      13.640   3.662   0.259  0.00  0.00    +0.008 A 
ATOM     33  C   UNL     1      12.685   4.343  -0.461  0.00  0.00    +0.045 A 
ENDBRANCH  24  27
ENDBRANCH   6  24
ENDBRANCH  18  21
ENDBRANCH  13  18
TORSDOF 7
ENDMDL
MODEL 9
REMARK VINA RESULT:      -6.3     25.964     30.483
REMARK  Name = 45361409
REMARK  10 active torsions:
REMARK  status: ('A' for Active; 'I' for Inactive)
REMARK    1  A    between atoms: O_2  and  C_10
REMARK    2  A    between atoms: N_5  and  C_14
REMARK    3  A    between atoms: N_6  and  C_24
REMARK    4  A    between atoms: C_7  and  C_17
REMARK    5  A    between atoms: C_9  and  C_19
REMARK    6  A    between atoms: C_13  and  C_18
REMARK    7  A    between atoms: C_18  and  C_20
REMARK    8  A    between atoms: C_18  and  C_21
REMARK    9  A    between atoms: C_22  and  C_23
REMARK   10  A    between atoms: C_24  and  C_27
REMARK                            x       y       z     vdW  Elec       q    Type
REMARK                         _______ _______ _______ _____ _____    ______ ____
ROOT
ATOM      7  C   UNL     1      13.306   4.717  -1.583  0.00  0.00    -0.027 C 
ATOM      8  C   UNL     1      14.374   4.232  -0.546  0.00  0.00    +0.028 C 
ATOM      9  C   UNL     1      13.870   4.459   0.924  0.00  0.00    +0.012 C 
ATOM     10  C   UNL     1      15.779   4.820  -0.868  0.00  0.00    +0.122 C 
ATOM     11  C   UNL     1      13.785   4.378  -3.014  0.00  0.00    +0.007 C 
ATOM     12  C   UNL     1      11.983   3.957  -1.336  0.00  0.00    +0.009 C 
ATOM     13  C   UNL     1      16.207   4.567  -2.333  0.00  0.00    +0.029 C 
ATOM     14  C   UNL     1      12.501   3.752   1.138  0.00  0.00    +0.076 C 
ATOM     15  C   UNL     1      15.142   4.984  -3.347  0.00  0.00    +0.007 C 
ATOM     16  C   UNL     1      11.457   4.117   0.083  0.00  0.00    +0.023 C 
ATOM     17  C   UNL     1      13.043   6.242  -1.494  0.00  0.00    +0.011 C 
ATOM     19  C   UNL     1      14.861   3.976   1.996  0.00  0.00    +0.010 C 
ENDROOT
BRANCH  14   5
ATOM      4  O   UNL     1      11.766   6.329   2.167  0.00  0.00    -0.270 OA
ATOM      5  N   UNL     1      11.950   4.035   2.447  0.00  0.00    -0.308 N 
ATOM     22  C   UNL     1      11.627   5.319   2.852  0.00  0.00    +0.244 C 
ATOM     34  H   UNL     1      11.917   3.264   3.106  0.00  0.00    +0.149 HD
BRANCH  22  23
ATOM     23  C   UNL     1      11.098   5.446   4.233  0.00  0.00    +0.037 A 
ATOM     25  C   UNL     1      11.564   6.460   5.070  0.00  0.00    +0.013 A 
ATOM     26  C   UNL     1      10.131   4.552   4.694  0.00  0.00    +0.013 A 
ATOM     28  C   UNL     1      11.066   6.580   6.367  0.00  0.00    +0.001 A 
ATOM     29  C   UNL     1       9.632   4.671   5.991  0.00  0.00    +0.001 A 
ATOM     30  C   UNL     1      10.099   5.685   6.828  0.00  0.00    +0.000 A 
ENDBRANCH  22  23
ENDBRANCH  14   5
BRANCH  10   2
ATOM      2  O   UNL     1      16.759   4.190  -0.042  0.00  0.00    -0.391 OA
ATOM     35  H   UNL     1      17.636   4.369  -0.424  0.00  0.00    +0.210 HD
ENDBRANCH  10   2
BRANCH  13  18
ATOM     18  C   UNL     1      17.532   5.264  -2.666  0.00  0.00    +0.077 C 
ATOM     20  C   UNL     1      17.347   6.206  -3.850  0.00  0.00    +0.017 C 
BRANCH  18  21
ATOM      3  O   UNL     1      18.877   3.833  -4.083  0.00  0.00    -0.276 OA
ATOM      6  N   UNL     1      19.236   3.779  -1.792  0.00  0.00    -0.310 N 
ATOM     21  C   UNL     1      18.611   4.222  -2.948  0.00  0.00    +0.216 C 
ATOM     36  H   UNL     1      18.933   4.136  -0.891  0.00  0.00    +0.149 HD
BRANCH   6  24
ATOM     24  C   UNL     1      20.290   2.790  -1.804  0.00  0.00    +0.146 C 
BRANCH  24  27
ATOM      1  S   UNL     1      22.377   4.591  -2.149  0.00  0.00    -0.100 S 
ATOM     27  C   UNL     1      21.584   3.344  -1.282  0.00  0.00    +0.007 A 
ATOM     31  C   UNL     1      22.276   2.983  -0.147  0.00  0.00    +0.013 A 
ATOM     32  C   UNL     1      23.472   3.740   0.014  0.00  0.00    +0.008 A 
ATOM     33  C   UNL     1      23.650   4.650  -1.004  0.00  0.00    +0.045 A 
ENDBRANCH  24  27
ENDBRANCH   6  24
ENDBRANCH  18  21
ENDBRANCH  13  18
TORSDOF 7
ENDMDL
MODEL 10
REMARK VINA RESULT:      -6.3     24.933     27.357
REMARK  Name = 45361409
REMARK  10 active torsions:
REMARK  status: ('A' for Active; 'I' for Inactive)
REMARK    1  A    between atoms: O_2  and  C_10
REMARK    2  A    between atoms: N_5  and  C_14
REMARK    3  A    between atoms: N_6  and  C_24
REMARK    4  A    between atoms: C_7  and  C_17
REMARK    5  A    between atoms: C_9  and  C_19
REMARK    6  A    between atoms: C_13  and  C_18
REMARK    7  A    between atoms: C_18  and  C_20
REMARK    8  A    between atoms: C_18  and  C_21
REMARK    9  A    between atoms: C_22  and  C_23
REMARK   10  A    between atoms: C_24  and  C_27
REMARK                            x       y       z     vdW  Elec       q    Type
REMARK                         _______ _______ _______ _____ _____    ______ ____
ROOT
ATOM      7  C   UNL     1       9.523   6.070   5.890  0.00  0.00    -0.027 C 
ATOM      8  C   UNL     1      10.359   7.298   5.399  0.00  0.00    +0.028 C 
ATOM      9  C   UNL     1       9.808   8.633   6.015  0.00  0.00    +0.012 C 
ATOM     10  C   UNL     1      10.513   7.291   3.850  0.00  0.00    +0.122 C 
ATOM     11  C   UNL     1      10.159   4.765   5.356  0.00  0.00    +0.007 C 
ATOM     12  C   UNL     1       9.565   6.016   7.434  0.00  0.00    +0.009 C 
ATOM     13  C   UNL     1      11.053   5.945   3.312  0.00  0.00    +0.029 C 
ATOM     14  C   UNL     1       9.784   8.539   7.568  0.00  0.00    +0.076 C 
ATOM     15  C   UNL     1      10.275   4.738   3.837  0.00  0.00    +0.007 C 
ATOM     16  C   UNL     1       9.066   7.295   8.090  0.00  0.00    +0.023 C 
ATOM     17  C   UNL     1       8.046   6.131   5.421  0.00  0.00    +0.011 C 
ATOM     19  C   UNL     1      10.604   9.879   5.596  0.00  0.00    +0.010 C 
ENDROOT
BRANCH  14   5
ATOM      4  O   UNL     1      11.111  10.568   9.106  0.00  0.00    -0.270 OA
ATOM      5  N   UNL     1       9.174   9.708   8.166  0.00  0.00    -0.308 N 
ATOM     22  C   UNL     1       9.903  10.633   8.894  0.00  0.00    +0.244 C 
ATOM     34  H   UNL     1       8.161   9.764   8.130  0.00  0.00    +0.149 HD
BRANCH  22  23
ATOM     23  C   UNL     1       9.125  11.761   9.465  0.00  0.00    +0.037 A 
ATOM     25  C   UNL     1       8.869  11.810  10.835  0.00  0.00    +0.013 A 
ATOM     26  C   UNL     1       8.652  12.775   8.631  0.00  0.00    +0.013 A 
ATOM     28  C   UNL     1       8.139  12.871  11.372  0.00  0.00    +0.001 A 
ATOM     29  C   UNL     1       7.923  13.837   9.167  0.00  0.00    +0.001 A 
ATOM     30  C   UNL     1       7.666  13.885  10.537  0.00  0.00    +0.000 A 
ENDBRANCH  22  23
ENDBRANCH  14   5
BRANCH  10   2
ATOM      2  O   UNL     1      11.455   8.293   3.461  0.00  0.00    -0.391 OA
ATOM     35  H   UNL     1      10.960   9.094   3.216  0.00  0.00    +0.210 HD
ENDBRANCH  10   2
BRANCH  13  18
ATOM     18  C   UNL     1      11.075   5.913   1.779  0.00  0.00    +0.077 C 
ATOM     20  C   UNL     1      10.844   4.491   1.280  0.00  0.00    +0.017 C 
BRANCH  18  21
ATOM      3  O   UNL     1      12.491   7.085   0.202  0.00  0.00    -0.276 OA
ATOM      6  N   UNL     1      13.454   6.217   2.125  0.00  0.00    -0.310 N 
ATOM     21  C   UNL     1      12.397   6.475   1.266  0.00  0.00    +0.216 C 
ATOM     36  H   UNL     1      13.290   5.681   2.972  0.00  0.00    +0.149 HD
BRANCH   6  24
ATOM     24  C   UNL     1      14.806   6.649   1.853  0.00  0.00    +0.146 C 
BRANCH  24  27
ATOM      1  S   UNL     1      16.506   6.550  -0.341  0.00  0.00    -0.100 S 
ATOM     27  C   UNL     1      15.462   5.809   0.796  0.00  0.00    +0.007 A 
ATOM     31  C   UNL     1      15.347   4.452   0.584  0.00  0.00    +0.013 A 
ATOM     32  C   UNL     1      16.126   4.017  -0.526  0.00  0.00    +0.008 A 
ATOM     33  C   UNL     1      16.807   5.056  -1.120  0.00  0.00    +0.045 A 
ENDBRANCH  24  27
ENDBRANCH   6  24
ENDBRANCH  18  21
ENDBRANCH  13  18
TORSDOF 7
ENDMDL
