MODEL 1
REMARK VINA RESULT:      -6.5      0.000      0.000
REMARK  Name = 51136643
REMARK  11 active torsions:
REMARK  status: ('A' for Active; 'I' for Inactive)
REMARK    1  A    between atoms: S_1  and  N_9
REMARK    2  A    between atoms: S_1  and  C_21
REMARK    3  A    between atoms: O_5  and  C_20
REMARK    4  A    between atoms: O_7  and  C_28
REMARK    5  A    between atoms: O_7  and  C_32
REMARK    6  A    between atoms: O_8  and  C_29
REMARK    7  A    between atoms: O_8  and  C_33
REMARK    8  A    between atoms: C_11  and  C_16
REMARK    9  A    between atoms: C_12  and  C_17
REMARK   10  A    between atoms: C_16  and  C_18
REMARK   11  A    between atoms: C_17  and  C_20
REMARK                            x       y       z     vdW  Elec       q    Type
REMARK                         _______ _______ _______ _____ _____    ______ ____
ROOT
ATOM      9  N   UNL     1      12.020  11.191  23.109  0.00  0.00    -0.176 NA
ATOM     11  C   UNL     1      13.679  10.301  21.486  0.00  0.00    +0.014 C 
ATOM     12  C   UNL     1      12.840   9.005  21.373  0.00  0.00    +0.006 C 
ATOM     13  C   UNL     1      13.473  10.938  22.871  0.00  0.00    +0.113 C 
ATOM     14  C   UNL     1      11.366   9.259  21.722  0.00  0.00    +0.021 C 
ATOM     15  C   UNL     1      11.221   9.933  23.082  0.00  0.00    +0.110 C 
ENDROOT
BRANCH   9   1
ATOM      1  S   UNL     1      11.666  12.257  24.403  0.00  0.00    +0.067 S 
ATOM      3  O   UNL     1      12.872  12.963  24.777  0.00  0.00    -0.152 OA
ATOM      4  O   UNL     1      10.877  11.552  25.390  0.00  0.00    -0.152 OA
BRANCH   1  21
ATOM      2  S   UNL     1      10.776  13.434  21.873  0.00  0.00    -0.077 S 
ATOM     21  C   UNL     1      10.604  13.401  23.576  0.00  0.00    +0.143 A 
ATOM     26  C   UNL     1       9.650  14.290  24.017  0.00  0.00    +0.036 A 
ATOM     30  C   UNL     1       9.050  15.008  22.943  0.00  0.00    +0.010 A 
ATOM     31  C   UNL     1       9.570  14.640  21.721  0.00  0.00    +0.047 A 
ENDBRANCH   1  21
ENDBRANCH   9   1
BRANCH  11  16
ATOM     16  C   UNL     1      13.403  11.324  20.377  0.00  0.00    +0.060 C 
BRANCH  16  18
ATOM     10  N   UNL     1      15.701  12.014  20.265  0.00  0.00    -0.287 NA
ATOM     18  C   UNL     1      14.671  11.598  19.605  0.00  0.00    +0.044 C 
ATOM     19  C   UNL     1      14.672  11.386  18.135  0.00  0.00    +0.003 A 
ATOM     22  C   UNL     1      15.701  12.001  17.409  0.00  0.00    -0.033 A 
ATOM     23  C   UNL     1      16.707  12.832  18.149  0.00  0.00    +0.059 C 
ATOM     24  C   UNL     1      16.949  12.222  19.524  0.00  0.00    +0.146 C 
ATOM     25  C   UNL     1      13.701  10.627  17.480  0.00  0.00    +0.059 A 
ATOM     27  C   UNL     1      15.736  11.873  16.018  0.00  0.00    +0.053 A 
ATOM     28  C   UNL     1      13.753  10.492  16.092  0.00  0.00    +0.162 A 
ATOM     29  C   UNL     1      14.766  11.116  15.362  0.00  0.00    +0.162 A 
BRANCH  28   7
ATOM      7  O   UNL     1      12.804   9.749  15.457  0.00  0.00    -0.491 OA
ATOM     32  C   UNL     1      11.792   9.159  16.270  0.00  0.00    +0.277 C 
ENDBRANCH  28   7
BRANCH  29   8
ATOM      8  O   UNL     1      14.817  10.994  14.007  0.00  0.00    -0.491 OA
ATOM     33  C   UNL     1      14.806  12.200  13.246  0.00  0.00    +0.277 C 
ENDBRANCH  29   8
ENDBRANCH  16  18
ENDBRANCH  11  16
BRANCH  12  17
ATOM     17  C   UNL     1      12.963   8.327  20.009  0.00  0.00    +0.124 C 
BRANCH  17  20
ATOM      6  O   UNL     1      11.942   6.180  19.469  0.00  0.00    -0.251 OA
ATOM     20  C   UNL     1      12.748   6.842  20.106  0.00  0.00    +0.305 C 
BRANCH  20   5
ATOM      5  O   UNL     1      13.596   6.316  21.027  0.00  0.00    -0.481 OA
ATOM     34  H   UNL     1      13.327   5.413  21.300  0.00  0.00    +0.295 HD
ENDBRANCH  20   5
ENDBRANCH  17  20
ENDBRANCH  12  17
TORSDOF 9
ENDMDL
MODEL 2
REMARK VINA RESULT:      -6.5     27.567     30.334
REMARK  Name = 51136643
REMARK  11 active torsions:
REMARK  status: ('A' for Active; 'I' for Inactive)
REMARK    1  A    between atoms: S_1  and  N_9
REMARK    2  A    between atoms: S_1  and  C_21
REMARK    3  A    between atoms: O_5  and  C_20
REMARK    4  A    between atoms: O_7  and  C_28
REMARK    5  A    between atoms: O_7  and  C_32
REMARK    6  A    between atoms: O_8  and  C_29
REMARK    7  A    between atoms: O_8  and  C_33
REMARK    8  A    between atoms: C_11  and  C_16
REMARK    9  A    between atoms: C_12  and  C_17
REMARK   10  A    between atoms: C_16  and  C_18
REMARK   11  A    between atoms: C_17  and  C_20
REMARK                            x       y       z     vdW  Elec       q    Type
REMARK                         _______ _______ _______ _____ _____    ______ ____
ROOT
ATOM      9  N   UNL     1      -3.170 -10.919  13.751  0.00  0.00    -0.176 NA
ATOM     11  C   UNL     1      -4.876 -11.367  15.501  0.00  0.00    +0.014 C 
ATOM     12  C   UNL     1      -3.738 -11.527  16.538  0.00  0.00    +0.006 C 
ATOM     13  C   UNL     1      -4.364 -11.745  14.101  0.00  0.00    +0.113 C 
ATOM     14  C   UNL     1      -2.479 -10.756  16.113  0.00  0.00    +0.021 C 
ATOM     15  C   UNL     1      -2.043 -11.134  14.701  0.00  0.00    +0.110 C 
ENDROOT
BRANCH   9   1
ATOM      1  S   UNL     1      -2.741 -10.922  12.091  0.00  0.00    +0.067 S 
ATOM      3  O   UNL     1      -2.560 -12.288  11.653  0.00  0.00    -0.152 OA
ATOM      4  O   UNL     1      -1.716  -9.925  11.870  0.00  0.00    -0.152 OA
BRANCH   1  21
ATOM      2  S   UNL     1      -5.084 -11.457  10.418  0.00  0.00    -0.077 S 
ATOM     21  C   UNL     1      -4.243 -10.321  11.384  0.00  0.00    +0.143 A 
ATOM     26  C   UNL     1      -4.896  -9.110  11.445  0.00  0.00    +0.036 A 
ATOM     30  C   UNL     1      -6.104  -9.114  10.688  0.00  0.00    +0.010 A 
ATOM     31  C   UNL     1      -6.327 -10.329  10.078  0.00  0.00    +0.047 A 
ENDBRANCH   1  21
ENDBRANCH   9   1
BRANCH  11  16
ATOM     16  C   UNL     1      -5.514  -9.972  15.483  0.00  0.00    +0.060 C 
BRANCH  16  18
ATOM     10  N   UNL     1      -7.307 -10.029  13.886  0.00  0.00    -0.287 NA
ATOM     18  C   UNL     1      -6.979 -10.083  15.134  0.00  0.00    +0.044 C 
ATOM     19  C   UNL     1      -7.965 -10.239  16.234  0.00  0.00    +0.003 A 
ATOM     22  C   UNL     1      -9.302  -9.952  15.928  0.00  0.00    -0.033 A 
ATOM     23  C   UNL     1      -9.642  -9.499  14.539  0.00  0.00    +0.059 C 
ATOM     24  C   UNL     1      -8.724 -10.197  13.544  0.00  0.00    +0.146 C 
ATOM     25  C   UNL     1      -7.604 -10.637  17.522  0.00  0.00    +0.059 A 
ATOM     27  C   UNL     1     -10.274 -10.041  16.929  0.00  0.00    +0.053 A 
ATOM     28  C   UNL     1      -8.584 -10.738  18.510  0.00  0.00    +0.162 A 
ATOM     29  C   UNL     1      -9.915 -10.438  18.216  0.00  0.00    +0.162 A 
BRANCH  28   7
ATOM      7  O   UNL     1      -8.227 -11.128  19.767  0.00  0.00    -0.491 OA
ATOM     32  C   UNL     1      -7.591 -12.397  19.894  0.00  0.00    +0.277 C 
ENDBRANCH  28   7
BRANCH  29   8
ATOM      8  O   UNL     1     -10.873 -10.528  19.180  0.00  0.00    -0.491 OA
ATOM     33  C   UNL     1     -12.011  -9.678  19.044  0.00  0.00    +0.277 C 
ENDBRANCH  29   8
ENDBRANCH  16  18
ENDBRANCH  11  16
BRANCH  12  17
ATOM     17  C   UNL     1      -4.157 -11.136  17.955  0.00  0.00    +0.124 C 
BRANCH  17  20
ATOM      6  O   UNL     1      -3.348 -12.187  20.001  0.00  0.00    -0.251 OA
ATOM     20  C   UNL     1      -3.931 -12.259  18.930  0.00  0.00    +0.305 C 
BRANCH  20   5
ATOM      5  O   UNL     1      -4.480 -13.403  18.445  0.00  0.00    -0.481 OA
ATOM     34  H   UNL     1      -5.185 -13.221  17.788  0.00  0.00    +0.295 HD
ENDBRANCH  20   5
ENDBRANCH  17  20
ENDBRANCH  12  17
TORSDOF 9
ENDMDL
MODEL 3
REMARK VINA RESULT:      -6.4     13.095     16.461
REMARK  Name = 51136643
REMARK  11 active torsions:
REMARK  status: ('A' for Active; 'I' for Inactive)
REMARK    1  A    between atoms: S_1  and  N_9
REMARK    2  A    between atoms: S_1  and  C_21
REMARK    3  A    between atoms: O_5  and  C_20
REMARK    4  A    between atoms: O_7  and  C_28
REMARK    5  A    between atoms: O_7  and  C_32
REMARK    6  A    between atoms: O_8  and  C_29
REMARK    7  A    between atoms: O_8  and  C_33
REMARK    8  A    between atoms: C_11  and  C_16
REMARK    9  A    between atoms: C_12  and  C_17
REMARK   10  A    between atoms: C_16  and  C_18
REMARK   11  A    between atoms: C_17  and  C_20
REMARK                            x       y       z     vdW  Elec       q    Type
REMARK                         _______ _______ _______ _____ _____    ______ ____
ROOT
ATOM      9  N   UNL     1      11.037   8.265   6.272  0.00  0.00    -0.176 NA
ATOM     11  C   UNL     1      10.552   5.861   6.668  0.00  0.00    +0.014 C 
ATOM     12  C   UNL     1      10.116   6.209   8.111  0.00  0.00    +0.006 C 
ATOM     13  C   UNL     1      11.591   6.882   6.175  0.00  0.00    +0.113 C 
ATOM     14  C   UNL     1       9.646   7.668   8.219  0.00  0.00    +0.021 C 
ATOM     15  C   UNL     1      10.693   8.633   7.674  0.00  0.00    +0.110 C 
ENDROOT
BRANCH   9   1
ATOM      1  S   UNL     1      11.894   9.460   5.389  0.00  0.00    +0.067 S 
ATOM      3  O   UNL     1      11.855  10.706   6.122  0.00  0.00    -0.152 OA
ATOM      4  O   UNL     1      11.490   9.396   4.001  0.00  0.00    -0.152 OA
BRANCH   1  21
ATOM      2  S   UNL     1      14.166   8.195   4.042  0.00  0.00    -0.077 S 
ATOM     21  C   UNL     1      13.532   8.813   5.508  0.00  0.00    +0.143 A 
ATOM     26  C   UNL     1      14.427   8.695   6.549  0.00  0.00    +0.036 A 
ATOM     30  C   UNL     1      15.650   8.091   6.137  0.00  0.00    +0.010 A 
ATOM     31  C   UNL     1      15.643   7.769   4.798  0.00  0.00    +0.047 A 
ENDBRANCH   1  21
ENDBRANCH   9   1
BRANCH  11  16
ATOM     16  C   UNL     1       9.390   5.752   5.672  0.00  0.00    +0.060 C 
BRANCH  16  18
ATOM     10  N   UNL     1      10.570   4.392   4.083  0.00  0.00    -0.287 NA
ATOM     18  C   UNL     1       9.926   5.493   4.284  0.00  0.00    +0.044 C 
ATOM     19  C   UNL     1       9.696   6.512   3.228  0.00  0.00    +0.003 A 
ATOM     22  C   UNL     1      10.512   6.439   2.092  0.00  0.00    -0.033 A 
ATOM     23  C   UNL     1      11.557   5.365   2.024  0.00  0.00    +0.059 C 
ATOM     24  C   UNL     1      11.038   4.114   2.721  0.00  0.00    +0.146 C 
ATOM     25  C   UNL     1       8.730   7.514   3.342  0.00  0.00    +0.059 A 
ATOM     27  C   UNL     1      10.374   7.392   1.080  0.00  0.00    +0.053 A 
ATOM     28  C   UNL     1       8.589   8.452   2.319  0.00  0.00    +0.162 A 
ATOM     29  C   UNL     1       9.410   8.394   1.192  0.00  0.00    +0.162 A 
BRANCH  28   7
ATOM      7  O   UNL     1       7.643   9.427   2.433  0.00  0.00    -0.491 OA
ATOM     32  C   UNL     1       6.869   9.442   3.630  0.00  0.00    +0.277 C 
ENDBRANCH  28   7
BRANCH  29   8
ATOM      8  O   UNL     1       9.280   9.311   0.194  0.00  0.00    -0.491 OA
ATOM     33  C   UNL     1      10.184   9.206  -0.905  0.00  0.00    +0.277 C 
ENDBRANCH  29   8
ENDBRANCH  16  18
ENDBRANCH  11  16
BRANCH  12  17
ATOM     17  C   UNL     1       9.055   5.259   8.665  0.00  0.00    +0.124 C 
BRANCH  17  20
ATOM      6  O   UNL     1      10.414   4.703  10.611  0.00  0.00    -0.251 OA
ATOM     20  C   UNL     1       9.321   4.905  10.102  0.00  0.00    +0.305 C 
BRANCH  20   5
ATOM      5  O   UNL     1       8.148   4.837  10.782  0.00  0.00    -0.481 OA
ATOM     34  H   UNL     1       7.554   4.146  10.420  0.00  0.00    +0.295 HD
ENDBRANCH  20   5
ENDBRANCH  17  20
ENDBRANCH  12  17
TORSDOF 9
ENDMDL
MODEL 4
REMARK VINA RESULT:      -6.2      2.895      7.178
REMARK  Name = 51136643
REMARK  11 active torsions:
REMARK  status: ('A' for Active; 'I' for Inactive)
REMARK    1  A    between atoms: S_1  and  N_9
REMARK    2  A    between atoms: S_1  and  C_21
REMARK    3  A    between atoms: O_5  and  C_20
REMARK    4  A    between atoms: O_7  and  C_28
REMARK    5  A    between atoms: O_7  and  C_32
REMARK    6  A    between atoms: O_8  and  C_29
REMARK    7  A    between atoms: O_8  and  C_33
REMARK    8  A    between atoms: C_11  and  C_16
REMARK    9  A    between atoms: C_12  and  C_17
REMARK   10  A    between atoms: C_16  and  C_18
REMARK   11  A    between atoms: C_17  and  C_20
REMARK                            x       y       z     vdW  Elec       q    Type
REMARK                         _______ _______ _______ _____ _____    ______ ____
ROOT
ATOM      9  N   UNL     1      15.132  11.528  17.446  0.00  0.00    -0.176 NA
ATOM     11  C   UNL     1      13.161  10.277  18.298  0.00  0.00    +0.014 C 
ATOM     12  C   UNL     1      12.955   9.682  16.885  0.00  0.00    +0.006 C 
ATOM     13  C   UNL     1      13.845  11.651  18.193  0.00  0.00    +0.113 C 
ATOM     14  C   UNL     1      14.268   9.658  16.089  0.00  0.00    +0.021 C 
ATOM     15  C   UNL     1      14.927  11.033  16.055  0.00  0.00    +0.110 C 
ENDROOT
BRANCH   9   1
ATOM      1  S   UNL     1      16.198  12.862  17.600  0.00  0.00    +0.067 S 
ATOM      3  O   UNL     1      15.425  14.085  17.598  0.00  0.00    -0.152 OA
ATOM      4  O   UNL     1      17.311  12.680  16.693  0.00  0.00    -0.152 OA
BRANCH   1  21
ATOM      2  S   UNL     1      17.468  13.976  19.991  0.00  0.00    -0.077 S 
ATOM     21  C   UNL     1      16.787  12.596  19.243  0.00  0.00    +0.143 A 
ATOM     26  C   UNL     1      16.817  11.493  20.067  0.00  0.00    +0.036 A 
ATOM     30  C   UNL     1      17.407  11.785  21.330  0.00  0.00    +0.010 A 
ATOM     31  C   UNL     1      17.805  13.100  21.424  0.00  0.00    +0.047 A 
ENDBRANCH   1  21
ENDBRANCH   9   1
BRANCH  11  16
ATOM     16  C   UNL     1      13.937   9.362  19.255  0.00  0.00    +0.060 C 
BRANCH  16  18
ATOM     10  N   UNL     1      12.768   7.570  20.346  0.00  0.00    -0.287 NA
ATOM     18  C   UNL     1      13.012   8.839  20.327  0.00  0.00    +0.044 C 
ATOM     19  C   UNL     1      12.425   9.800  21.297  0.00  0.00    +0.003 A 
ATOM     22  C   UNL     1      11.300   9.368  22.011  0.00  0.00    -0.033 A 
ATOM     23  C   UNL     1      10.762   7.993  21.745  0.00  0.00    +0.059 C 
ATOM     24  C   UNL     1      11.917   7.054  21.424  0.00  0.00    +0.146 C 
ATOM     25  C   UNL     1      12.941  11.082  21.495  0.00  0.00    +0.059 A 
ATOM     27  C   UNL     1      10.677  10.238  22.909  0.00  0.00    +0.053 A 
ATOM     28  C   UNL     1      12.321  11.938  22.406  0.00  0.00    +0.162 A 
ATOM     29  C   UNL     1      11.190  11.519  23.109  0.00  0.00    +0.162 A 
BRANCH  28   7
ATOM      7  O   UNL     1      12.828  13.189  22.598  0.00  0.00    -0.491 OA
ATOM     32  C   UNL     1      13.879  13.602  21.728  0.00  0.00    +0.277 C 
ENDBRANCH  28   7
BRANCH  29   8
ATOM      8  O   UNL     1      10.578  12.355  23.993  0.00  0.00    -0.491 OA
ATOM     33  C   UNL     1      10.918  12.204  25.370  0.00  0.00    +0.277 C 
ENDBRANCH  29   8
ENDBRANCH  16  18
ENDBRANCH  11  16
BRANCH  12  17
ATOM     17  C   UNL     1      12.310   8.297  16.904  0.00  0.00    +0.124 C 
BRANCH  17  20
ATOM      6  O   UNL     1      10.267   8.579  18.205  0.00  0.00    -0.251 OA
ATOM     20  C   UNL     1      10.826   8.378  17.137  0.00  0.00    +0.305 C 
BRANCH  20   5
ATOM      5  O   UNL     1      10.168   8.192  15.964  0.00  0.00    -0.481 OA
ATOM     34  H   UNL     1      10.464   8.822  15.273  0.00  0.00    +0.295 HD
ENDBRANCH  20   5
ENDBRANCH  17  20
ENDBRANCH  12  17
TORSDOF 9
ENDMDL
MODEL 5
REMARK VINA RESULT:      -6.2     28.536     29.819
REMARK  Name = 51136643
REMARK  11 active torsions:
REMARK  status: ('A' for Active; 'I' for Inactive)
REMARK    1  A    between atoms: S_1  and  N_9
REMARK    2  A    between atoms: S_1  and  C_21
REMARK    3  A    between atoms: O_5  and  C_20
REMARK    4  A    between atoms: O_7  and  C_28
REMARK    5  A    between atoms: O_7  and  C_32
REMARK    6  A    between atoms: O_8  and  C_29
REMARK    7  A    between atoms: O_8  and  C_33
REMARK    8  A    between atoms: C_11  and  C_16
REMARK    9  A    between atoms: C_12  and  C_17
REMARK   10  A    between atoms: C_16  and  C_18
REMARK   11  A    between atoms: C_17  and  C_20
REMARK                            x       y       z     vdW  Elec       q    Type
REMARK                         _______ _______ _______ _____ _____    ______ ____
ROOT
ATOM      9  N   UNL     1      -8.521 -10.192  17.395  0.00  0.00    -0.176 NA
ATOM     11  C   UNL     1      -6.151 -10.816  16.984  0.00  0.00    +0.014 C 
ATOM     12  C   UNL     1      -6.096 -11.449  18.395  0.00  0.00    +0.006 C 
ATOM     13  C   UNL     1      -7.187  -9.680  16.961  0.00  0.00    +0.113 C 
ATOM     14  C   UNL     1      -7.492 -11.878  18.872  0.00  0.00    +0.021 C 
ATOM     15  C   UNL     1      -8.489 -10.728  18.785  0.00  0.00    +0.110 C 
ENDROOT
BRANCH   9   1
ATOM      1  S   UNL     1      -9.850  -9.171  17.032  0.00  0.00    +0.067 S 
ATOM      3  O   UNL     1      -9.402  -7.796  17.032  0.00  0.00    -0.152 OA
ATOM      4  O   UNL     1     -10.989  -9.586  17.821  0.00  0.00    -0.152 OA
BRANCH   1  21
ATOM      2  S   UNL     1     -11.093  -8.532  14.459  0.00  0.00    -0.077 S 
ATOM     21  C   UNL     1     -10.150  -9.643  15.357  0.00  0.00    +0.143 A 
ATOM     26  C   UNL     1      -9.781 -10.736  14.604  0.00  0.00    +0.036 A 
ATOM     30  C   UNL     1     -10.278 -10.659  13.271  0.00  0.00    +0.010 A 
ATOM     31  C   UNL     1     -11.009  -9.511  13.056  0.00  0.00    +0.047 A 
ENDBRANCH   1  21
ENDBRANCH   9   1
BRANCH  11  16
ATOM     16  C   UNL     1      -6.428 -11.819  15.858  0.00  0.00    +0.060 C 
BRANCH  16  18
ATOM     10  N   UNL     1      -4.303 -12.791  15.301  0.00  0.00    -0.287 NA
ATOM     18  C   UNL     1      -5.215 -11.939  14.967  0.00  0.00    +0.044 C 
ATOM     19  C   UNL     1      -5.125 -11.074  13.763  0.00  0.00    +0.003 A 
ATOM     22  C   UNL     1      -3.856 -10.923  13.188  0.00  0.00    -0.033 A 
ATOM     23  C   UNL     1      -2.690 -11.620  13.823  0.00  0.00    +0.059 C 
ATOM     24  C   UNL     1      -3.154 -12.949  14.404  0.00  0.00    +0.146 C 
ATOM     25  C   UNL     1      -6.231 -10.419  13.218  0.00  0.00    +0.059 A 
ATOM     27  C   UNL     1      -3.696 -10.090  12.077  0.00  0.00    +0.053 A 
ATOM     28  C   UNL     1      -6.064  -9.603  12.099  0.00  0.00    +0.162 A 
ATOM     29  C   UNL     1      -4.800  -9.435  11.532  0.00  0.00    +0.162 A 
BRANCH  28   7
ATOM      7  O   UNL     1      -7.147  -8.967  11.569  0.00  0.00    -0.491 OA
ATOM     32  C   UNL     1      -7.928  -9.695  10.625  0.00  0.00    +0.277 C 
ENDBRANCH  28   7
BRANCH  29   8
ATOM      8  O   UNL     1      -4.631  -8.633  10.444  0.00  0.00    -0.491 OA
ATOM     33  C   UNL     1      -4.278  -9.270   9.217  0.00  0.00    +0.277 C 
ENDBRANCH  29   8
ENDBRANCH  16  18
ENDBRANCH  11  16
BRANCH  12  17
ATOM     17  C   UNL     1      -5.111 -12.614  18.493  0.00  0.00    +0.124 C 
BRANCH  17  20
ATOM      6  O   UNL     1      -3.285 -12.189  20.050  0.00  0.00    -0.251 OA
ATOM     20  C   UNL     1      -3.745 -12.152  18.919  0.00  0.00    +0.305 C 
BRANCH  20   5
ATOM      5  O   UNL     1      -3.069 -11.670  17.845  0.00  0.00    -0.481 OA
ATOM     34  H   UNL     1      -2.659 -12.389  17.318  0.00  0.00    +0.295 HD
ENDBRANCH  20   5
ENDBRANCH  17  20
ENDBRANCH  12  17
TORSDOF 9
ENDMDL
MODEL 6
REMARK VINA RESULT:      -6.2     12.963     16.080
REMARK  Name = 51136643
REMARK  11 active torsions:
REMARK  status: ('A' for Active; 'I' for Inactive)
REMARK    1  A    between atoms: S_1  and  N_9
REMARK    2  A    between atoms: S_1  and  C_21
REMARK    3  A    between atoms: O_5  and  C_20
REMARK    4  A    between atoms: O_7  and  C_28
REMARK    5  A    between atoms: O_7  and  C_32
REMARK    6  A    between atoms: O_8  and  C_29
REMARK    7  A    between atoms: O_8  and  C_33
REMARK    8  A    between atoms: C_11  and  C_16
REMARK    9  A    between atoms: C_12  and  C_17
REMARK   10  A    between atoms: C_16  and  C_18
REMARK   11  A    between atoms: C_17  and  C_20
REMARK                            x       y       z     vdW  Elec       q    Type
REMARK                         _______ _______ _______ _____ _____    ______ ____
ROOT
ATOM      9  N   UNL     1      10.923   8.356   6.373  0.00  0.00    -0.176 NA
ATOM     11  C   UNL     1      10.540   5.923   6.707  0.00  0.00    +0.014 C 
ATOM     12  C   UNL     1      10.085   6.217   8.157  0.00  0.00    +0.006 C 
ATOM     13  C   UNL     1      11.536   7.000   6.244  0.00  0.00    +0.113 C 
ATOM     14  C   UNL     1       9.554   7.650   8.299  0.00  0.00    +0.021 C 
ATOM     15  C   UNL     1      10.560   8.673   7.783  0.00  0.00    +0.110 C 
ENDROOT
BRANCH   9   1
ATOM      1  S   UNL     1      11.730   9.607   5.524  0.00  0.00    +0.067 S 
ATOM      3  O   UNL     1      11.744   9.288   4.113  0.00  0.00    -0.152 OA
ATOM      4  O   UNL     1      12.951   9.939   6.226  0.00  0.00    -0.152 OA
BRANCH   1  21
ATOM      2  S   UNL     1      11.190  12.234   6.701  0.00  0.00    -0.077 S 
ATOM     21  C   UNL     1      10.587  10.931   5.769  0.00  0.00    +0.143 A 
ATOM     26  C   UNL     1       9.288  11.142   5.364  0.00  0.00    +0.036 A 
ATOM     30  C   UNL     1       8.781  12.391   5.823  0.00  0.00    +0.010 A 
ATOM     31  C   UNL     1       9.712  13.087   6.562  0.00  0.00    +0.047 A 
ENDBRANCH   1  21
ENDBRANCH   9   1
BRANCH  11  16
ATOM     16  C   UNL     1       9.387   5.790   5.704  0.00  0.00    +0.060 C 
BRANCH  16  18
ATOM     10  N   UNL     1      10.561   4.395   4.141  0.00  0.00    -0.287 NA
ATOM     18  C   UNL     1       9.936   5.510   4.326  0.00  0.00    +0.044 C 
ATOM     19  C   UNL     1       9.739   6.525   3.259  0.00  0.00    +0.003 A 
ATOM     22  C   UNL     1      10.569   6.427   2.134  0.00  0.00    -0.033 A 
ATOM     23  C   UNL     1      11.593   5.332   2.088  0.00  0.00    +0.059 C 
ATOM     24  C   UNL     1      11.041   4.097   2.787  0.00  0.00    +0.146 C 
ATOM     25  C   UNL     1       8.791   7.546   3.352  0.00  0.00    +0.059 A 
ATOM     27  C   UNL     1      10.461   7.374   1.113  0.00  0.00    +0.053 A 
ATOM     28  C   UNL     1       8.681   8.478   2.320  0.00  0.00    +0.162 A 
ATOM     29  C   UNL     1       9.516   8.395   1.204  0.00  0.00    +0.162 A 
BRANCH  28   7
ATOM      7  O   UNL     1       7.753   9.472   2.415  0.00  0.00    -0.491 OA
ATOM     32  C   UNL     1       6.785   9.357   3.454  0.00  0.00    +0.277 C 
ENDBRANCH  28   7
BRANCH  29   8
ATOM      8  O   UNL     1       9.416   9.307   0.198  0.00  0.00    -0.491 OA
ATOM     33  C   UNL     1      10.335   9.179  -0.886  0.00  0.00    +0.277 C 
ENDBRANCH  29   8
ENDBRANCH  16  18
ENDBRANCH  11  16
BRANCH  12  17
ATOM     17  C   UNL     1       9.064   5.208   8.682  0.00  0.00    +0.124 C 
BRANCH  17  20
ATOM      6  O   UNL     1      10.402   4.655  10.644  0.00  0.00    -0.251 OA
ATOM     20  C   UNL     1       9.316   4.864  10.124  0.00  0.00    +0.305 C 
BRANCH  20   5
ATOM      5  O   UNL     1       8.136   4.812  10.795  0.00  0.00    -0.481 OA
ATOM     34  H   UNL     1       7.539   4.124  10.433  0.00  0.00    +0.295 HD
ENDBRANCH  20   5
ENDBRANCH  17  20
ENDBRANCH  12  17
TORSDOF 9
ENDMDL
MODEL 7
REMARK VINA RESULT:      -6.2     27.386     30.237
REMARK  Name = 51136643
REMARK  11 active torsions:
REMARK  status: ('A' for Active; 'I' for Inactive)
REMARK    1  A    between atoms: S_1  and  N_9
REMARK    2  A    between atoms: S_1  and  C_21
REMARK    3  A    between atoms: O_5  and  C_20
REMARK    4  A    between atoms: O_7  and  C_28
REMARK    5  A    between atoms: O_7  and  C_32
REMARK    6  A    between atoms: O_8  and  C_29
REMARK    7  A    between atoms: O_8  and  C_33
REMARK    8  A    between atoms: C_11  and  C_16
REMARK    9  A    between atoms: C_12  and  C_17
REMARK   10  A    between atoms: C_16  and  C_18
REMARK   11  A    between atoms: C_17  and  C_20
REMARK                            x       y       z     vdW  Elec       q    Type
REMARK                         _______ _______ _______ _____ _____    ______ ____
ROOT
ATOM      9  N   UNL     1      -4.253 -13.236  11.445  0.00  0.00    -0.176 NA
ATOM     11  C   UNL     1      -2.963 -11.139  11.776  0.00  0.00    +0.014 C 
ATOM     12  C   UNL     1      -3.228 -10.768  10.298  0.00  0.00    +0.006 C 
ATOM     13  C   UNL     1      -2.964 -12.668  11.940  0.00  0.00    +0.113 C 
ATOM     14  C   UNL     1      -4.502 -11.443   9.770  0.00  0.00    +0.021 C 
ATOM     15  C   UNL     1      -4.472 -12.950   9.998  0.00  0.00    +0.110 C 
ENDROOT
BRANCH   9   1
ATOM      1  S   UNL     1      -4.576 -14.848  11.930  0.00  0.00    +0.067 S 
ATOM      3  O   UNL     1      -3.375 -15.638  11.773  0.00  0.00    -0.152 OA
ATOM      4  O   UNL     1      -5.830 -15.271  11.346  0.00  0.00    -0.152 OA
BRANCH   1  21
ATOM      2  S   UNL     1      -3.910 -15.616  14.677  0.00  0.00    -0.077 S 
ATOM     21  C   UNL     1      -4.839 -14.601  13.659  0.00  0.00    +0.143 A 
ATOM     26  C   UNL     1      -5.650 -13.750  14.377  0.00  0.00    +0.036 A 
ATOM     30  C   UNL     1      -5.504 -13.932  15.783  0.00  0.00    +0.010 A 
ATOM     31  C   UNL     1      -4.589 -14.916  16.085  0.00  0.00    +0.047 A 
ENDBRANCH   1  21
ENDBRANCH   9   1
BRANCH  11  16
ATOM     16  C   UNL     1      -3.936 -10.491  12.769  0.00  0.00    +0.060 C 
BRANCH  16  18
ATOM     10  N   UNL     1      -2.015 -10.391  14.207  0.00  0.00    -0.287 NA
ATOM     18  C   UNL     1      -3.305 -10.426  14.139  0.00  0.00    +0.044 C 
ATOM     19  C   UNL     1      -4.188 -10.413  15.333  0.00  0.00    +0.003 A 
ATOM     22  C   UNL     1      -3.596 -10.741  16.560  0.00  0.00    -0.033 A 
ATOM     23  C   UNL     1      -2.138 -11.092  16.585  0.00  0.00    +0.059 C 
ATOM     24  C   UNL     1      -1.404 -10.268  15.535  0.00  0.00    +0.146 C 
ATOM     25  C   UNL     1      -5.549 -10.107  15.264  0.00  0.00    +0.059 A 
ATOM     27  C   UNL     1      -4.381 -10.786  17.715  0.00  0.00    +0.053 A 
ATOM     28  C   UNL     1      -6.320 -10.140  16.425  0.00  0.00    +0.162 A 
ATOM     29  C   UNL     1      -5.740 -10.481  17.647  0.00  0.00    +0.162 A 
BRANCH  28   7
ATOM      7  O   UNL     1      -7.648  -9.839  16.353  0.00  0.00    -0.491 OA
ATOM     32  C   UNL     1      -8.313 -10.132  15.127  0.00  0.00    +0.277 C 
ENDBRANCH  28   7
BRANCH  29   8
ATOM      8  O   UNL     1      -6.491 -10.521  18.782  0.00  0.00    -0.491 OA
ATOM     33  C   UNL     1      -6.039 -11.378  19.830  0.00  0.00    +0.277 C 
ENDBRANCH  29   8
ENDBRANCH  16  18
ENDBRANCH  11  16
BRANCH  12  17
ATOM     17  C   UNL     1      -3.277  -9.259  10.056  0.00  0.00    +0.124 C 
BRANCH  17  20
ATOM      6  O   UNL     1      -5.580  -8.505  10.324  0.00  0.00    -0.251 OA
ATOM     20  C   UNL     1      -4.641  -8.813   9.605  0.00  0.00    +0.305 C 
BRANCH  20   5
ATOM      5  O   UNL     1      -4.692  -8.799   8.248  0.00  0.00    -0.481 OA
ATOM     34  H   UNL     1      -5.161  -9.582   7.891  0.00  0.00    +0.295 HD
ENDBRANCH  20   5
ENDBRANCH  17  20
ENDBRANCH  12  17
TORSDOF 9
ENDMDL
MODEL 8
REMARK VINA RESULT:      -6.2      3.435      5.167
REMARK  Name = 51136643
REMARK  11 active torsions:
REMARK  status: ('A' for Active; 'I' for Inactive)
REMARK    1  A    between atoms: S_1  and  N_9
REMARK    2  A    between atoms: S_1  and  C_21
REMARK    3  A    between atoms: O_5  and  C_20
REMARK    4  A    between atoms: O_7  and  C_28
REMARK    5  A    between atoms: O_7  and  C_32
REMARK    6  A    between atoms: O_8  and  C_29
REMARK    7  A    between atoms: O_8  and  C_33
REMARK    8  A    between atoms: C_11  and  C_16
REMARK    9  A    between atoms: C_12  and  C_17
REMARK   10  A    between atoms: C_16  and  C_18
REMARK   11  A    between atoms: C_17  and  C_20
REMARK                            x       y       z     vdW  Elec       q    Type
REMARK                         _______ _______ _______ _____ _____    ______ ____
ROOT
ATOM      9  N   UNL     1      13.264  11.674  22.372  0.00  0.00    -0.176 NA
ATOM     11  C   UNL     1      13.470   9.314  21.622  0.00  0.00    +0.014 C 
ATOM     12  C   UNL     1      11.935   9.262  21.435  0.00  0.00    +0.006 C 
ATOM     13  C   UNL     1      13.830  10.335  22.714  0.00  0.00    +0.113 C 
ATOM     14  C   UNL     1      11.352  10.661  21.187  0.00  0.00    +0.021 C 
ATOM     15  C   UNL     1      11.777  11.644  22.272  0.00  0.00    +0.110 C 
ENDROOT
BRANCH   9   1
ATOM      1  S   UNL     1      13.913  12.991  23.256  0.00  0.00    +0.067 S 
ATOM      3  O   UNL     1      14.352  14.011  22.329  0.00  0.00    -0.152 OA
ATOM      4  O   UNL     1      14.801  12.478  24.277  0.00  0.00    -0.152 OA
BRANCH   1  21
ATOM      2  S   UNL     1      12.059  12.770  25.511  0.00  0.00    -0.077 S 
ATOM     21  C   UNL     1      12.451  13.577  24.053  0.00  0.00    +0.143 A 
ATOM     26  C   UNL     1      11.539  14.562  23.745  0.00  0.00    +0.036 A 
ATOM     30  C   UNL     1      10.505  14.658  24.721  0.00  0.00    +0.010 A 
ATOM     31  C   UNL     1      10.666  13.741  25.736  0.00  0.00    +0.047 A 
ENDBRANCH   1  21
ENDBRANCH   9   1
BRANCH  11  16
ATOM     16  C   UNL     1      14.248   9.608  20.333  0.00  0.00    +0.060 C 
BRANCH  16  18
ATOM     10  N   UNL     1      14.970   7.526  19.377  0.00  0.00    -0.287 NA
ATOM     18  C   UNL     1      15.293   8.541  20.109  0.00  0.00    +0.044 C 
ATOM     19  C   UNL     1      16.627   8.704  20.741  0.00  0.00    +0.003 A 
ATOM     22  C   UNL     1      17.421   7.554  20.843  0.00  0.00    -0.033 A 
ATOM     23  C   UNL     1      16.875   6.254  20.331  0.00  0.00    +0.059 C 
ATOM     24  C   UNL     1      16.004   6.521  19.111  0.00  0.00    +0.146 C 
ATOM     25  C   UNL     1      17.087   9.927  21.231  0.00  0.00    +0.059 A 
ATOM     27  C   UNL     1      18.670   7.631  21.464  0.00  0.00    +0.053 A 
ATOM     28  C   UNL     1      18.343   9.997  21.835  0.00  0.00    +0.162 A 
ATOM     29  C   UNL     1      19.132   8.852  21.954  0.00  0.00    +0.162 A 
BRANCH  28   7
ATOM      7  O   UNL     1      18.789  11.194  22.310  0.00  0.00    -0.491 OA
ATOM     32  C   UNL     1      17.872  12.285  22.283  0.00  0.00    +0.277 C 
ENDBRANCH  28   7
BRANCH  29   8
ATOM      8  O   UNL     1      20.355   8.914  22.549  0.00  0.00    -0.491 OA
ATOM     33  C   UNL     1      21.496   8.814  21.699  0.00  0.00    +0.277 C 
ENDBRANCH  29   8
ENDBRANCH  16  18
ENDBRANCH  11  16
BRANCH  12  17
ATOM     17  C   UNL     1      11.495   8.292  20.339  0.00  0.00    +0.124 C 
BRANCH  17  20
ATOM      6  O   UNL     1      11.319   6.376  21.837  0.00  0.00    -0.251 OA
ATOM     20  C   UNL     1      11.659   6.859  20.767  0.00  0.00    +0.305 C 
BRANCH  20   5
ATOM      5  O   UNL     1      12.254   6.150  19.774  0.00  0.00    -0.481 OA
ATOM     34  H   UNL     1      11.899   5.239  19.711  0.00  0.00    +0.295 HD
ENDBRANCH  20   5
ENDBRANCH  17  20
ENDBRANCH  12  17
TORSDOF 9
ENDMDL
MODEL 9
REMARK VINA RESULT:      -6.1     30.635     31.706
REMARK  Name = 51136643
REMARK  11 active torsions:
REMARK  status: ('A' for Active; 'I' for Inactive)
REMARK    1  A    between atoms: S_1  and  N_9
REMARK    2  A    between atoms: S_1  and  C_21
REMARK    3  A    between atoms: O_5  and  C_20
REMARK    4  A    between atoms: O_7  and  C_28
REMARK    5  A    between atoms: O_7  and  C_32
REMARK    6  A    between atoms: O_8  and  C_29
REMARK    7  A    between atoms: O_8  and  C_33
REMARK    8  A    between atoms: C_11  and  C_16
REMARK    9  A    between atoms: C_12  and  C_17
REMARK   10  A    between atoms: C_16  and  C_18
REMARK   11  A    between atoms: C_17  and  C_20
REMARK                            x       y       z     vdW  Elec       q    Type
REMARK                         _______ _______ _______ _____ _____    ______ ____
ROOT
ATOM      9  N   UNL     1     -14.905   4.065  32.911  0.00  0.00    -0.176 NA
ATOM     11  C   UNL     1     -14.946   3.407  30.515  0.00  0.00    +0.014 C 
ATOM     12  C   UNL     1     -14.550   1.969  30.926  0.00  0.00    +0.006 C 
ATOM     13  C   UNL     1     -14.408   4.413  31.547  0.00  0.00    +0.113 C 
ATOM     14  C   UNL     1     -14.975   1.659  32.369  0.00  0.00    +0.021 C 
ATOM     15  C   UNL     1     -14.454   2.711  33.343  0.00  0.00    +0.110 C 
ENDROOT
BRANCH   9   1
ATOM      1  S   UNL     1     -14.741   5.301  34.087  0.00  0.00    +0.067 S 
ATOM      3  O   UNL     1     -13.683   6.200  33.682  0.00  0.00    -0.152 OA
ATOM      4  O   UNL     1     -14.747   4.700  35.403  0.00  0.00    -0.152 OA
BRANCH   1  21
ATOM      2  S   UNL     1     -17.634   5.338  34.537  0.00  0.00    -0.077 S 
ATOM     21  C   UNL     1     -16.279   6.140  33.867  0.00  0.00    +0.143 A 
ATOM     26  C   UNL     1     -16.628   7.324  33.257  0.00  0.00    +0.036 A 
ATOM     30  C   UNL     1     -18.028   7.578  33.342  0.00  0.00    +0.010 A 
ATOM     31  C   UNL     1     -18.694   6.577  34.014  0.00  0.00    +0.047 A 
ENDBRANCH   1  21
ENDBRANCH   9   1
BRANCH  11  16
ATOM     16  C   UNL     1     -16.453   3.606  30.307  0.00  0.00    +0.060 C 
BRANCH  16  18
ATOM     10  N   UNL     1     -16.795   5.937  29.843  0.00  0.00    -0.287 NA
ATOM     18  C   UNL     1     -16.693   4.748  29.349  0.00  0.00    +0.044 C 
ATOM     19  C   UNL     1     -16.805   4.452  27.898  0.00  0.00    +0.003 A 
ATOM     22  C   UNL     1     -17.400   5.436  27.097  0.00  0.00    -0.033 A 
ATOM     23  C   UNL     1     -17.890   6.695  27.749  0.00  0.00    +0.059 C 
ATOM     24  C   UNL     1     -16.968   7.053  28.908  0.00  0.00    +0.146 C 
ATOM     25  C   UNL     1     -16.361   3.254  27.334  0.00  0.00    +0.059 A 
ATOM     27  C   UNL     1     -17.572   5.203  25.730  0.00  0.00    +0.053 A 
ATOM     28  C   UNL     1     -16.523   3.038  25.966  0.00  0.00    +0.162 A 
ATOM     29  C   UNL     1     -17.130   4.007  25.166  0.00  0.00    +0.162 A 
BRANCH  28   7
ATOM      7  O   UNL     1     -16.087   1.867  25.419  0.00  0.00    -0.491 OA
ATOM     32  C   UNL     1     -16.943   0.735  25.545  0.00  0.00    +0.277 C 
ENDBRANCH  28   7
BRANCH  29   8
ATOM      8  O   UNL     1     -17.297   3.796  23.831  0.00  0.00    -0.491 OA
ATOM     33  C   UNL     1     -16.848   4.825  22.950  0.00  0.00    +0.277 C 
ENDBRANCH  29   8
ENDBRANCH  16  18
ENDBRANCH  11  16
BRANCH  12  17
ATOM     17  C   UNL     1     -15.079   0.903  29.967  0.00  0.00    +0.124 C 
BRANCH  17  20
ATOM      6  O   UNL     1     -13.182  -0.629  29.935  0.00  0.00    -0.251 OA
ATOM     20  C   UNL     1     -14.366  -0.409  30.147  0.00  0.00    +0.305 C 
BRANCH  20   5
ATOM      5  O   UNL     1     -15.240  -1.348  30.591  0.00  0.00    -0.481 OA
ATOM     34  H   UNL     1     -15.474  -1.992  29.888  0.00  0.00    +0.295 HD
ENDBRANCH  20   5
ENDBRANCH  17  20
ENDBRANCH  12  17
TORSDOF 9
ENDMDL
MODEL 10
REMARK VINA RESULT:      -6.0     26.736     29.616
REMARK  Name = 51136643
REMARK  11 active torsions:
REMARK  status: ('A' for Active; 'I' for Inactive)
REMARK    1  A    between atoms: S_1  and  N_9
REMARK    2  A    between atoms: S_1  and  C_21
REMARK    3  A    between atoms: O_5  and  C_20
REMARK    4  A    between atoms: O_7  and  C_28
REMARK    5  A    between atoms: O_7  and  C_32
REMARK    6  A    between atoms: O_8  and  C_29
REMARK    7  A    between atoms: O_8  and  C_33
REMARK    8  A    between atoms: C_11  and  C_16
REMARK    9  A    between atoms: C_12  and  C_17
REMARK   10  A    between atoms: C_16  and  C_18
REMARK   11  A    between atoms: C_17  and  C_20
REMARK                            x       y       z     vdW  Elec       q    Type
REMARK                         _______ _______ _______ _____ _____    ______ ____
ROOT
ATOM      9  N   UNL     1      -6.373 -10.643  16.990  0.00  0.00    -0.176 NA
ATOM     11  C   UNL     1      -4.582 -10.203  15.324  0.00  0.00    +0.014 C 
ATOM     12  C   UNL     1      -3.532 -10.661  16.365  0.00  0.00    +0.006 C 
ATOM     13  C   UNL     1      -5.816  -9.632  16.043  0.00  0.00    +0.113 C 
ATOM     14  C   UNL     1      -4.145 -11.620  17.396  0.00  0.00    +0.021 C 
ATOM     15  C   UNL     1      -5.389 -11.024  18.043  0.00  0.00    +0.110 C 
ENDROOT
BRANCH   9   1
ATOM      1  S   UNL     1      -7.961 -10.325  17.550  0.00  0.00    +0.067 S 
ATOM      3  O   UNL     1      -8.233  -8.910  17.420  0.00  0.00    -0.152 OA
ATOM      4  O   UNL     1      -8.161 -11.010  18.809  0.00  0.00    -0.152 OA
BRANCH   1  21
ATOM      2  S   UNL     1     -10.594 -11.107  16.534  0.00  0.00    -0.077 S 
ATOM     21  C   UNL     1      -8.898 -11.172  16.316  0.00  0.00    +0.143 A 
ATOM     26  C   UNL     1      -8.547 -11.890  15.195  0.00  0.00    +0.036 A 
ATOM     30  C   UNL     1      -9.688 -12.392  14.503  0.00  0.00    +0.010 A 
ATOM     31  C   UNL     1     -10.866 -12.039  15.124  0.00  0.00    +0.047 A 
ENDBRANCH   1  21
ENDBRANCH   9   1
BRANCH  11  16
ATOM     16  C   UNL     1      -4.997 -11.296  14.331  0.00  0.00    +0.060 C 
BRANCH  16  18
ATOM     10  N   UNL     1      -3.357 -11.195  12.579  0.00  0.00    -0.287 NA
ATOM     18  C   UNL     1      -4.566 -10.912  12.936  0.00  0.00    +0.044 C 
ATOM     19  C   UNL     1      -5.541 -10.226  12.050  0.00  0.00    +0.003 A 
ATOM     22  C   UNL     1      -5.019  -9.548  10.941  0.00  0.00    -0.033 A 
ATOM     23  C   UNL     1      -3.533  -9.547  10.732  0.00  0.00    +0.059 C 
ATOM     24  C   UNL     1      -2.958 -10.875  11.204  0.00  0.00    +0.146 C 
ATOM     25  C   UNL     1      -6.916 -10.228  12.295  0.00  0.00    +0.059 A 
ATOM     27  C   UNL     1      -5.879  -8.849  10.090  0.00  0.00    +0.053 A 
ATOM     28  C   UNL     1      -7.768  -9.541  11.431  0.00  0.00    +0.162 A 
ATOM     29  C   UNL     1      -7.252  -8.850  10.333  0.00  0.00    +0.162 A 
BRANCH  28   7
ATOM      7  O   UNL     1      -9.110  -9.547  11.672  0.00  0.00    -0.491 OA
ATOM     32  C   UNL     1      -9.848 -10.673  11.205  0.00  0.00    +0.277 C 
ENDBRANCH  28   7
BRANCH  29   8
ATOM      8  O   UNL     1      -8.081  -8.171   9.492  0.00  0.00    -0.491 OA
ATOM     33  C   UNL     1      -8.184  -8.655   8.154  0.00  0.00    +0.277 C 
ENDBRANCH  29   8
ENDBRANCH  16  18
ENDBRANCH  11  16
BRANCH  12  17
ATOM     17  C   UNL     1      -2.285 -11.275  15.730  0.00  0.00    +0.124 C 
BRANCH  17  20
ATOM      6  O   UNL     1      -0.309  -9.922  16.186  0.00  0.00    -0.251 OA
ATOM     20  C   UNL     1      -1.234 -10.235  15.452  0.00  0.00    +0.305 C 
BRANCH  20   5
ATOM      5  O   UNL     1      -1.457  -9.672  14.237  0.00  0.00    -0.481 OA
ATOM     34  H   UNL     1      -0.849 -10.024  13.553  0.00  0.00    +0.295 HD
ENDBRANCH  20   5
ENDBRANCH  17  20
ENDBRANCH  12  17
TORSDOF 9
ENDMDL
