MODEL 1
REMARK VINA RESULT:      -7.2      0.000      0.000
REMARK  Name = 71694322
REMARK  5 active torsions:
REMARK  status: ('A' for Active; 'I' for Inactive)
REMARK    1  A    between atoms: O_6  and  C_26
REMARK    2  A    between atoms: O_6  and  C_27
REMARK    3  A    between atoms: C_10  and  C_13
REMARK    4  A    between atoms: C_14  and  C_18
REMARK    5  A    between atoms: C_19  and  C_21
REMARK                            x       y       z     vdW  Elec       q    Type
REMARK                         _______ _______ _______ _____ _____    ______ ____
ROOT
ATOM      8  N   UNL     1      16.955   7.267  20.249  0.00  0.00    -0.340 N 
ATOM      9  N   UNL     1      15.972   6.275  18.522  0.00  0.00    -0.238 NA
ATOM     18  C   UNL     1      15.880   7.246  19.404  0.00  0.00    +0.130 A 
ATOM     19  C   UNL     1      17.784   6.244  19.883  0.00  0.00    +0.066 A 
ATOM     20  C   UNL     1      17.156   5.647  18.816  0.00  0.00    +0.139 A 
ATOM     28  H   UNL     1      17.096   7.920  21.010  0.00  0.00    +0.167 HD
ENDROOT
BRANCH  18  14
ATOM      4  O   UNL     1      15.674  10.121  20.860  0.00  0.00    -0.376 OA
ATOM      5  O   UNL     1      12.427   6.622  19.406  0.00  0.00    -0.275 OA
ATOM      7  N   UNL     1      13.867   7.949  20.671  0.00  0.00    -0.287 N 
ATOM     13  C   UNL     1      12.780   7.084  20.489  0.00  0.00    +0.219 C 
ATOM     14  C   UNL     1      14.750   8.262  19.531  0.00  0.00    +0.167 C 
ATOM     15  C   UNL     1      14.275   8.493  21.972  0.00  0.00    +0.136 C 
ATOM     16  C   UNL     1      15.207   9.731  19.568  0.00  0.00    +0.190 C 
ATOM     17  C   UNL     1      14.658   9.959  21.847  0.00  0.00    +0.179 C 
BRANCH  13  10
ATOM     10  C   UNL     1      11.993   6.701  21.700  0.00  0.00    +0.075 C 
ATOM     11  C   UNL     1      10.553   7.082  21.761  0.00  0.00    +0.013 C 
ATOM     12  C   UNL     1      10.945   5.648  21.564  0.00  0.00    +0.013 C 
ENDBRANCH  13  10
ENDBRANCH  18  14
BRANCH  19  21
ATOM     21  C   UNL     1      19.025   5.955  20.551  0.00  0.00    +0.000 A 
ATOM     22  C   UNL     1      19.892   4.996  20.027  0.00  0.00    +0.013 A 
ATOM     23  C   UNL     1      19.363   6.634  21.721  0.00  0.00    +0.013 A 
ATOM     24  C   UNL     1      21.096   4.716  20.673  0.00  0.00    +0.046 A 
ATOM     25  C   UNL     1      20.567   6.355  22.368  0.00  0.00    +0.046 A 
ATOM     26  C   UNL     1      21.434   5.395  21.844  0.00  0.00    +0.130 A 
BRANCH  26   6
ATOM      6  O   UNL     1      22.610   5.124  22.472  0.00  0.00    -0.406 OA
BRANCH   6  27
ATOM      1  F   UNL     1      23.754   3.261  21.802  0.00  0.00    -0.133 F 
ATOM      2  F   UNL     1      23.570   3.698  23.936  0.00  0.00    -0.133 F 
ATOM      3  F   UNL     1      21.814   3.010  22.831  0.00  0.00    -0.133 F 
ATOM     27  C   UNL     1      22.931   3.765  22.746  0.00  0.00    +0.575 C 
ENDBRANCH   6  27
ENDBRANCH  26   6
ENDBRANCH  19  21
TORSDOF 5
ENDMDL
MODEL 2
REMARK VINA RESULT:      -7.1      1.626      2.178
REMARK  Name = 71694322
REMARK  5 active torsions:
REMARK  status: ('A' for Active; 'I' for Inactive)
REMARK    1  A    between atoms: O_6  and  C_26
REMARK    2  A    between atoms: O_6  and  C_27
REMARK    3  A    between atoms: C_10  and  C_13
REMARK    4  A    between atoms: C_14  and  C_18
REMARK    5  A    between atoms: C_19  and  C_21
REMARK                            x       y       z     vdW  Elec       q    Type
REMARK                         _______ _______ _______ _____ _____    ______ ____
ROOT
ATOM      8  N   UNL     1      16.277   6.778  19.574  0.00  0.00    -0.340 N 
ATOM      9  N   UNL     1      15.229   8.262  20.853  0.00  0.00    -0.238 NA
ATOM     18  C   UNL     1      15.134   7.498  19.788  0.00  0.00    +0.130 A 
ATOM     19  C   UNL     1      17.157   7.104  20.568  0.00  0.00    +0.066 A 
ATOM     20  C   UNL     1      16.488   8.021  21.344  0.00  0.00    +0.139 A 
ATOM     28  H   UNL     1      16.435   6.132  18.812  0.00  0.00    +0.167 HD
ENDROOT
BRANCH  18  14
ATOM      4  O   UNL     1      14.192   9.179  17.196  0.00  0.00    -0.376 OA
ATOM      5  O   UNL     1      11.945   6.252  20.555  0.00  0.00    -0.275 OA
ATOM      7  N   UNL     1      12.760   8.097  19.386  0.00  0.00    -0.287 N 
ATOM     13  C   UNL     1      11.879   7.442  20.258  0.00  0.00    +0.219 C 
ATOM     14  C   UNL     1      13.933   7.375  18.856  0.00  0.00    +0.167 C 
ATOM     15  C   UNL     1      12.668   9.521  19.041  0.00  0.00    +0.136 C 
ATOM     16  C   UNL     1      14.210   7.765  17.393  0.00  0.00    +0.190 C 
ATOM     17  C   UNL     1      12.929   9.734  17.558  0.00  0.00    +0.179 C 
BRANCH  13  10
ATOM     10  C   UNL     1      10.780   8.254  20.864  0.00  0.00    +0.075 C 
ATOM     11  C   UNL     1      10.145   7.763  22.120  0.00  0.00    +0.013 C 
ATOM     12  C   UNL     1      11.046   8.961  22.151  0.00  0.00    +0.013 C 
ENDBRANCH  13  10
ENDBRANCH  18  14
BRANCH  19  21
ATOM     21  C   UNL     1      18.476   6.539  20.673  0.00  0.00    +0.000 A 
ATOM     22  C   UNL     1      18.803   5.394  19.948  0.00  0.00    +0.013 A 
ATOM     23  C   UNL     1      19.427   7.136  21.501  0.00  0.00    +0.013 A 
ATOM     24  C   UNL     1      20.082   4.846  20.049  0.00  0.00    +0.046 A 
ATOM     25  C   UNL     1      20.706   6.589  21.602  0.00  0.00    +0.046 A 
ATOM     26  C   UNL     1      21.034   5.443  20.876  0.00  0.00    +0.130 A 
BRANCH  26   6
ATOM      6  O   UNL     1      22.283   4.910  20.973  0.00  0.00    -0.406 OA
BRANCH   6  27
ATOM      1  F   UNL     1      22.072   2.644  20.750  0.00  0.00    -0.133 F 
ATOM      2  F   UNL     1      23.725   3.459  21.926  0.00  0.00    -0.133 F 
ATOM      3  F   UNL     1      21.693   3.563  22.725  0.00  0.00    -0.133 F 
ATOM     27  C   UNL     1      22.426   3.638  21.593  0.00  0.00    +0.575 C 
ENDBRANCH   6  27
ENDBRANCH  26   6
ENDBRANCH  19  21
TORSDOF 5
ENDMDL
MODEL 3
REMARK VINA RESULT:      -7.0     17.654     19.889
REMARK  Name = 71694322
REMARK  5 active torsions:
REMARK  status: ('A' for Active; 'I' for Inactive)
REMARK    1  A    between atoms: O_6  and  C_26
REMARK    2  A    between atoms: O_6  and  C_27
REMARK    3  A    between atoms: C_10  and  C_13
REMARK    4  A    between atoms: C_14  and  C_18
REMARK    5  A    between atoms: C_19  and  C_21
REMARK                            x       y       z     vdW  Elec       q    Type
REMARK                         _______ _______ _______ _____ _____    ______ ____
ROOT
ATOM      8  N   UNL     1      11.805   4.840   3.139  0.00  0.00    -0.340 N 
ATOM      9  N   UNL     1      12.695   6.483   1.939  0.00  0.00    -0.238 NA
ATOM     18  C   UNL     1      12.453   5.193   1.988  0.00  0.00    +0.130 A 
ATOM     19  C   UNL     1      11.622   5.980   3.871  0.00  0.00    +0.066 A 
ATOM     20  C   UNL     1      12.179   6.981   3.109  0.00  0.00    +0.139 A 
ATOM     28  H   UNL     1      11.524   3.903   3.397  0.00  0.00    +0.167 HD
ENDROOT
BRANCH  18  14
ATOM      4  O   UNL     1      15.215   4.493   0.467  0.00  0.00    -0.376 OA
ATOM      5  O   UNL     1      10.361   3.797  -0.459  0.00  0.00    -0.275 OA
ATOM      7  N   UNL     1      12.534   4.643  -0.430  0.00  0.00    -0.287 N 
ATOM     13  C   UNL     1      11.262   4.446  -0.986  0.00  0.00    +0.219 C 
ATOM     14  C   UNL     1      12.818   4.154   0.933  0.00  0.00    +0.167 C 
ATOM     15  C   UNL     1      13.599   5.422  -1.072  0.00  0.00    +0.136 C 
ATOM     16  C   UNL     1      14.252   3.606   1.038  0.00  0.00    +0.190 C 
ATOM     17  C   UNL     1      14.944   4.731  -0.913  0.00  0.00    +0.179 C 
BRANCH  13  10
ATOM     10  C   UNL     1      10.987   5.070  -2.315  0.00  0.00    +0.075 C 
ATOM     11  C   UNL     1      11.090   4.218  -3.534  0.00  0.00    +0.013 C 
ATOM     12  C   UNL     1       9.748   4.673  -3.044  0.00  0.00    +0.013 C 
ENDBRANCH  13  10
ENDBRANCH  18  14
BRANCH  19  21
ATOM     21  C   UNL     1      10.968   6.001   5.152  0.00  0.00    +0.000 A 
ATOM     22  C   UNL     1       9.622   5.649   5.254  0.00  0.00    +0.013 A 
ATOM     23  C   UNL     1      11.679   6.374   6.293  0.00  0.00    +0.013 A 
ATOM     24  C   UNL     1       8.988   5.668   6.497  0.00  0.00    +0.046 A 
ATOM     25  C   UNL     1      11.045   6.394   7.535  0.00  0.00    +0.046 A 
ATOM     26  C   UNL     1       9.700   6.041   7.637  0.00  0.00    +0.130 A 
BRANCH  26   6
ATOM      6  O   UNL     1       9.082   6.057   8.850  0.00  0.00    -0.406 OA
BRANCH   6  27
ATOM      1  F   UNL     1       9.320   3.784   8.945  0.00  0.00    -0.133 F 
ATOM      2  F   UNL     1      10.315   5.032  10.438  0.00  0.00    -0.133 F 
ATOM      3  F   UNL     1       8.143   4.801  10.516  0.00  0.00    -0.133 F 
ATOM     27  C   UNL     1       9.201   4.909   9.682  0.00  0.00    +0.575 C 
ENDBRANCH   6  27
ENDBRANCH  26   6
ENDBRANCH  19  21
TORSDOF 5
ENDMDL
MODEL 4
REMARK VINA RESULT:      -6.9      1.606      3.341
REMARK  Name = 71694322
REMARK  5 active torsions:
REMARK  status: ('A' for Active; 'I' for Inactive)
REMARK    1  A    between atoms: O_6  and  C_26
REMARK    2  A    between atoms: O_6  and  C_27
REMARK    3  A    between atoms: C_10  and  C_13
REMARK    4  A    between atoms: C_14  and  C_18
REMARK    5  A    between atoms: C_19  and  C_21
REMARK                            x       y       z     vdW  Elec       q    Type
REMARK                         _______ _______ _______ _____ _____    ______ ____
ROOT
ATOM      8  N   UNL     1      15.741   7.044  21.382  0.00  0.00    -0.340 N 
ATOM      9  N   UNL     1      14.559   6.976  19.503  0.00  0.00    -0.238 NA
ATOM     18  C   UNL     1      14.527   7.249  20.788  0.00  0.00    +0.130 A 
ATOM     19  C   UNL     1      16.603   6.612  20.413  0.00  0.00    +0.066 A 
ATOM     20  C   UNL     1      15.850   6.578  19.262  0.00  0.00    +0.139 A 
ATOM     28  H   UNL     1      15.951   7.180  22.362  0.00  0.00    +0.167 HD
ENDROOT
BRANCH  18  14
ATOM      4  O   UNL     1      11.342   7.093  20.272  0.00  0.00    -0.376 OA
ATOM      5  O   UNL     1      14.378   9.993  22.970  0.00  0.00    -0.275 OA
ATOM      7  N   UNL     1      13.008   9.147  21.284  0.00  0.00    -0.287 N 
ATOM     13  C   UNL     1      13.636  10.171  22.008  0.00  0.00    +0.219 C 
ATOM     14  C   UNL     1      13.325   7.738  21.589  0.00  0.00    +0.167 C 
ATOM     15  C   UNL     1      12.123   9.376  20.135  0.00  0.00    +0.136 C 
ATOM     16  C   UNL     1      12.072   6.851  21.476  0.00  0.00    +0.190 C 
ATOM     17  C   UNL     1      10.918   8.452  20.190  0.00  0.00    +0.179 C 
BRANCH  13  10
ATOM     10  C   UNL     1      13.376  11.578  21.576  0.00  0.00    +0.075 C 
ATOM     11  C   UNL     1      12.295  12.342  22.260  0.00  0.00    +0.013 C 
ATOM     12  C   UNL     1      13.733  12.684  22.511  0.00  0.00    +0.013 C 
ENDBRANCH  13  10
ENDBRANCH  18  14
BRANCH  19  21
ATOM     21  C   UNL     1      17.983   6.293  20.666  0.00  0.00    +0.000 A 
ATOM     22  C   UNL     1      18.651   6.889  21.736  0.00  0.00    +0.013 A 
ATOM     23  C   UNL     1      18.653   5.389  19.842  0.00  0.00    +0.013 A 
ATOM     24  C   UNL     1      19.989   6.579  21.982  0.00  0.00    +0.046 A 
ATOM     25  C   UNL     1      19.990   5.079  20.088  0.00  0.00    +0.046 A 
ATOM     26  C   UNL     1      20.659   5.674  21.158  0.00  0.00    +0.130 A 
BRANCH  26   6
ATOM      6  O   UNL     1      21.963   5.370  21.400  0.00  0.00    -0.406 OA
BRANCH   6  27
ATOM      1  F   UNL     1      21.420   3.225  21.976  0.00  0.00    -0.133 F 
ATOM      2  F   UNL     1      23.516   3.844  21.995  0.00  0.00    -0.133 F 
ATOM      3  F   UNL     1      22.167   4.594  23.542  0.00  0.00    -0.133 F 
ATOM     27  C   UNL     1      22.251   4.256  22.237  0.00  0.00    +0.575 C 
ENDBRANCH   6  27
ENDBRANCH  26   6
ENDBRANCH  19  21
TORSDOF 5
ENDMDL
MODEL 5
REMARK VINA RESULT:      -6.8      4.802      8.924
REMARK  Name = 71694322
REMARK  5 active torsions:
REMARK  status: ('A' for Active; 'I' for Inactive)
REMARK    1  A    between atoms: O_6  and  C_26
REMARK    2  A    between atoms: O_6  and  C_27
REMARK    3  A    between atoms: C_10  and  C_13
REMARK    4  A    between atoms: C_14  and  C_18
REMARK    5  A    between atoms: C_19  and  C_21
REMARK                            x       y       z     vdW  Elec       q    Type
REMARK                         _______ _______ _______ _____ _____    ______ ____
ROOT
ATOM      8  N   UNL     1      17.923   6.974  21.877  0.00  0.00    -0.340 N 
ATOM      9  N   UNL     1      19.484   6.179  20.513  0.00  0.00    -0.238 NA
ATOM     18  C   UNL     1      19.247   6.680  21.704  0.00  0.00    +0.130 A 
ATOM     19  C   UNL     1      17.275   6.639  20.721  0.00  0.00    +0.066 A 
ATOM     20  C   UNL     1      18.259   6.150  19.895  0.00  0.00    +0.139 A 
ATOM     28  H   UNL     1      17.510   7.375  22.709  0.00  0.00    +0.167 HD
ENDROOT
BRANCH  18  14
ATOM      4  O   UNL     1      20.742   9.350  22.738  0.00  0.00    -0.376 OA
ATOM      5  O   UNL     1      21.648   4.447  22.954  0.00  0.00    -0.275 OA
ATOM      7  N   UNL     1      21.645   6.696  22.339  0.00  0.00    -0.287 N 
ATOM     13  C   UNL     1      22.195   5.409  22.420  0.00  0.00    +0.219 C 
ATOM     14  C   UNL     1      20.267   6.931  22.810  0.00  0.00    +0.167 C 
ATOM     15  C   UNL     1      22.312   7.835  21.696  0.00  0.00    +0.136 C 
ATOM     16  C   UNL     1      20.142   8.301  23.500  0.00  0.00    +0.190 C 
ATOM     17  C   UNL     1      22.129   9.101  22.519  0.00  0.00    +0.179 C 
BRANCH  13  10
ATOM     10  C   UNL     1      23.545   5.197  21.815  0.00  0.00    +0.075 C 
ATOM     11  C   UNL     1      24.081   3.808  21.744  0.00  0.00    +0.013 C 
ATOM     12  C   UNL     1      23.631   4.506  20.496  0.00  0.00    +0.013 C 
ENDBRANCH  13  10
ENDBRANCH  18  14
BRANCH  19  21
ATOM     21  C   UNL     1      15.858   6.807  20.531  0.00  0.00    +0.000 A 
ATOM     22  C   UNL     1      15.032   7.056  21.627  0.00  0.00    +0.013 A 
ATOM     23  C   UNL     1      15.312   6.722  19.250  0.00  0.00    +0.013 A 
ATOM     24  C   UNL     1      13.659   7.220  21.443  0.00  0.00    +0.046 A 
ATOM     25  C   UNL     1      13.939   6.887  19.066  0.00  0.00    +0.046 A 
ATOM     26  C   UNL     1      13.112   7.135  20.162  0.00  0.00    +0.130 A 
BRANCH  26   6
ATOM      6  O   UNL     1      11.773   7.298  19.982  0.00  0.00    -0.406 OA
BRANCH   6  27
ATOM      1  F   UNL     1      12.260   9.510  19.667  0.00  0.00    -0.133 F 
ATOM      2  F   UNL     1      10.426   8.683  18.814  0.00  0.00    -0.133 F 
ATOM      3  F   UNL     1      10.564   8.966  20.976  0.00  0.00    -0.133 F 
ATOM     27  C   UNL     1      11.264   8.623  19.873  0.00  0.00    +0.575 C 
ENDBRANCH   6  27
ENDBRANCH  26   6
ENDBRANCH  19  21
TORSDOF 5
ENDMDL
MODEL 6
REMARK VINA RESULT:      -6.7     17.385     19.325
REMARK  Name = 71694322
REMARK  5 active torsions:
REMARK  status: ('A' for Active; 'I' for Inactive)
REMARK    1  A    between atoms: O_6  and  C_26
REMARK    2  A    between atoms: O_6  and  C_27
REMARK    3  A    between atoms: C_10  and  C_13
REMARK    4  A    between atoms: C_14  and  C_18
REMARK    5  A    between atoms: C_19  and  C_21
REMARK                            x       y       z     vdW  Elec       q    Type
REMARK                         _______ _______ _______ _____ _____    ______ ____
ROOT
ATOM      8  N   UNL     1      10.483   7.133   4.235  0.00  0.00    -0.340 N 
ATOM      9  N   UNL     1       8.692   8.403   4.570  0.00  0.00    -0.238 NA
ATOM     18  C   UNL     1       9.848   8.018   5.062  0.00  0.00    +0.130 A 
ATOM     19  C   UNL     1       9.679   6.941   3.146  0.00  0.00    +0.066 A 
ATOM     20  C   UNL     1       8.580   7.736   3.375  0.00  0.00    +0.139 A 
ATOM     28  H   UNL     1      11.379   6.698   4.411  0.00  0.00    +0.167 HD
ENDROOT
BRANCH  18  14
ATOM      4  O   UNL     1      12.874   8.758   5.913  0.00  0.00    -0.376 OA
ATOM      5  O   UNL     1       8.767   7.243   8.309  0.00  0.00    -0.275 OA
ATOM      7  N   UNL     1      10.830   7.302   7.224  0.00  0.00    -0.287 N 
ATOM     13  C   UNL     1       9.879   6.763   8.102  0.00  0.00    +0.219 C 
ATOM     14  C   UNL     1      10.472   8.459   6.381  0.00  0.00    +0.167 C 
ATOM     15  C   UNL     1      12.155   6.715   6.988  0.00  0.00    +0.136 C 
ATOM     16  C   UNL     1      11.657   9.430   6.240  0.00  0.00    +0.190 C 
ATOM     17  C   UNL     1      13.219   7.799   6.911  0.00  0.00    +0.179 C 
BRANCH  13  10
ATOM     10  C   UNL     1      10.250   5.517   8.838  0.00  0.00    +0.075 C 
ATOM     11  C   UNL     1       9.201   4.829   9.644  0.00  0.00    +0.013 C 
ATOM     12  C   UNL     1       9.689   4.218   8.365  0.00  0.00    +0.013 C 
ENDBRANCH  13  10
ENDBRANCH  18  14
BRANCH  19  21
ATOM     21  C   UNL     1      10.021   6.069   2.054  0.00  0.00    +0.000 A 
ATOM     22  C   UNL     1       9.932   6.529   0.740  0.00  0.00    +0.013 A 
ATOM     23  C   UNL     1      10.440   4.763   2.310  0.00  0.00    +0.013 A 
ATOM     24  C   UNL     1      10.265   5.683  -0.319  0.00  0.00    +0.046 A 
ATOM     25  C   UNL     1      10.773   3.918   1.251  0.00  0.00    +0.046 A 
ATOM     26  C   UNL     1      10.684   4.378  -0.063  0.00  0.00    +0.130 A 
BRANCH  26   6
ATOM      6  O   UNL     1      11.012   3.554  -1.096  0.00  0.00    -0.406 OA
BRANCH   6  27
ATOM      1  F   UNL     1      13.054   2.815  -0.381  0.00  0.00    -0.133 F 
ATOM      2  F   UNL     1      12.492   2.557  -2.478  0.00  0.00    -0.133 F 
ATOM      3  F   UNL     1      12.964   4.558  -1.737  0.00  0.00    -0.133 F 
ATOM     27  C   UNL     1      12.388   3.381  -1.410  0.00  0.00    +0.575 C 
ENDBRANCH   6  27
ENDBRANCH  26   6
ENDBRANCH  19  21
TORSDOF 5
ENDMDL
MODEL 7
REMARK VINA RESULT:      -6.6     17.190     19.636
REMARK  Name = 71694322
REMARK  5 active torsions:
REMARK  status: ('A' for Active; 'I' for Inactive)
REMARK    1  A    between atoms: O_6  and  C_26
REMARK    2  A    between atoms: O_6  and  C_27
REMARK    3  A    between atoms: C_10  and  C_13
REMARK    4  A    between atoms: C_14  and  C_18
REMARK    5  A    between atoms: C_19  and  C_21
REMARK                            x       y       z     vdW  Elec       q    Type
REMARK                         _______ _______ _______ _____ _____    ______ ____
ROOT
ATOM      8  N   UNL     1      11.570   5.331   2.688  0.00  0.00    -0.340 N 
ATOM      9  N   UNL     1      10.591   6.263   0.926  0.00  0.00    -0.238 NA
ATOM     18  C   UNL     1      11.581   5.501   1.331  0.00  0.00    +0.130 A 
ATOM     19  C   UNL     1      10.503   6.032   3.179  0.00  0.00    +0.066 A 
ATOM     20  C   UNL     1       9.915   6.598   2.072  0.00  0.00    +0.139 A 
ATOM     28  H   UNL     1      12.238   4.792   3.222  0.00  0.00    +0.167 HD
ENDROOT
BRANCH  18  14
ATOM      4  O   UNL     1      13.603   3.031   1.825  0.00  0.00    -0.376 OA
ATOM      5  O   UNL     1      13.499   7.004  -1.193  0.00  0.00    -0.275 OA
ATOM      7  N   UNL     1      13.943   5.548   0.573  0.00  0.00    -0.287 N 
ATOM     13  C   UNL     1      14.221   6.632  -0.271  0.00  0.00    +0.219 C 
ATOM     14  C   UNL     1      12.648   4.849   0.459  0.00  0.00    +0.167 C 
ATOM     15  C   UNL     1      14.816   5.116   1.671  0.00  0.00    +0.136 C 
ATOM     16  C   UNL     1      12.816   3.334   0.672  0.00  0.00    +0.190 C 
ATOM     17  C   UNL     1      14.907   3.600   1.723  0.00  0.00    +0.179 C 
BRANCH  13  10
ATOM     10  C   UNL     1      15.490   7.384  -0.031  0.00  0.00    +0.075 C 
ATOM     11  C   UNL     1      15.680   8.694  -0.716  0.00  0.00    +0.013 C 
ATOM     12  C   UNL     1      15.428   8.647   0.761  0.00  0.00    +0.013 C 
ENDBRANCH  13  10
ENDBRANCH  18  14
BRANCH  19  21
ATOM     21  C   UNL     1      10.169   6.087   4.577  0.00  0.00    +0.000 A 
ATOM     22  C   UNL     1      11.179   6.040   5.538  0.00  0.00    +0.013 A 
ATOM     23  C   UNL     1       8.835   6.187   4.972  0.00  0.00    +0.013 A 
ATOM     24  C   UNL     1      10.856   6.095   6.894  0.00  0.00    +0.046 A 
ATOM     25  C   UNL     1       8.511   6.242   6.328  0.00  0.00    +0.046 A 
ATOM     26  C   UNL     1       9.521   6.195   7.289  0.00  0.00    +0.130 A 
BRANCH  26   6
ATOM      6  O   UNL     1       9.206   6.251   8.612  0.00  0.00    -0.406 OA
BRANCH   6  27
ATOM      1  F   UNL     1       9.398   3.973   8.583  0.00  0.00    -0.133 F 
ATOM      2  F   UNL     1      10.430   5.118  10.133  0.00  0.00    -0.133 F 
ATOM      3  F   UNL     1       8.254   4.927  10.216  0.00  0.00    -0.133 F 
ATOM     27  C   UNL     1       9.307   5.058   9.380  0.00  0.00    +0.575 C 
ENDBRANCH   6  27
ENDBRANCH  26   6
ENDBRANCH  19  21
TORSDOF 5
ENDMDL
MODEL 8
REMARK VINA RESULT:      -6.6     18.166     20.003
REMARK  Name = 71694322
REMARK  5 active torsions:
REMARK  status: ('A' for Active; 'I' for Inactive)
REMARK    1  A    between atoms: O_6  and  C_26
REMARK    2  A    between atoms: O_6  and  C_27
REMARK    3  A    between atoms: C_10  and  C_13
REMARK    4  A    between atoms: C_14  and  C_18
REMARK    5  A    between atoms: C_19  and  C_21
REMARK                            x       y       z     vdW  Elec       q    Type
REMARK                         _______ _______ _______ _____ _____    ______ ____
ROOT
ATOM      8  N   UNL     1      11.463   5.936   3.132  0.00  0.00    -0.340 N 
ATOM      9  N   UNL     1      10.483   4.620   4.628  0.00  0.00    -0.238 NA
ATOM     18  C   UNL     1      10.975   5.818   4.403  0.00  0.00    +0.130 A 
ATOM     19  C   UNL     1      11.270   4.737   2.506  0.00  0.00    +0.066 A 
ATOM     20  C   UNL     1      10.663   3.941   3.449  0.00  0.00    +0.139 A 
ATOM     28  H   UNL     1      11.895   6.762   2.738  0.00  0.00    +0.167 HD
ENDROOT
BRANCH  18  14
ATOM      4  O   UNL     1      13.410   7.612   5.537  0.00  0.00    -0.376 OA
ATOM      5  O   UNL     1       8.806   6.465   7.084  0.00  0.00    -0.275 OA
ATOM      7  N   UNL     1      11.117   6.510   6.782  0.00  0.00    -0.287 N 
ATOM     13  C   UNL     1       9.942   6.242   7.497  0.00  0.00    +0.219 C 
ATOM     14  C   UNL     1      11.031   6.982   5.386  0.00  0.00    +0.167 C 
ATOM     15  C   UNL     1      12.468   6.238   7.289  0.00  0.00    +0.136 C 
ATOM     16  C   UNL     1      12.120   8.027   5.085  0.00  0.00    +0.190 C 
ATOM     17  C   UNL     1      13.413   7.377   6.944  0.00  0.00    +0.179 C 
BRANCH  13  10
ATOM     10  C   UNL     1      10.086   5.647   8.860  0.00  0.00    +0.075 C 
ATOM     11  C   UNL     1       8.849   5.324   9.628  0.00  0.00    +0.013 C 
ATOM     12  C   UNL     1       9.692   4.222   9.058  0.00  0.00    +0.013 C 
ENDBRANCH  13  10
ENDBRANCH  18  14
BRANCH  19  21
ATOM     21  C   UNL     1      11.659   4.483   1.144  0.00  0.00    +0.000 A 
ATOM     22  C   UNL     1      10.793   4.804   0.099  0.00  0.00    +0.013 A 
ATOM     23  C   UNL     1      12.904   3.915   0.869  0.00  0.00    +0.013 A 
ATOM     24  C   UNL     1      11.171   4.559  -1.221  0.00  0.00    +0.046 A 
ATOM     25  C   UNL     1      13.282   3.670  -0.451  0.00  0.00    +0.046 A 
ATOM     26  C   UNL     1      12.415   3.992  -1.496  0.00  0.00    +0.130 A 
BRANCH  26   6
ATOM      6  O   UNL     1      12.785   3.756  -2.785  0.00  0.00    -0.406 OA
BRANCH   6  27
ATOM      1  F   UNL     1      12.094   1.589  -2.551  0.00  0.00    -0.133 F 
ATOM      2  F   UNL     1      11.073   2.894  -3.976  0.00  0.00    -0.133 F 
ATOM      3  F   UNL     1      13.093   2.193  -4.427  0.00  0.00    -0.133 F 
ATOM     27  C   UNL     1      12.274   2.596  -3.431  0.00  0.00    +0.575 C 
ENDBRANCH   6  27
ENDBRANCH  26   6
ENDBRANCH  19  21
TORSDOF 5
ENDMDL
MODEL 9
REMARK VINA RESULT:      -6.6     17.340     19.584
REMARK  Name = 71694322
REMARK  5 active torsions:
REMARK  status: ('A' for Active; 'I' for Inactive)
REMARK    1  A    between atoms: O_6  and  C_26
REMARK    2  A    between atoms: O_6  and  C_27
REMARK    3  A    between atoms: C_10  and  C_13
REMARK    4  A    between atoms: C_14  and  C_18
REMARK    5  A    between atoms: C_19  and  C_21
REMARK                            x       y       z     vdW  Elec       q    Type
REMARK                         _______ _______ _______ _____ _____    ______ ____
ROOT
ATOM      8  N   UNL     1      10.361   7.040   3.069  0.00  0.00    -0.340 N 
ATOM      9  N   UNL     1       8.724   8.135   2.042  0.00  0.00    -0.238 NA
ATOM     18  C   UNL     1       9.892   7.552   1.891  0.00  0.00    +0.130 A 
ATOM     19  C   UNL     1       9.431   7.314   4.033  0.00  0.00    +0.066 A 
ATOM     20  C   UNL     1       8.431   7.990   3.375  0.00  0.00    +0.139 A 
ATOM     28  H   UNL     1      11.241   6.556   3.195  0.00  0.00    +0.167 HD
ENDROOT
BRANCH  18  14
ATOM      4  O   UNL     1       9.012   7.373  -1.212  0.00  0.00    -0.376 OA
ATOM      5  O   UNL     1      13.018   6.024   1.441  0.00  0.00    -0.275 OA
ATOM      7  N   UNL     1      10.992   6.012   0.287  0.00  0.00    -0.287 N 
ATOM     13  C   UNL     1      12.153   5.423   0.808  0.00  0.00    +0.219 C 
ATOM     14  C   UNL     1      10.688   7.422   0.596  0.00  0.00    +0.167 C 
ATOM     15  C   UNL     1       9.968   5.280  -0.468  0.00  0.00    +0.136 C 
ATOM     16  C   UNL     1      10.064   8.134  -0.617  0.00  0.00    +0.190 C 
ATOM     17  C   UNL     1       9.482   6.100  -1.652  0.00  0.00    +0.179 C 
BRANCH  13  10
ATOM     10  C   UNL     1      12.350   3.961   0.570  0.00  0.00    +0.075 C 
ATOM     11  C   UNL     1      13.659   3.500   0.024  0.00  0.00    +0.013 C 
ATOM     12  C   UNL     1      13.297   3.219   1.452  0.00  0.00    +0.013 C 
ENDBRANCH  13  10
ENDBRANCH  18  14
BRANCH  19  21
ATOM     21  C   UNL     1       9.581   6.924   5.409  0.00  0.00    +0.000 A 
ATOM     22  C   UNL     1       8.605   7.272   6.343  0.00  0.00    +0.013 A 
ATOM     23  C   UNL     1      10.702   6.198   5.811  0.00  0.00    +0.013 A 
ATOM     24  C   UNL     1       8.749   6.894   7.678  0.00  0.00    +0.046 A 
ATOM     25  C   UNL     1      10.847   5.819   7.146  0.00  0.00    +0.046 A 
ATOM     26  C   UNL     1       9.870   6.167   8.079  0.00  0.00    +0.130 A 
BRANCH  26   6
ATOM      6  O   UNL     1      10.009   5.795   9.381  0.00  0.00    -0.406 OA
BRANCH   6  27
ATOM      1  F   UNL     1      10.024   4.017  10.820  0.00  0.00    -0.133 F 
ATOM      2  F   UNL     1       8.122   4.956  10.292  0.00  0.00    -0.133 F 
ATOM      3  F   UNL     1       9.168   3.749   8.800  0.00  0.00    -0.133 F 
ATOM     27  C   UNL     1       9.343   4.617   9.820  0.00  0.00    +0.575 C 
ENDBRANCH   6  27
ENDBRANCH  26   6
ENDBRANCH  19  21
TORSDOF 5
ENDMDL
MODEL 10
REMARK VINA RESULT:      -6.5     17.707     19.554
REMARK  Name = 71694322
REMARK  5 active torsions:
REMARK  status: ('A' for Active; 'I' for Inactive)
REMARK    1  A    between atoms: O_6  and  C_26
REMARK    2  A    between atoms: O_6  and  C_27
REMARK    3  A    between atoms: C_10  and  C_13
REMARK    4  A    between atoms: C_14  and  C_18
REMARK    5  A    between atoms: C_19  and  C_21
REMARK                            x       y       z     vdW  Elec       q    Type
REMARK                         _______ _______ _______ _____ _____    ______ ____
ROOT
ATOM      8  N   UNL     1       8.216   8.963   4.173  0.00  0.00    -0.340 N 
ATOM      9  N   UNL     1       8.597   8.262   2.101  0.00  0.00    -0.238 NA
ATOM     18  C   UNL     1       8.060   9.208   2.838  0.00  0.00    +0.130 A 
ATOM     19  C   UNL     1       8.896   7.784   4.297  0.00  0.00    +0.066 A 
ATOM     20  C   UNL     1       9.120   7.370   3.004  0.00  0.00    +0.139 A 
ATOM     28  H   UNL     1       7.878   9.549   4.926  0.00  0.00    +0.167 HD
ENDROOT
BRANCH  18  14
ATOM      4  O   UNL     1       6.159  11.370   4.302  0.00  0.00    -0.376 OA
ATOM      5  O   UNL     1       6.850   9.835  -0.396  0.00  0.00    -0.275 OA
ATOM      7  N   UNL     1       6.019  10.123   1.763  0.00  0.00    -0.287 N 
ATOM     13  C   UNL     1       5.921   9.785   0.406  0.00  0.00    +0.219 C 
ATOM     14  C   UNL     1       7.337  10.455   2.339  0.00  0.00    +0.167 C 
ATOM     15  C   UNL     1       4.899  10.058   2.710  0.00  0.00    +0.136 C 
ATOM     16  C   UNL     1       7.222  11.589   3.373  0.00  0.00    +0.190 C 
ATOM     17  C   UNL     1       4.903  11.265   3.634  0.00  0.00    +0.179 C 
BRANCH  13  10
ATOM     10  C   UNL     1       4.587   9.336  -0.096  0.00  0.00    +0.075 C 
ATOM     11  C   UNL     1       3.876  10.194  -1.087  0.00  0.00    +0.013 C 
ATOM     12  C   UNL     1       4.477   8.888  -1.515  0.00  0.00    +0.013 C 
ENDBRANCH  13  10
ENDBRANCH  18  14
BRANCH  19  21
ATOM     21  C   UNL     1       9.247   7.202   5.565  0.00  0.00    +0.000 A 
ATOM     22  C   UNL     1       8.863   7.829   6.750  0.00  0.00    +0.013 A 
ATOM     23  C   UNL     1       9.972   6.010   5.608  0.00  0.00    +0.013 A 
ATOM     24  C   UNL     1       9.203   7.264   7.980  0.00  0.00    +0.046 A 
ATOM     25  C   UNL     1      10.311   5.445   6.838  0.00  0.00    +0.046 A 
ATOM     26  C   UNL     1       9.927   6.072   8.024  0.00  0.00    +0.130 A 
BRANCH  26   6
ATOM      6  O   UNL     1      10.255   5.520   9.223  0.00  0.00    -0.406 OA
BRANCH   6  27
ATOM      1  F   UNL     1       9.097   3.572   8.913  0.00  0.00    -0.133 F 
ATOM      2  F   UNL     1       9.958   4.009  10.874  0.00  0.00    -0.133 F 
ATOM      3  F   UNL     1       8.219   5.144  10.195  0.00  0.00    -0.133 F 
ATOM     27  C   UNL     1       9.368   4.562   9.790  0.00  0.00    +0.575 C 
ENDBRANCH   6  27
ENDBRANCH  26   6
ENDBRANCH  19  21
TORSDOF 5
ENDMDL
