MODEL 1
REMARK VINA RESULT:      -7.7      0.000      0.000
REMARK  Name = 51136852
REMARK  5 active torsions:
REMARK  status: ('A' for Active; 'I' for Inactive)
REMARK    1  A    between atoms: N_4  and  C_14
REMARK    2  A    between atoms: N_6  and  C_25
REMARK    3  A    between atoms: C_10  and  C_15
REMARK    4  A    between atoms: C_14  and  C_16
REMARK    5  A    between atoms: C_22  and  C_26
REMARK                            x       y       z     vdW  Elec       q    Type
REMARK                         _______ _______ _______ _____ _____    ______ ____
ROOT
ATOM      3  O   UNL     1      14.314   6.927  19.516  0.00  0.00    -0.336 OA
ATOM      7  N   UNL     1      15.601   7.503  21.256  0.00  0.00    -0.190 NA
ATOM      8  N   UNL     1      15.575   6.371  19.267  0.00  0.00    -0.056 NA
ATOM     15  C   UNL     1      14.415   7.576  20.705  0.00  0.00    +0.245 A 
ATOM     22  C   UNL     1      16.278   6.754  20.337  0.00  0.00    +0.204 A 
ENDROOT
BRANCH  22  26
ATOM      5  N   UNL     1      21.633   5.472  21.113  0.00  0.00    -0.313 N 
ATOM      6  N   UNL     1      24.343   4.836  21.754  0.00  0.00    -0.302 NA
ATOM      9  N   UNL     1      19.726   6.734  21.725  0.00  0.00    -0.240 NA
ATOM     17  C   UNL     1      22.005   4.094  21.449  0.00  0.00    +0.122 C 
ATOM     18  C   UNL     1      22.533   6.514  21.622  0.00  0.00    +0.122 C 
ATOM     19  C   UNL     1      23.477   3.839  21.115  0.00  0.00    +0.103 C 
ATOM     20  C   UNL     1      23.988   6.181  21.283  0.00  0.00    +0.103 C 
ATOM     21  C   UNL     1      20.286   5.800  20.923  0.00  0.00    +0.121 A 
ATOM     25  C   UNL     1      25.750   4.551  21.473  0.00  0.00    +0.105 C 
ATOM     26  C   UNL     1      17.657   6.407  20.519  0.00  0.00    +0.041 A 
ATOM     27  C   UNL     1      19.607   5.137  19.914  0.00  0.00    +0.044 A 
ATOM     28  C   UNL     1      18.268   5.452  19.714  0.00  0.00    +0.016 A 
ATOM     29  C   UNL     1      18.423   7.014  21.502  0.00  0.00    +0.124 A 
ENDBRANCH  22  26
BRANCH  15  10
ATOM      4  N   UNL     1      12.362   8.849  20.107  0.00  0.00    -0.287 NA
ATOM     10  C   UNL     1      13.167   8.272  21.203  0.00  0.00    +0.146 C 
ATOM     11  C   UNL     1      12.204   7.316  21.933  0.00  0.00    +0.030 C 
ATOM     12  C   UNL     1      10.871   7.470  21.215  0.00  0.00    +0.017 C 
ATOM     13  C   UNL     1      10.972   8.833  20.562  0.00  0.00    +0.085 C 
BRANCH   4  14
ATOM     14  C   UNL     1      12.797  10.184  19.717  0.00  0.00    +0.120 C 
BRANCH  14  16
ATOM      1  F   UNL     1      16.024  11.899  16.483  0.00  0.00    -0.202 F 
ATOM      2  F   UNL     1      15.033  10.242  14.546  0.00  0.00    -0.202 F 
ATOM     16  C   UNL     1      13.395  10.199  18.335  0.00  0.00    -0.030 A 
ATOM     23  C   UNL     1      14.453  11.059  18.043  0.00  0.00    +0.046 A 
ATOM     24  C   UNL     1      12.889   9.353  17.347  0.00  0.00    +0.008 A 
ATOM     30  C   UNL     1      15.007  11.073  16.763  0.00  0.00    +0.159 A 
ATOM     31  C   UNL     1      13.443   9.368  16.067  0.00  0.00    +0.041 A 
ATOM     32  C   UNL     1      14.502  10.228  15.776  0.00  0.00    +0.158 A 
ENDBRANCH  14  16
ENDBRANCH   4  14
ENDBRANCH  15  10
TORSDOF 4
ENDMDL
MODEL 2
REMARK VINA RESULT:      -7.7      2.952      4.254
REMARK  Name = 51136852
REMARK  5 active torsions:
REMARK  status: ('A' for Active; 'I' for Inactive)
REMARK    1  A    between atoms: N_4  and  C_14
REMARK    2  A    between atoms: N_6  and  C_25
REMARK    3  A    between atoms: C_10  and  C_15
REMARK    4  A    between atoms: C_14  and  C_16
REMARK    5  A    between atoms: C_22  and  C_26
REMARK                            x       y       z     vdW  Elec       q    Type
REMARK                         _______ _______ _______ _____ _____    ______ ____
ROOT
ATOM      3  O   UNL     1      16.218   5.981  18.291  0.00  0.00    -0.336 OA
ATOM      7  N   UNL     1      16.812   6.965  20.213  0.00  0.00    -0.190 NA
ATOM      8  N   UNL     1      17.480   5.468  18.616  0.00  0.00    -0.056 NA
ATOM     15  C   UNL     1      15.899   6.855  19.281  0.00  0.00    +0.245 A 
ATOM     22  C   UNL     1      17.763   6.097  19.762  0.00  0.00    +0.204 A 
ENDROOT
BRANCH  22  26
ATOM      5  N   UNL     1      22.480   5.326  22.603  0.00  0.00    -0.313 N 
ATOM      6  N   UNL     1      24.774   4.975  24.268  0.00  0.00    -0.302 NA
ATOM      9  N   UNL     1      20.441   6.492  22.308  0.00  0.00    -0.240 NA
ATOM     17  C   UNL     1      22.746   4.024  23.223  0.00  0.00    +0.122 C 
ATOM     18  C   UNL     1      23.088   6.483  23.271  0.00  0.00    +0.122 C 
ATOM     19  C   UNL     1      24.244   3.851  23.488  0.00  0.00    +0.103 C 
ATOM     20  C   UNL     1      24.575   6.231  23.534  0.00  0.00    +0.103 C 
ATOM     21  C   UNL     1      21.291   5.526  21.893  0.00  0.00    +0.121 A 
ATOM     25  C   UNL     1      26.193   4.773  24.562  0.00  0.00    +0.105 C 
ATOM     26  C   UNL     1      18.985   5.880  20.479  0.00  0.00    +0.041 A 
ATOM     27  C   UNL     1      21.061   4.710  20.797  0.00  0.00    +0.044 A 
ATOM     28  C   UNL     1      19.884   4.896  20.082  0.00  0.00    +0.016 A 
ATOM     29  C   UNL     1      19.307   6.644  21.589  0.00  0.00    +0.124 A 
ENDBRANCH  22  26
BRANCH  15  10
ATOM      4  N   UNL     1      14.582   8.920  19.721  0.00  0.00    -0.287 NA
ATOM     10  C   UNL     1      14.561   7.554  19.160  0.00  0.00    +0.146 C 
ATOM     11  C   UNL     1      14.117   7.739  17.697  0.00  0.00    +0.030 C 
ATOM     12  C   UNL     1      13.852   9.231  17.548  0.00  0.00    +0.017 C 
ATOM     13  C   UNL     1      13.593   9.691  18.967  0.00  0.00    +0.085 C 
BRANCH   4  14
ATOM     14  C   UNL     1      14.328   8.955  21.155  0.00  0.00    +0.120 C 
BRANCH  14  16
ATOM      1  F   UNL     1      11.115   5.301  21.534  0.00  0.00    -0.202 F 
ATOM      2  F   UNL     1       9.189   7.025  22.427  0.00  0.00    -0.202 F 
ATOM     16  C   UNL     1      12.954   8.439  21.496  0.00  0.00    -0.030 A 
ATOM     23  C   UNL     1      12.665   7.082  21.354  0.00  0.00    +0.046 A 
ATOM     24  C   UNL     1      11.972   9.319  21.951  0.00  0.00    +0.008 A 
ATOM     30  C   UNL     1      11.393   6.604  21.669  0.00  0.00    +0.159 A 
ATOM     31  C   UNL     1      10.700   8.841  22.266  0.00  0.00    +0.041 A 
ATOM     32  C   UNL     1      10.411   7.483  22.124  0.00  0.00    +0.158 A 
ENDBRANCH  14  16
ENDBRANCH   4  14
ENDBRANCH  15  10
TORSDOF 4
ENDMDL
MODEL 3
REMARK VINA RESULT:      -7.6     16.386     20.371
REMARK  Name = 51136852
REMARK  5 active torsions:
REMARK  status: ('A' for Active; 'I' for Inactive)
REMARK    1  A    between atoms: N_4  and  C_14
REMARK    2  A    between atoms: N_6  and  C_25
REMARK    3  A    between atoms: C_10  and  C_15
REMARK    4  A    between atoms: C_14  and  C_16
REMARK    5  A    between atoms: C_22  and  C_26
REMARK                            x       y       z     vdW  Elec       q    Type
REMARK                         _______ _______ _______ _____ _____    ______ ____
ROOT
ATOM      3  O   UNL     1      10.209   7.247  -1.151  0.00  0.00    -0.336 OA
ATOM      7  N   UNL     1      10.352   5.272  -0.107  0.00  0.00    -0.190 NA
ATOM      8  N   UNL     1      10.085   7.521   0.217  0.00  0.00    -0.056 NA
ATOM     15  C   UNL     1      10.362   5.902  -1.255  0.00  0.00    +0.245 A 
ATOM     22  C   UNL     1      10.179   6.306   0.766  0.00  0.00    +0.204 A 
ENDROOT
BRANCH  22  26
ATOM      5  N   UNL     1       9.945   5.399   6.248  0.00  0.00    -0.313 N 
ATOM      6  N   UNL     1      10.062   4.866   9.051  0.00  0.00    -0.302 NA
ATOM      9  N   UNL     1      10.739   4.775   4.106  0.00  0.00    -0.240 NA
ATOM     17  C   UNL     1      10.425   6.431   7.172  0.00  0.00    +0.122 C 
ATOM     18  C   UNL     1      10.049   4.017   6.730  0.00  0.00    +0.122 C 
ATOM     19  C   UNL     1       9.819   6.229   8.563  0.00  0.00    +0.103 C 
ATOM     20  C   UNL     1       9.455   3.892   8.135  0.00  0.00    +0.103 C 
ATOM     21  C   UNL     1      10.008   5.621   4.867  0.00  0.00    +0.121 A 
ATOM     25  C   UNL     1       9.527   4.701  10.402  0.00  0.00    +0.105 C 
ATOM     26  C   UNL     1      10.104   6.092   2.182  0.00  0.00    +0.041 A 
ATOM     27  C   UNL     1       9.309   6.707   4.366  0.00  0.00    +0.044 A 
ATOM     28  C   UNL     1       9.363   6.941   2.997  0.00  0.00    +0.016 A 
ATOM     29  C   UNL     1      10.769   5.033   2.780  0.00  0.00    +0.124 A 
ENDBRANCH  22  26
BRANCH  15  10
ATOM      4  N   UNL     1      11.348   4.123  -2.689  0.00  0.00    -0.287 NA
ATOM     10  C   UNL     1      10.518   5.345  -2.654  0.00  0.00    +0.146 C 
ATOM     11  C   UNL     1       9.176   4.924  -3.280  0.00  0.00    +0.030 C 
ATOM     12  C   UNL     1       9.368   3.471  -3.692  0.00  0.00    +0.017 C 
ATOM     13  C   UNL     1      10.870   3.332  -3.823  0.00  0.00    +0.085 C 
BRANCH   4  14
ATOM     14  C   UNL     1      12.776   4.401  -2.776  0.00  0.00    +0.120 C 
BRANCH  14  16
ATOM      1  F   UNL     1      12.828   2.568   1.747  0.00  0.00    -0.202 F 
ATOM      2  F   UNL     1      15.418   3.375   2.094  0.00  0.00    -0.202 F 
ATOM     16  C   UNL     1      13.482   4.127  -1.475  0.00  0.00    -0.030 A 
ATOM     23  C   UNL     1      12.815   3.462  -0.446  0.00  0.00    +0.046 A 
ATOM     24  C   UNL     1      14.803   4.539  -1.298  0.00  0.00    +0.008 A 
ATOM     30  C   UNL     1      13.469   3.207   0.759  0.00  0.00    +0.159 A 
ATOM     31  C   UNL     1      15.457   4.284  -0.093  0.00  0.00    +0.041 A 
ATOM     32  C   UNL     1      14.789   3.619   0.936  0.00  0.00    +0.158 A 
ENDBRANCH  14  16
ENDBRANCH   4  14
ENDBRANCH  15  10
TORSDOF 4
ENDMDL
MODEL 4
REMARK VINA RESULT:      -7.5     27.101     31.473
REMARK  Name = 51136852
REMARK  5 active torsions:
REMARK  status: ('A' for Active; 'I' for Inactive)
REMARK    1  A    between atoms: N_4  and  C_14
REMARK    2  A    between atoms: N_6  and  C_25
REMARK    3  A    between atoms: C_10  and  C_15
REMARK    4  A    between atoms: C_14  and  C_16
REMARK    5  A    between atoms: C_22  and  C_26
REMARK                            x       y       z     vdW  Elec       q    Type
REMARK                         _______ _______ _______ _____ _____    ______ ____
ROOT
ATOM      3  O   UNL     1      -5.319  -9.502  16.047  0.00  0.00    -0.336 OA
ATOM      7  N   UNL     1      -5.933 -11.394  17.076  0.00  0.00    -0.190 NA
ATOM      8  N   UNL     1      -6.565  -9.240  16.630  0.00  0.00    -0.056 NA
ATOM     15  C   UNL     1      -5.021 -10.791  16.356  0.00  0.00    +0.245 A 
ATOM     22  C   UNL     1      -6.861 -10.404  17.218  0.00  0.00    +0.204 A 
ENDROOT
BRANCH  22  26
ATOM      5  N   UNL     1     -11.518 -11.247  20.139  0.00  0.00    -0.313 N 
ATOM      6  N   UNL     1     -13.776 -11.642  21.842  0.00  0.00    -0.302 NA
ATOM      9  N   UNL     1      -9.177 -11.513  19.905  0.00  0.00    -0.240 NA
ATOM     17  C   UNL     1     -12.298 -10.096  20.601  0.00  0.00    +0.122 C 
ATOM     18  C   UNL     1     -11.610 -12.452  20.971  0.00  0.00    +0.122 C 
ATOM     19  C   UNL     1     -13.740 -10.512  20.906  0.00  0.00    +0.103 C 
ATOM     20  C   UNL     1     -13.073 -12.793  21.263  0.00  0.00    +0.103 C 
ATOM     21  C   UNL     1     -10.342 -11.039  19.409  0.00  0.00    +0.121 A 
ATOM     25  C   UNL     1     -15.157 -11.996  22.168  0.00  0.00    +0.105 C 
ATOM     26  C   UNL     1      -8.074 -10.609  17.954  0.00  0.00    +0.041 A 
ATOM     27  C   UNL     1     -10.451 -10.351  18.211  0.00  0.00    +0.044 A 
ATOM     28  C   UNL     1      -9.291 -10.136  17.475  0.00  0.00    +0.016 A 
ATOM     29  C   UNL     1      -8.071 -11.285  19.164  0.00  0.00    +0.124 A 
ENDBRANCH  22  26
BRANCH  15  10
ATOM      4  N   UNL     1      -3.305 -10.699  14.555  0.00  0.00    -0.287 NA
ATOM     10  C   UNL     1      -3.704 -11.324  15.833  0.00  0.00    +0.146 C 
ATOM     11  C   UNL     1      -2.528 -11.044  16.788  0.00  0.00    +0.030 C 
ATOM     12  C   UNL     1      -1.494 -10.313  15.942  0.00  0.00    +0.017 C 
ATOM     13  C   UNL     1      -1.843 -10.717  14.524  0.00  0.00    +0.085 C 
BRANCH   4  14
ATOM     14  C   UNL     1      -3.888 -11.354  13.391  0.00  0.00    +0.120 C 
BRANCH  14  16
ATOM      1  F   UNL     1      -3.173  -8.827   9.277  0.00  0.00    -0.202 F 
ATOM      2  F   UNL     1      -5.619  -7.631   9.532  0.00  0.00    -0.202 F 
ATOM     16  C   UNL     1      -4.351 -10.359  12.360  0.00  0.00    -0.030 A 
ATOM     23  C   UNL     1      -3.532 -10.047  11.275  0.00  0.00    +0.046 A 
ATOM     24  C   UNL     1      -5.599  -9.749  12.490  0.00  0.00    +0.008 A 
ATOM     30  C   UNL     1      -3.960  -9.126  10.320  0.00  0.00    +0.159 A 
ATOM     31  C   UNL     1      -6.027  -8.828  11.535  0.00  0.00    +0.041 A 
ATOM     32  C   UNL     1      -5.207  -8.516  10.450  0.00  0.00    +0.158 A 
ENDBRANCH  14  16
ENDBRANCH   4  14
ENDBRANCH  15  10
TORSDOF 4
ENDMDL
MODEL 5
REMARK VINA RESULT:      -7.4     26.629     31.125
REMARK  Name = 51136852
REMARK  5 active torsions:
REMARK  status: ('A' for Active; 'I' for Inactive)
REMARK    1  A    between atoms: N_4  and  C_14
REMARK    2  A    between atoms: N_6  and  C_25
REMARK    3  A    between atoms: C_10  and  C_15
REMARK    4  A    between atoms: C_14  and  C_16
REMARK    5  A    between atoms: C_22  and  C_26
REMARK                            x       y       z     vdW  Elec       q    Type
REMARK                         _______ _______ _______ _____ _____    ______ ____
ROOT
ATOM      3  O   UNL     1      -4.794 -10.789  17.411  0.00  0.00    -0.336 OA
ATOM      7  N   UNL     1      -5.655 -10.253  15.414  0.00  0.00    -0.190 NA
ATOM      8  N   UNL     1      -6.093 -10.326  17.660  0.00  0.00    -0.056 NA
ATOM     15  C   UNL     1      -4.616 -10.712  16.067  0.00  0.00    +0.245 A 
ATOM     22  C   UNL     1      -6.535 -10.030  16.433  0.00  0.00    +0.204 A 
ENDROOT
BRANCH  22  26
ATOM      5  N   UNL     1     -11.627  -8.044  15.410  0.00  0.00    -0.313 N 
ATOM      6  N   UNL     1     -14.284  -7.228  14.753  0.00  0.00    -0.302 NA
ATOM      9  N   UNL     1      -9.703  -9.209  14.672  0.00  0.00    -0.240 NA
ATOM     17  C   UNL     1     -12.758  -8.502  16.223  0.00  0.00    +0.122 C 
ATOM     18  C   UNL     1     -11.954  -7.639  14.037  0.00  0.00    +0.122 C 
ATOM     19  C   UNL     1     -13.914  -7.501  16.146  0.00  0.00    +0.103 C 
ATOM     20  C   UNL     1     -13.136  -6.666  14.031  0.00  0.00    +0.103 C 
ATOM     21  C   UNL     1     -10.345  -8.546  15.660  0.00  0.00    +0.121 A 
ATOM     25  C   UNL     1     -15.424  -6.313  14.693  0.00  0.00    +0.105 C 
ATOM     26  C   UNL     1      -7.849  -9.509  16.192  0.00  0.00    +0.041 A 
ATOM     27  C   UNL     1      -9.812  -8.328  16.921  0.00  0.00    +0.044 A 
ATOM     28  C   UNL     1      -8.540  -8.822  17.184  0.00  0.00    +0.016 A 
ATOM     29  C   UNL     1      -8.469  -9.675  14.964  0.00  0.00    +0.124 A 
ENDBRANCH  22  26
BRANCH  15  10
ATOM      4  N   UNL     1      -2.934 -10.537  14.241  0.00  0.00    -0.287 NA
ATOM     10  C   UNL     1      -3.272 -11.162  15.536  0.00  0.00    +0.146 C 
ATOM     11  C   UNL     1      -2.107 -10.782  16.469  0.00  0.00    +0.030 C 
ATOM     12  C   UNL     1      -1.137  -9.998  15.595  0.00  0.00    +0.017 C 
ATOM     13  C   UNL     1      -1.475 -10.453  14.190  0.00  0.00    +0.085 C 
BRANCH   4  14
ATOM     14  C   UNL     1      -3.483 -11.254  13.098  0.00  0.00    +0.120 C 
BRANCH  14  16
ATOM      1  F   UNL     1      -7.177  -8.654  11.250  0.00  0.00    -0.202 F 
ATOM      2  F   UNL     1      -5.584  -7.745   9.222  0.00  0.00    -0.202 F 
ATOM     16  C   UNL     1      -4.044 -10.316  12.062  0.00  0.00    -0.030 A 
ATOM     23  C   UNL     1      -5.377  -9.912  12.137  0.00  0.00    +0.046 A 
ATOM     24  C   UNL     1      -3.231  -9.852  11.028  0.00  0.00    +0.008 A 
ATOM     30  C   UNL     1      -5.897  -9.043  11.178  0.00  0.00    +0.159 A 
ATOM     31  C   UNL     1      -3.752  -8.984  10.068  0.00  0.00    +0.041 A 
ATOM     32  C   UNL     1      -5.085  -8.579  10.144  0.00  0.00    +0.158 A 
ENDBRANCH  14  16
ENDBRANCH   4  14
ENDBRANCH  15  10
TORSDOF 4
ENDMDL
MODEL 6
REMARK VINA RESULT:      -7.2     30.510     32.420
REMARK  Name = 51136852
REMARK  5 active torsions:
REMARK  status: ('A' for Active; 'I' for Inactive)
REMARK    1  A    between atoms: N_4  and  C_14
REMARK    2  A    between atoms: N_6  and  C_25
REMARK    3  A    between atoms: C_10  and  C_15
REMARK    4  A    between atoms: C_14  and  C_16
REMARK    5  A    between atoms: C_22  and  C_26
REMARK                            x       y       z     vdW  Elec       q    Type
REMARK                         _______ _______ _______ _____ _____    ______ ____
ROOT
ATOM      3  O   UNL     1     -14.314  -5.256  13.748  0.00  0.00    -0.336 OA
ATOM      7  N   UNL     1     -12.084  -5.200  13.550  0.00  0.00    -0.190 NA
ATOM      8  N   UNL     1     -13.827  -6.298  14.548  0.00  0.00    -0.056 NA
ATOM     15  C   UNL     1     -13.224  -4.662  13.197  0.00  0.00    +0.245 A 
ATOM     22  C   UNL     1     -12.504  -6.200  14.378  0.00  0.00    +0.204 A 
ENDROOT
BRANCH  22  26
ATOM      5  N   UNL     1      -8.917  -9.693  16.798  0.00  0.00    -0.313 N 
ATOM      6  N   UNL     1      -6.988 -11.537  17.815  0.00  0.00    -0.302 NA
ATOM      9  N   UNL     1     -10.363  -9.175  14.997  0.00  0.00    -0.240 NA
ATOM     17  C   UNL     1      -7.548  -9.247  17.072  0.00  0.00    +0.122 C 
ATOM     18  C   UNL     1      -9.081 -11.133  16.564  0.00  0.00    +0.122 C 
ATOM     19  C   UNL     1      -6.909 -10.113  18.160  0.00  0.00    +0.103 C 
ATOM     20  C   UNL     1      -8.393 -11.938  17.669  0.00  0.00    +0.103 C 
ATOM     21  C   UNL     1      -9.821  -8.820  16.183  0.00  0.00    +0.121 A 
ATOM     25  C   UNL     1      -6.327 -12.351  18.835  0.00  0.00    +0.105 C 
ATOM     26  C   UNL     1     -11.577  -7.085  15.021  0.00  0.00    +0.041 A 
ATOM     27  C   UNL     1     -10.103  -7.632  16.840  0.00  0.00    +0.044 A 
ATOM     28  C   UNL     1     -10.999  -6.754  16.241  0.00  0.00    +0.016 A 
ATOM     29  C   UNL     1     -11.229  -8.296  14.444  0.00  0.00    +0.124 A 
ENDBRANCH  22  26
BRANCH  15  10
ATOM      4  N   UNL     1     -13.195  -3.800  10.862  0.00  0.00    -0.287 NA
ATOM     10  C   UNL     1     -13.487  -3.489  12.277  0.00  0.00    +0.146 C 
ATOM     11  C   UNL     1     -14.963  -3.048  12.283  0.00  0.00    +0.030 C 
ATOM     12  C   UNL     1     -15.394  -3.084  10.823  0.00  0.00    +0.017 C 
ATOM     13  C   UNL     1     -14.090  -2.965  10.062  0.00  0.00    +0.085 C 
BRANCH   4  14
ATOM     14  C   UNL     1     -11.795  -3.600  10.509  0.00  0.00    +0.120 C 
BRANCH  14  16
ATOM      1  F   UNL     1     -11.725  -8.386   9.556  0.00  0.00    -0.202 F 
ATOM      2  F   UNL     1      -9.654  -8.054   7.802  0.00  0.00    -0.202 F 
ATOM     16  C   UNL     1     -11.223  -4.790   9.785  0.00  0.00    -0.030 A 
ATOM     23  C   UNL     1     -11.749  -6.062  10.010  0.00  0.00    +0.046 A 
ATOM     24  C   UNL     1     -10.167  -4.620   8.890  0.00  0.00    +0.008 A 
ATOM     30  C   UNL     1     -11.219  -7.165   9.340  0.00  0.00    +0.159 A 
ATOM     31  C   UNL     1      -9.637  -5.723   8.220  0.00  0.00    +0.041 A 
ATOM     32  C   UNL     1     -10.164  -6.995   8.445  0.00  0.00    +0.158 A 
ENDBRANCH  14  16
ENDBRANCH   4  14
ENDBRANCH  15  10
TORSDOF 4
ENDMDL
MODEL 7
REMARK VINA RESULT:      -7.1     16.020     19.687
REMARK  Name = 51136852
REMARK  5 active torsions:
REMARK  status: ('A' for Active; 'I' for Inactive)
REMARK    1  A    between atoms: N_4  and  C_14
REMARK    2  A    between atoms: N_6  and  C_25
REMARK    3  A    between atoms: C_10  and  C_15
REMARK    4  A    between atoms: C_14  and  C_16
REMARK    5  A    between atoms: C_22  and  C_26
REMARK                            x       y       z     vdW  Elec       q    Type
REMARK                         _______ _______ _______ _____ _____    ______ ____
ROOT
ATOM      3  O   UNL     1      10.174   4.629   5.616  0.00  0.00    -0.336 OA
ATOM      7  N   UNL     1      10.927   6.102   4.107  0.00  0.00    -0.190 NA
ATOM      8  N   UNL     1      10.319   3.918   4.417  0.00  0.00    -0.056 NA
ATOM     15  C   UNL     1      10.553   5.905   5.346  0.00  0.00    +0.245 A 
ATOM     22  C   UNL     1      10.767   4.855   3.576  0.00  0.00    +0.204 A 
ENDROOT
BRANCH  22  26
ATOM      5  N   UNL     1      11.995   3.749  -1.733  0.00  0.00    -0.313 N 
ATOM      6  N   UNL     1      12.735   2.974  -4.381  0.00  0.00    -0.302 NA
ATOM      9  N   UNL     1      12.605   3.714   0.554  0.00  0.00    -0.240 NA
ATOM     17  C   UNL     1      11.137   2.839  -2.499  0.00  0.00    +0.122 C 
ATOM     18  C   UNL     1      13.403   3.792  -2.146  0.00  0.00    +0.122 C 
ATOM     19  C   UNL     1      11.320   3.067  -4.002  0.00  0.00    +0.103 C 
ATOM     20  C   UNL     1      13.513   3.989  -3.660  0.00  0.00    +0.103 C 
ATOM     21  C   UNL     1      11.693   4.025  -0.395  0.00  0.00    +0.121 A 
ATOM     25  C   UNL     1      12.892   3.139  -5.826  0.00  0.00    +0.105 C 
ATOM     26  C   UNL     1      11.061   4.579   2.200  0.00  0.00    +0.041 A 
ATOM     27  C   UNL     1      10.463   4.606  -0.128  0.00  0.00    +0.044 A 
ATOM     28  C   UNL     1      10.149   4.885   1.196  0.00  0.00    +0.016 A 
ATOM     29  C   UNL     1      12.265   3.999   1.830  0.00  0.00    +0.124 A 
ENDBRANCH  22  26
BRANCH  15  10
ATOM      4  N   UNL     1       9.344   7.817   6.384  0.00  0.00    -0.287 NA
ATOM     10  C   UNL     1      10.486   6.887   6.496  0.00  0.00    +0.146 C 
ATOM     11  C   UNL     1      10.294   6.195   7.858  0.00  0.00    +0.030 C 
ATOM     12  C   UNL     1       9.056   6.844   8.463  0.00  0.00    +0.017 C 
ATOM     13  C   UNL     1       8.969   8.178   7.751  0.00  0.00    +0.085 C 
BRANCH   4  14
ATOM     14  C   UNL     1       9.635   8.988   5.567  0.00  0.00    +0.120 C 
BRANCH  14  16
ATOM      1  F   UNL     1       5.234  10.324   3.935  0.00  0.00    -0.202 F 
ATOM      2  F   UNL     1       5.913   9.611   1.383  0.00  0.00    -0.202 F 
ATOM     16  C   UNL     1       8.641   9.155   4.449  0.00  0.00    -0.030 A 
ATOM     23  C   UNL     1       7.373   9.672   4.715  0.00  0.00    +0.046 A 
ATOM     24  C   UNL     1       8.987   8.791   3.147  0.00  0.00    +0.008 A 
ATOM     30  C   UNL     1       6.452   9.827   3.679  0.00  0.00    +0.159 A 
ATOM     31  C   UNL     1       8.065   8.945   2.112  0.00  0.00    +0.041 A 
ATOM     32  C   UNL     1       6.798   9.463   2.379  0.00  0.00    +0.158 A 
ENDBRANCH  14  16
ENDBRANCH   4  14
ENDBRANCH  15  10
TORSDOF 4
ENDMDL
MODEL 8
REMARK VINA RESULT:      -7.1     27.245     31.380
REMARK  Name = 51136852
REMARK  5 active torsions:
REMARK  status: ('A' for Active; 'I' for Inactive)
REMARK    1  A    between atoms: N_4  and  C_14
REMARK    2  A    between atoms: N_6  and  C_25
REMARK    3  A    between atoms: C_10  and  C_15
REMARK    4  A    between atoms: C_14  and  C_16
REMARK    5  A    between atoms: C_22  and  C_26
REMARK                            x       y       z     vdW  Elec       q    Type
REMARK                         _______ _______ _______ _____ _____    ______ ____
ROOT
ATOM      3  O   UNL     1      -5.137  -9.930  15.485  0.00  0.00    -0.336 OA
ATOM      7  N   UNL     1      -5.127 -11.773  16.757  0.00  0.00    -0.190 NA
ATOM      8  N   UNL     1      -6.366  -9.945  16.157  0.00  0.00    -0.056 NA
ATOM     15  C   UNL     1      -4.469 -11.040  15.894  0.00  0.00    +0.245 A 
ATOM     22  C   UNL     1      -6.284 -11.062  16.886  0.00  0.00    +0.204 A 
ENDROOT
BRANCH  22  26
ATOM      5  N   UNL     1     -10.444 -12.730  20.179  0.00  0.00    -0.313 N 
ATOM      6  N   UNL     1     -12.679 -13.696  21.672  0.00  0.00    -0.302 NA
ATOM      9  N   UNL     1      -9.695 -11.935  18.079  0.00  0.00    -0.240 NA
ATOM     17  C   UNL     1     -10.421 -14.083  20.742  0.00  0.00    +0.122 C 
ATOM     18  C   UNL     1     -11.776 -12.154  19.964  0.00  0.00    +0.122 C 
ATOM     19  C   UNL     1     -11.322 -14.166  21.977  0.00  0.00    +0.103 C 
ATOM     20  C   UNL     1     -12.634 -12.299  21.224  0.00  0.00    +0.103 C 
ATOM     21  C   UNL     1      -9.402 -12.309  19.345  0.00  0.00    +0.121 A 
ATOM     25  C   UNL     1     -13.545 -13.830  22.843  0.00  0.00    +0.105 C 
ATOM     26  C   UNL     1      -7.340 -11.496  17.753  0.00  0.00    +0.041 A 
ATOM     27  C   UNL     1      -8.123 -12.303  19.879  0.00  0.00    +0.044 A 
ATOM     28  C   UNL     1      -7.078 -11.888  19.062  0.00  0.00    +0.016 A 
ATOM     29  C   UNL     1      -8.654 -11.538  17.314  0.00  0.00    +0.124 A 
ENDBRANCH  22  26
BRANCH  15  10
ATOM      4  N   UNL     1      -2.886 -10.498  14.051  0.00  0.00    -0.287 NA
ATOM     10  C   UNL     1      -3.092 -11.255  15.303  0.00  0.00    +0.146 C 
ATOM     11  C   UNL     1      -1.963 -10.780  16.236  0.00  0.00    +0.030 C 
ATOM     12  C   UNL     1      -1.141  -9.807  15.403  0.00  0.00    +0.017 C 
ATOM     13  C   UNL     1      -1.456 -10.205  13.976  0.00  0.00    +0.085 C 
BRANCH   4  14
ATOM     14  C   UNL     1      -3.366 -11.204  12.869  0.00  0.00    +0.120 C 
BRANCH  14  16
ATOM      1  F   UNL     1      -7.255  -8.681  11.344  0.00  0.00    -0.202 F 
ATOM      2  F   UNL     1      -5.851  -7.720   9.203  0.00  0.00    -0.202 F 
ATOM     16  C   UNL     1      -4.030 -10.272  11.890  0.00  0.00    -0.030 A 
ATOM     23  C   UNL     1      -5.361  -9.901  12.074  0.00  0.00    +0.046 A 
ATOM     24  C   UNL     1      -3.313  -9.783  10.798  0.00  0.00    +0.008 A 
ATOM     30  C   UNL     1      -5.977  -9.038  11.167  0.00  0.00    +0.159 A 
ATOM     31  C   UNL     1      -3.928  -8.920   9.890  0.00  0.00    +0.041 A 
ATOM     32  C   UNL     1      -5.260  -8.549  10.075  0.00  0.00    +0.158 A 
ENDBRANCH  14  16
ENDBRANCH   4  14
ENDBRANCH  15  10
TORSDOF 4
ENDMDL
MODEL 9
REMARK VINA RESULT:      -7.0      3.888     10.151
REMARK  Name = 51136852
REMARK  5 active torsions:
REMARK  status: ('A' for Active; 'I' for Inactive)
REMARK    1  A    between atoms: N_4  and  C_14
REMARK    2  A    between atoms: N_6  and  C_25
REMARK    3  A    between atoms: C_10  and  C_15
REMARK    4  A    between atoms: C_14  and  C_16
REMARK    5  A    between atoms: C_22  and  C_26
REMARK                            x       y       z     vdW  Elec       q    Type
REMARK                         _______ _______ _______ _____ _____    ______ ____
ROOT
ATOM      3  O   UNL     1      21.857   4.207  20.655  0.00  0.00    -0.336 OA
ATOM      7  N   UNL     1      21.175   6.332  20.463  0.00  0.00    -0.190 NA
ATOM      8  N   UNL     1      20.463   4.158  20.529  0.00  0.00    -0.056 NA
ATOM     15  C   UNL     1      22.194   5.522  20.607  0.00  0.00    +0.245 A 
ATOM     22  C   UNL     1      20.135   5.449  20.421  0.00  0.00    +0.204 A 
ENDROOT
BRANCH  22  26
ATOM      5  N   UNL     1      14.871   7.114  19.751  0.00  0.00    -0.313 N 
ATOM      6  N   UNL     1      12.121   7.746  19.313  0.00  0.00    -0.302 NA
ATOM      9  N   UNL     1      16.747   5.905  18.961  0.00  0.00    -0.240 NA
ATOM     17  C   UNL     1      13.866   6.752  20.755  0.00  0.00    +0.122 C 
ATOM     18  C   UNL     1      14.367   7.297  18.385  0.00  0.00    +0.122 C 
ATOM     19  C   UNL     1      12.664   7.698  20.675  0.00  0.00    +0.103 C 
ATOM     20  C   UNL     1      13.149   8.225  18.381  0.00  0.00    +0.103 C 
ATOM     21  C   UNL     1      16.196   6.692  19.912  0.00  0.00    +0.121 A 
ATOM     25  C   UNL     1      10.941   8.609  19.261  0.00  0.00    +0.105 C 
ATOM     26  C   UNL     1      18.779   5.891  20.269  0.00  0.00    +0.041 A 
ATOM     27  C   UNL     1      16.862   7.112  21.052  0.00  0.00    +0.044 A 
ATOM     28  C   UNL     1      18.178   6.700  21.227  0.00  0.00    +0.016 A 
ATOM     29  C   UNL     1      18.028   5.524  19.164  0.00  0.00    +0.124 A 
ENDBRANCH  22  26
BRANCH  15  10
ATOM      4  N   UNL     1      24.112   5.978  22.127  0.00  0.00    -0.287 NA
ATOM     10  C   UNL     1      23.668   5.846  20.724  0.00  0.00    +0.146 C 
ATOM     11  C   UNL     1      24.568   4.746  20.132  0.00  0.00    +0.030 C 
ATOM     12  C   UNL     1      25.522   4.364  21.255  0.00  0.00    +0.017 C 
ATOM     13  C   UNL     1      25.520   5.584  22.154  0.00  0.00    +0.085 C 
BRANCH   4  14
ATOM     14  C   UNL     1      23.904   7.313  22.671  0.00  0.00    +0.120 C 
BRANCH  14  16
ATOM      1  F   UNL     1      21.713   5.576  26.671  0.00  0.00    -0.202 F 
ATOM      2  F   UNL     1      19.709   7.422  26.432  0.00  0.00    -0.202 F 
ATOM     16  C   UNL     1      22.783   7.343  23.677  0.00  0.00    -0.030 A 
ATOM     23  C   UNL     1      22.766   6.428  24.729  0.00  0.00    +0.046 A 
ATOM     24  C   UNL     1      21.761   8.284  23.554  0.00  0.00    +0.008 A 
ATOM     30  C   UNL     1      21.728   6.454  25.660  0.00  0.00    +0.159 A 
ATOM     31  C   UNL     1      20.723   8.311  24.485  0.00  0.00    +0.041 A 
ATOM     32  C   UNL     1      20.707   7.396  25.538  0.00  0.00    +0.158 A 
ENDBRANCH  14  16
ENDBRANCH   4  14
ENDBRANCH  15  10
TORSDOF 4
ENDMDL
MODEL 10
REMARK VINA RESULT:      -7.0      2.984      4.108
REMARK  Name = 51136852
REMARK  5 active torsions:
REMARK  status: ('A' for Active; 'I' for Inactive)
REMARK    1  A    between atoms: N_4  and  C_14
REMARK    2  A    between atoms: N_6  and  C_25
REMARK    3  A    between atoms: C_10  and  C_15
REMARK    4  A    between atoms: C_14  and  C_16
REMARK    5  A    between atoms: C_22  and  C_26
REMARK                            x       y       z     vdW  Elec       q    Type
REMARK                         _______ _______ _______ _____ _____    ______ ____
ROOT
ATOM      3  O   UNL     1      14.432   6.945  19.717  0.00  0.00    -0.336 OA
ATOM      7  N   UNL     1      15.708   7.484  21.476  0.00  0.00    -0.190 NA
ATOM      8  N   UNL     1      15.723   6.491  19.414  0.00  0.00    -0.056 NA
ATOM     15  C   UNL     1      14.511   7.516  20.946  0.00  0.00    +0.245 A 
ATOM     22  C   UNL     1      16.417   6.846  20.500  0.00  0.00    +0.204 A 
ENDROOT
BRANCH  22  26
ATOM      5  N   UNL     1      21.845   5.738  20.983  0.00  0.00    -0.313 N 
ATOM      6  N   UNL     1      24.631   5.111  20.991  0.00  0.00    -0.302 NA
ATOM      9  N   UNL     1      19.729   5.220  20.055  0.00  0.00    -0.240 NA
ATOM     17  C   UNL     1      22.827   6.754  20.593  0.00  0.00    +0.122 C 
ATOM     18  C   UNL     1      22.286   4.344  20.850  0.00  0.00    +0.122 C 
ATOM     19  C   UNL     1      24.177   6.480  21.262  0.00  0.00    +0.103 C 
ATOM     20  C   UNL     1      23.653   4.148  21.511  0.00  0.00    +0.103 C 
ATOM     21  C   UNL     1      20.478   6.010  20.857  0.00  0.00    +0.121 A 
ATOM     25  C   UNL     1      25.946   4.879  21.589  0.00  0.00    +0.105 C 
ATOM     26  C   UNL     1      17.819   6.580  20.640  0.00  0.00    +0.041 A 
ATOM     27  C   UNL     1      19.976   7.087  21.571  0.00  0.00    +0.044 A 
ATOM     28  C   UNL     1      18.621   7.370  21.455  0.00  0.00    +0.016 A 
ATOM     29  C   UNL     1      18.416   5.526  19.966  0.00  0.00    +0.124 A 
ENDBRANCH  22  26
BRANCH  15  10
ATOM      4  N   UNL     1      12.731   9.241  20.723  0.00  0.00    -0.287 NA
ATOM     10  C   UNL     1      13.228   8.092  21.507  0.00  0.00    +0.146 C 
ATOM     11  C   UNL     1      12.068   7.080  21.497  0.00  0.00    +0.030 C 
ATOM     12  C   UNL     1      10.944   7.772  20.738  0.00  0.00    +0.017 C 
ATOM     13  C   UNL     1      11.276   9.244  20.872  0.00  0.00    +0.085 C 
BRANCH   4  14
ATOM     14  C   UNL     1      13.326  10.509  21.123  0.00  0.00    +0.120 C 
BRANCH  14  16
ATOM      1  F   UNL     1       9.992  14.038  21.624  0.00  0.00    -0.202 F 
ATOM      2  F   UNL     1       9.827  13.565  24.313  0.00  0.00    -0.202 F 
ATOM     16  C   UNL     1      12.391  11.325  21.976  0.00  0.00    -0.030 A 
ATOM     23  C   UNL     1      11.610  12.323  21.394  0.00  0.00    +0.046 A 
ATOM     24  C   UNL     1      12.307  11.084  23.347  0.00  0.00    +0.008 A 
ATOM     30  C   UNL     1      10.743  13.080  22.183  0.00  0.00    +0.159 A 
ATOM     31  C   UNL     1      11.441  11.840  24.136  0.00  0.00    +0.041 A 
ATOM     32  C   UNL     1      10.659  12.838  23.554  0.00  0.00    +0.158 A 
ENDBRANCH  14  16
ENDBRANCH   4  14
ENDBRANCH  15  10
TORSDOF 4
ENDMDL
