MODEL 1
REMARK VINA RESULT:      -7.5      0.000      0.000
REMARK  Name = 11882599
REMARK  13 active torsions:
REMARK  status: ('A' for Active; 'I' for Inactive)
REMARK    1  A    between atoms: S_1  and  N_12
REMARK    2  A    between atoms: S_1  and  C_32
REMARK    3  A    between atoms: N_11  and  C_27
REMARK    4  A    between atoms: N_12  and  C_17
REMARK    5  A    between atoms: N_13  and  C_31
REMARK    6  A    between atoms: N_13  and  C_36
REMARK    7  A    between atoms: C_15  and  C_21
REMARK    8  A    between atoms: C_16  and  C_28
REMARK    9  A    between atoms: C_21  and  C_27
REMARK   10  A    between atoms: C_27  and  C_30
REMARK   11  A    between atoms: C_29  and  C_31
REMARK   12  A    between atoms: C_31  and  C_33
REMARK   13  A    between atoms: C_37  and  C_40
REMARK                            x       y       z     vdW  Elec       q    Type
REMARK                         _______ _______ _______ _____ _____    ______ ____
ROOT
ATOM      6  O   UNL     1      12.008   6.530  19.108  0.00  0.00    -0.274 OA
ATOM     10  N   UNL     1      13.776   7.310  20.407  0.00  0.00    -0.289 N 
ATOM     16  C   UNL     1      14.285   7.828  21.688  0.00  0.00    +0.163 C 
ATOM     17  C   UNL     1      16.652   7.621  20.754  0.00  0.00    +0.080 C 
ATOM     20  C   UNL     1      15.738   7.430  21.964  0.00  0.00    +0.052 C 
ATOM     22  C   UNL     1      16.063   6.936  19.524  0.00  0.00    +0.039 C 
ATOM     25  C   UNL     1      14.659   7.451  19.243  0.00  0.00    +0.110 C 
ATOM     29  C   UNL     1      12.474   6.839  20.208  0.00  0.00    +0.233 C 
ENDROOT
BRANCH  16  28
ATOM      5  O   UNL     1      13.575   9.888  20.706  0.00  0.00    -0.274 OA
ATOM     11  N   UNL     1      14.616   9.931  22.789  0.00  0.00    -0.302 N 
ATOM     28  C   UNL     1      14.105   9.318  21.657  0.00  0.00    +0.234 C 
ATOM     41  H   UNL     1      15.080   9.373  23.498  0.00  0.00    +0.150 HD
BRANCH  11  27
ATOM     27  C   UNL     1      14.587  11.361  22.994  0.00  0.00    +0.159 C 
BRANCH  27  30
ATOM      7  O   UNL     1      16.232  13.076  22.485  0.00  0.00    -0.274 OA
ATOM     14  N   UNL     1      16.973  10.953  22.952  0.00  0.00    -0.328 N 
ATOM     30  C   UNL     1      15.994  11.911  22.790  0.00  0.00    +0.231 C 
ATOM     44  H   UNL     1      17.953  11.188  22.835  0.00  0.00    +0.145 HD
ATOM     45  H   UNL     1      16.762   9.989  23.186  0.00  0.00    +0.145 HD
ENDBRANCH  27  30
BRANCH  27  21
ATOM     21  C   UNL     1      13.993  11.741  24.353  0.00  0.00    +0.035 C 
BRANCH  21  15
ATOM     15  C   UNL     1      12.494  12.032  24.322  0.00  0.00    -0.009 C 
ATOM     18  C   UNL     1      12.109  12.754  23.023  0.00  0.00    +0.003 C 
ATOM     19  C   UNL     1      12.076  12.855  25.548  0.00  0.00    +0.003 C 
ATOM     23  C   UNL     1      10.624  13.104  22.990  0.00  0.00    +0.000 C 
ATOM     24  C   UNL     1      10.590  13.205  25.511  0.00  0.00    +0.000 C 
ATOM     26  C   UNL     1      10.210  13.913  24.215  0.00  0.00    +0.000 C 
ENDBRANCH  21  15
ENDBRANCH  27  21
ENDBRANCH  11  27
ENDBRANCH  16  28
BRANCH  17  12
ATOM     12  N   UNL     1      17.985   7.040  21.051  0.00  0.00    -0.187 NA
ATOM     42  H   UNL     1      18.041   6.024  21.188  0.00  0.00    +0.148 HD
BRANCH  12   1
ATOM      1  S   UNL     1      19.255   8.052  21.544  0.00  0.00    +0.059 S 
ATOM      8  O   UNL     1      19.217   8.209  22.986  0.00  0.00    -0.153 OA
ATOM      9  O   UNL     1      19.283   9.220  20.685  0.00  0.00    -0.153 OA
BRANCH   1  32
ATOM     32  C   UNL     1      20.675   7.081  21.140  0.00  0.00    +0.106 A 
ATOM     34  C   UNL     1      20.664   5.703  21.358  0.00  0.00    +0.041 A 
ATOM     35  C   UNL     1      21.808   7.692  20.602  0.00  0.00    +0.028 A 
ATOM     37  C   UNL     1      21.784   4.937  21.039  0.00  0.00    +0.057 A 
ATOM     38  C   UNL     1      22.929   6.926  20.282  0.00  0.00    +0.002 A 
ATOM     39  C   UNL     1      22.917   5.548  20.501  0.00  0.00    +0.012 A 
BRANCH  37  40
ATOM      2  F   UNL     1      20.666   2.840  20.767  0.00  0.00    -0.166 F 
ATOM      3  F   UNL     1      22.834   2.812  20.713  0.00  0.00    -0.166 F 
ATOM      4  F   UNL     1      21.801   3.142  22.598  0.00  0.00    -0.166 F 
ATOM     40  C   UNL     1      21.772   3.464  21.272  0.00  0.00    +0.417 C 
ENDBRANCH  37  40
ENDBRANCH   1  32
ENDBRANCH  12   1
ENDBRANCH  17  12
BRANCH  29  31
ATOM     31  C   UNL     1      11.605   6.699  21.435  0.00  0.00    +0.137 C 
ATOM     33  C   UNL     1      11.050   5.291  21.517  0.00  0.00    +0.034 C 
BRANCH  31  13
ATOM     13  N   UNL     1      10.538   7.676  21.310  0.00  0.00    -0.309 NA
ATOM     36  C   UNL     1      10.600   8.662  22.381  0.00  0.00    +0.101 C 
ATOM     43  H   UNL     1      10.637   8.177  20.427  0.00  0.00    +0.122 HD
ENDBRANCH  31  13
ENDBRANCH  29  31
TORSDOF 11
ENDMDL
MODEL 2
REMARK VINA RESULT:      -7.0      1.691      2.228
REMARK  Name = 11882599
REMARK  13 active torsions:
REMARK  status: ('A' for Active; 'I' for Inactive)
REMARK    1  A    between atoms: S_1  and  N_12
REMARK    2  A    between atoms: S_1  and  C_32
REMARK    3  A    between atoms: N_11  and  C_27
REMARK    4  A    between atoms: N_12  and  C_17
REMARK    5  A    between atoms: N_13  and  C_31
REMARK    6  A    between atoms: N_13  and  C_36
REMARK    7  A    between atoms: C_15  and  C_21
REMARK    8  A    between atoms: C_16  and  C_28
REMARK    9  A    between atoms: C_21  and  C_27
REMARK   10  A    between atoms: C_27  and  C_30
REMARK   11  A    between atoms: C_29  and  C_31
REMARK   12  A    between atoms: C_31  and  C_33
REMARK   13  A    between atoms: C_37  and  C_40
REMARK                            x       y       z     vdW  Elec       q    Type
REMARK                         _______ _______ _______ _____ _____    ______ ____
ROOT
ATOM      6  O   UNL     1      11.511   7.363  19.260  0.00  0.00    -0.274 OA
ATOM     10  N   UNL     1      13.311   8.147  20.511  0.00  0.00    -0.289 N 
ATOM     16  C   UNL     1      13.897   8.511  21.812  0.00  0.00    +0.163 C 
ATOM     17  C   UNL     1      16.153   8.777  20.645  0.00  0.00    +0.080 C 
ATOM     20  C   UNL     1      15.408   8.270  21.881  0.00  0.00    +0.052 C 
ATOM     22  C   UNL     1      15.513   8.231  19.373  0.00  0.00    +0.039 C 
ATOM     25  C   UNL     1      14.035   8.594  19.315  0.00  0.00    +0.110 C 
ATOM     29  C   UNL     1      12.058   7.546  20.351  0.00  0.00    +0.233 C 
ENDROOT
BRANCH  16  28
ATOM      5  O   UNL     1      13.267  10.717  21.145  0.00  0.00    -0.274 OA
ATOM     11  N   UNL     1      13.593  10.274  23.407  0.00  0.00    -0.302 N 
ATOM     28  C   UNL     1      13.543   9.948  22.062  0.00  0.00    +0.234 C 
ATOM     41  H   UNL     1      13.881   9.575  24.084  0.00  0.00    +0.150 HD
BRANCH  11  27
ATOM     27  C   UNL     1      13.316  11.600  23.910  0.00  0.00    +0.159 C 
BRANCH  27  30
ATOM      7  O   UNL     1      13.642  12.239  26.232  0.00  0.00    -0.274 OA
ATOM     14  N   UNL     1      15.462  11.521  25.028  0.00  0.00    -0.328 N 
ATOM     30  C   UNL     1      14.123  11.817  25.184  0.00  0.00    +0.231 C 
ATOM     44  H   UNL     1      16.111  11.631  25.800  0.00  0.00    +0.145 HD
ATOM     45  H   UNL     1      15.851  11.191  24.151  0.00  0.00    +0.145 HD
ENDBRANCH  27  30
BRANCH  27  21
ATOM     21  C   UNL     1      11.817  11.844  24.109  0.00  0.00    +0.035 C 
BRANCH  21  15
ATOM     15  C   UNL     1      11.317  13.169  23.537  0.00  0.00    -0.009 C 
ATOM     18  C   UNL     1      10.212  13.759  24.426  0.00  0.00    +0.003 C 
ATOM     19  C   UNL     1      10.820  12.986  22.097  0.00  0.00    +0.003 C 
ATOM     23  C   UNL     1       9.658  15.059  23.848  0.00  0.00    +0.000 C 
ATOM     24  C   UNL     1      10.264  14.288  21.523  0.00  0.00    +0.000 C 
ATOM     26  C   UNL     1       9.173  14.875  22.413  0.00  0.00    +0.000 C 
ENDBRANCH  21  15
ENDBRANCH  27  21
ENDBRANCH  11  27
ENDBRANCH  16  28
BRANCH  17  12
ATOM     12  N   UNL     1      17.568   8.339  20.713  0.00  0.00    -0.187 NA
ATOM     42  H   UNL     1      18.293   9.038  20.514  0.00  0.00    +0.148 HD
BRANCH  12   1
ATOM      1  S   UNL     1      17.939   6.682  20.712  0.00  0.00    +0.059 S 
ATOM      8  O   UNL     1      18.132   6.231  19.346  0.00  0.00    -0.153 OA
ATOM      9  O   UNL     1      17.006   5.994  21.582  0.00  0.00    -0.153 OA
BRANCH   1  32
ATOM     32  C   UNL     1      19.511   6.659  21.520  0.00  0.00    +0.106 A 
ATOM     34  C   UNL     1      20.466   5.707  21.162  0.00  0.00    +0.041 A 
ATOM     35  C   UNL     1      19.797   7.592  22.516  0.00  0.00    +0.028 A 
ATOM     37  C   UNL     1      21.706   5.689  21.799  0.00  0.00    +0.057 A 
ATOM     38  C   UNL     1      21.038   7.575  23.153  0.00  0.00    +0.002 A 
ATOM     39  C   UNL     1      21.992   6.622  22.795  0.00  0.00    +0.012 A 
BRANCH  37  40
ATOM      2  F   UNL     1      22.305   3.383  21.588  0.00  0.00    -0.166 F 
ATOM      3  F   UNL     1      23.112   4.747  20.109  0.00  0.00    -0.166 F 
ATOM      4  F   UNL     1      23.876   4.780  22.144  0.00  0.00    -0.166 F 
ATOM     40  C   UNL     1      22.727   4.671  21.417  0.00  0.00    +0.417 C 
ENDBRANCH  37  40
ENDBRANCH   1  32
ENDBRANCH  12   1
ENDBRANCH  17  12
BRANCH  29  31
ATOM     31  C   UNL     1      11.355   7.092  21.607  0.00  0.00    +0.137 C 
ATOM     33  C   UNL     1      11.133   5.594  21.562  0.00  0.00    +0.034 C 
BRANCH  31  13
ATOM     13  N   UNL     1      10.091   7.807  21.665  0.00  0.00    -0.309 NA
ATOM     36  C   UNL     1      10.221   9.041  22.429  0.00  0.00    +0.101 C 
ATOM     43  H   UNL     1       9.800   8.060  20.721  0.00  0.00    +0.122 HD
ENDBRANCH  31  13
ENDBRANCH  29  31
TORSDOF 11
ENDMDL
MODEL 3
REMARK VINA RESULT:      -7.0     29.080     31.302
REMARK  Name = 11882599
REMARK  13 active torsions:
REMARK  status: ('A' for Active; 'I' for Inactive)
REMARK    1  A    between atoms: S_1  and  N_12
REMARK    2  A    between atoms: S_1  and  C_32
REMARK    3  A    between atoms: N_11  and  C_27
REMARK    4  A    between atoms: N_12  and  C_17
REMARK    5  A    between atoms: N_13  and  C_31
REMARK    6  A    between atoms: N_13  and  C_36
REMARK    7  A    between atoms: C_15  and  C_21
REMARK    8  A    between atoms: C_16  and  C_28
REMARK    9  A    between atoms: C_21  and  C_27
REMARK   10  A    between atoms: C_27  and  C_30
REMARK   11  A    between atoms: C_29  and  C_31
REMARK   12  A    between atoms: C_31  and  C_33
REMARK   13  A    between atoms: C_37  and  C_40
REMARK                            x       y       z     vdW  Elec       q    Type
REMARK                         _______ _______ _______ _____ _____    ______ ____
ROOT
ATOM      6  O   UNL     1     -13.168  -8.599  16.310  0.00  0.00    -0.274 OA
ATOM     10  N   UNL     1     -10.866  -8.930  16.428  0.00  0.00    -0.289 N 
ATOM     16  C   UNL     1      -9.501  -8.556  16.020  0.00  0.00    +0.163 C 
ATOM     17  C   UNL     1      -8.604 -10.173  17.780  0.00  0.00    +0.080 C 
ATOM     20  C   UNL     1      -8.456  -8.806  17.111  0.00  0.00    +0.052 C 
ATOM     22  C   UNL     1     -10.037 -10.383  18.259  0.00  0.00    +0.039 C 
ATOM     25  C   UNL     1     -11.018 -10.223  17.106  0.00  0.00    +0.110 C 
ATOM     29  C   UNL     1     -12.017  -8.214  16.082  0.00  0.00    +0.233 C 
ENDROOT
BRANCH  16  28
ATOM      5  O   UNL     1     -10.082  -9.654  13.979  0.00  0.00    -0.274 OA
ATOM     11  N   UNL     1      -7.847  -9.596  14.632  0.00  0.00    -0.302 N 
ATOM     28  C   UNL     1      -9.198  -9.319  14.763  0.00  0.00    +0.234 C 
ATOM     41  H   UNL     1      -7.202  -9.316  15.363  0.00  0.00    +0.150 HD
BRANCH  11  27
ATOM     27  C   UNL     1      -7.298 -10.338  13.520  0.00  0.00    +0.159 C 
BRANCH  27  30
ATOM      7  O   UNL     1      -7.649 -12.555  14.451  0.00  0.00    -0.274 OA
ATOM     14  N   UNL     1      -8.626 -12.048  12.436  0.00  0.00    -0.328 N 
ATOM     30  C   UNL     1      -7.867 -11.751  13.549  0.00  0.00    +0.231 C 
ATOM     44  H   UNL     1      -9.055 -12.960  12.328  0.00  0.00    +0.145 HD
ATOM     45  H   UNL     1      -8.783 -11.381  11.687  0.00  0.00    +0.145 HD
ENDBRANCH  27  30
BRANCH  27  21
ATOM     21  C   UNL     1      -5.767 -10.315  13.507  0.00  0.00    +0.035 C 
BRANCH  21  15
ATOM     15  C   UNL     1      -5.153 -10.280  12.109  0.00  0.00    -0.009 C 
ATOM     18  C   UNL     1      -3.635 -10.504  12.179  0.00  0.00    +0.003 C 
ATOM     19  C   UNL     1      -5.476  -8.954  11.407  0.00  0.00    +0.003 C 
ATOM     23  C   UNL     1      -2.989 -10.422  10.798  0.00  0.00    +0.000 C 
ATOM     24  C   UNL     1      -4.826  -8.874  10.027  0.00  0.00    +0.000 C 
ATOM     26  C   UNL     1      -3.321  -9.107  10.099  0.00  0.00    +0.000 C 
ENDBRANCH  21  15
ENDBRANCH  27  21
ENDBRANCH  11  27
ENDBRANCH  16  28
BRANCH  17  12
ATOM     12  N   UNL     1      -7.680 -10.253  18.938  0.00  0.00    -0.187 NA
ATOM     42  H   UNL     1      -7.414  -9.373  19.396  0.00  0.00    +0.148 HD
BRANCH  12   1
ATOM      1  S   UNL     1      -6.797 -11.676  19.217  0.00  0.00    +0.059 S 
ATOM      8  O   UNL     1      -7.647 -12.827  18.980  0.00  0.00    -0.153 OA
ATOM      9  O   UNL     1      -6.082 -11.543  20.471  0.00  0.00    -0.153 OA
BRANCH   1  32
ATOM     32  C   UNL     1      -5.590 -11.615  17.927  0.00  0.00    +0.106 A 
ATOM     34  C   UNL     1      -5.418 -12.710  17.080  0.00  0.00    +0.041 A 
ATOM     35  C   UNL     1      -4.810 -10.472  17.754  0.00  0.00    +0.028 A 
ATOM     37  C   UNL     1      -4.466 -12.663  16.062  0.00  0.00    +0.057 A 
ATOM     38  C   UNL     1      -3.858 -10.424  16.736  0.00  0.00    +0.002 A 
ATOM     39  C   UNL     1      -3.686 -11.519  15.890  0.00  0.00    +0.012 A 
BRANCH  37  40
ATOM      2  F   UNL     1      -4.904 -13.694  13.949  0.00  0.00    -0.166 F 
ATOM      3  F   UNL     1      -2.975 -14.092  14.856  0.00  0.00    -0.166 F 
ATOM      4  F   UNL     1      -4.770 -14.991  15.690  0.00  0.00    -0.166 F 
ATOM     40  C   UNL     1      -4.281 -13.834  15.157  0.00  0.00    +0.417 C 
ENDBRANCH  37  40
ENDBRANCH   1  32
ENDBRANCH  12   1
ENDBRANCH  17  12
BRANCH  29  31
ATOM     31  C   UNL     1     -11.813  -6.885  15.397  0.00  0.00    +0.137 C 
ATOM     33  C   UNL     1     -11.456  -5.826  16.419  0.00  0.00    +0.034 C 
BRANCH  31  13
ATOM     13  N   UNL     1     -13.058  -6.563  14.722  0.00  0.00    -0.309 NA
ATOM     36  C   UNL     1     -12.933  -5.335  13.947  0.00  0.00    +0.101 C 
ATOM     43  H   UNL     1     -13.297  -7.312  14.072  0.00  0.00    +0.122 HD
ENDBRANCH  31  13
ENDBRANCH  29  31
TORSDOF 11
ENDMDL
MODEL 4
REMARK VINA RESULT:      -7.0     16.619     20.370
REMARK  Name = 11882599
REMARK  13 active torsions:
REMARK  status: ('A' for Active; 'I' for Inactive)
REMARK    1  A    between atoms: S_1  and  N_12
REMARK    2  A    between atoms: S_1  and  C_32
REMARK    3  A    between atoms: N_11  and  C_27
REMARK    4  A    between atoms: N_12  and  C_17
REMARK    5  A    between atoms: N_13  and  C_31
REMARK    6  A    between atoms: N_13  and  C_36
REMARK    7  A    between atoms: C_15  and  C_21
REMARK    8  A    between atoms: C_16  and  C_28
REMARK    9  A    between atoms: C_21  and  C_27
REMARK   10  A    between atoms: C_27  and  C_30
REMARK   11  A    between atoms: C_29  and  C_31
REMARK   12  A    between atoms: C_31  and  C_33
REMARK   13  A    between atoms: C_37  and  C_40
REMARK                            x       y       z     vdW  Elec       q    Type
REMARK                         _______ _______ _______ _____ _____    ______ ____
ROOT
ATOM      6  O   UNL     1      16.426  10.287   3.585  0.00  0.00    -0.274 OA
ATOM     10  N   UNL     1      14.540   8.965   3.923  0.00  0.00    -0.289 N 
ATOM     16  C   UNL     1      13.936   7.647   4.182  0.00  0.00    +0.163 C 
ATOM     17  C   UNL     1      11.685   8.813   4.487  0.00  0.00    +0.080 C 
ATOM     20  C   UNL     1      12.638   7.727   4.989  0.00  0.00    +0.052 C 
ATOM     22  C   UNL     1      12.409  10.151   4.376  0.00  0.00    +0.039 C 
ATOM     25  C   UNL     1      13.631  10.028   3.476  0.00  0.00    +0.110 C 
ATOM     29  C   UNL     1      15.916   9.218   3.931  0.00  0.00    +0.233 C 
ENDROOT
BRANCH  16  28
ATOM      5  O   UNL     1      14.319   7.376   1.839  0.00  0.00    -0.274 OA
ATOM     11  N   UNL     1      12.810   5.960   2.906  0.00  0.00    -0.302 N 
ATOM     28  C   UNL     1      13.730   6.992   2.846  0.00  0.00    +0.234 C 
ATOM     41  H   UNL     1      12.340   5.752   3.781  0.00  0.00    +0.150 HD
BRANCH  11  27
ATOM     27  C   UNL     1      12.418   5.183   1.751  0.00  0.00    +0.159 C 
BRANCH  27  30
ATOM      7  O   UNL     1      10.291   4.011   1.822  0.00  0.00    -0.274 OA
ATOM     14  N   UNL     1      10.274   6.293   1.564  0.00  0.00    -0.328 N 
ATOM     30  C   UNL     1      10.898   5.074   1.731  0.00  0.00    +0.231 C 
ATOM     44  H   UNL     1       9.263   6.357   1.525  0.00  0.00    +0.145 HD
ATOM     45  H   UNL     1      10.789   7.162   1.471  0.00  0.00    +0.145 HD
ENDBRANCH  27  30
BRANCH  27  21
ATOM     21  C   UNL     1      13.112   3.819   1.708  0.00  0.00    +0.035 C 
BRANCH  21  15
ATOM     15  C   UNL     1      14.005   3.609   0.487  0.00  0.00    -0.009 C 
ATOM     18  C   UNL     1      15.447   4.040   0.791  0.00  0.00    +0.003 C 
ATOM     19  C   UNL     1      13.453   4.371  -0.726  0.00  0.00    +0.003 C 
ATOM     23  C   UNL     1      16.350   3.890  -0.431  0.00  0.00    +0.000 C 
ATOM     24  C   UNL     1      14.360   4.220  -1.946  0.00  0.00    +0.000 C 
ATOM     26  C   UNL     1      15.794   4.640  -1.638  0.00  0.00    +0.000 C 
ENDBRANCH  21  15
ENDBRANCH  27  21
ENDBRANCH  11  27
ENDBRANCH  16  28
BRANCH  17  12
ATOM     12  N   UNL     1      10.549   8.943   5.433  0.00  0.00    -0.187 NA
ATOM     42  H   UNL     1      10.752   9.304   6.372  0.00  0.00    +0.148 HD
BRANCH  12   1
ATOM      1  S   UNL     1       9.085   8.150   5.107  0.00  0.00    +0.059 S 
ATOM      8  O   UNL     1       8.941   7.969   3.675  0.00  0.00    -0.153 OA
ATOM      9  O   UNL     1       8.029   8.785   5.872  0.00  0.00    -0.153 OA
BRANCH   1  32
ATOM     32  C   UNL     1       9.361   6.561   5.831  0.00  0.00    +0.106 A 
ATOM     34  C   UNL     1       9.303   6.405   7.216  0.00  0.00    +0.041 A 
ATOM     35  C   UNL     1       9.636   5.462   5.018  0.00  0.00    +0.028 A 
ATOM     37  C   UNL     1       9.521   5.152   7.787  0.00  0.00    +0.057 A 
ATOM     38  C   UNL     1       9.853   4.208   5.588  0.00  0.00    +0.002 A 
ATOM     39  C   UNL     1       9.796   4.053   6.974  0.00  0.00    +0.012 A 
BRANCH  37  40
ATOM      2  F   UNL     1       8.444   5.688   9.855  0.00  0.00    -0.166 F 
ATOM      3  F   UNL     1       9.274   3.693   9.667  0.00  0.00    -0.166 F 
ATOM      4  F   UNL     1      10.600   5.401   9.891  0.00  0.00    -0.166 F 
ATOM     40  C   UNL     1       9.459   4.986   9.268  0.00  0.00    +0.417 C 
ENDBRANCH  37  40
ENDBRANCH   1  32
ENDBRANCH  12   1
ENDBRANCH  17  12
BRANCH  29  31
ATOM     31  C   UNL     1      16.811   8.100   4.409  0.00  0.00    +0.137 C 
ATOM     33  C   UNL     1      17.199   8.331   5.855  0.00  0.00    +0.034 C 
BRANCH  31  13
ATOM     13  N   UNL     1      17.980   8.099   3.546  0.00  0.00    -0.309 NA
ATOM     36  C   UNL     1      17.599   7.968   2.146  0.00  0.00    +0.101 C 
ATOM     43  H   UNL     1      18.478   8.984   3.647  0.00  0.00    +0.122 HD
ENDBRANCH  31  13
ENDBRANCH  29  31
TORSDOF 11
ENDMDL
MODEL 5
REMARK VINA RESULT:      -6.9     15.458     19.079
REMARK  Name = 11882599
REMARK  13 active torsions:
REMARK  status: ('A' for Active; 'I' for Inactive)
REMARK    1  A    between atoms: S_1  and  N_12
REMARK    2  A    between atoms: S_1  and  C_32
REMARK    3  A    between atoms: N_11  and  C_27
REMARK    4  A    between atoms: N_12  and  C_17
REMARK    5  A    between atoms: N_13  and  C_31
REMARK    6  A    between atoms: N_13  and  C_36
REMARK    7  A    between atoms: C_15  and  C_21
REMARK    8  A    between atoms: C_16  and  C_28
REMARK    9  A    between atoms: C_21  and  C_27
REMARK   10  A    between atoms: C_27  and  C_30
REMARK   11  A    between atoms: C_29  and  C_31
REMARK   12  A    between atoms: C_31  and  C_33
REMARK   13  A    between atoms: C_37  and  C_40
REMARK                            x       y       z     vdW  Elec       q    Type
REMARK                         _______ _______ _______ _____ _____    ______ ____
ROOT
ATOM      6  O   UNL     1      18.058  10.596   5.261  0.00  0.00    -0.274 OA
ATOM     10  N   UNL     1      16.071   9.428   5.589  0.00  0.00    -0.289 N 
ATOM     16  C   UNL     1      15.335   8.154   5.647  0.00  0.00    +0.163 C 
ATOM     17  C   UNL     1      13.314   9.438   6.534  0.00  0.00    +0.080 C 
ATOM     20  C   UNL     1      14.170   8.176   6.641  0.00  0.00    +0.052 C 
ATOM     22  C   UNL     1      14.189  10.686   6.604  0.00  0.00    +0.039 C 
ATOM     25  C   UNL     1      15.262  10.651   5.524  0.00  0.00    +0.110 C 
ATOM     29  C   UNL     1      17.458   9.533   5.443  0.00  0.00    +0.233 C 
ENDROOT
BRANCH  16  28
ATOM      5  O   UNL     1      15.673   7.727   3.321  0.00  0.00    -0.274 OA
ATOM     11  N   UNL     1      13.501   7.753   4.159  0.00  0.00    -0.302 N 
ATOM     28  C   UNL     1      14.879   7.849   4.250  0.00  0.00    +0.234 C 
ATOM     41  H   UNL     1      12.928   7.920   4.979  0.00  0.00    +0.150 HD
BRANCH  11  27
ATOM     27  C   UNL     1      12.808   7.489   2.918  0.00  0.00    +0.159 C 
BRANCH  27  30
ATOM      7  O   UNL     1      10.513   8.063   2.364  0.00  0.00    -0.274 OA
ATOM     14  N   UNL     1      11.848   9.678   3.305  0.00  0.00    -0.328 N 
ATOM     30  C   UNL     1      11.595   8.407   2.832  0.00  0.00    +0.231 C 
ATOM     44  H   UNL     1      11.125  10.389   3.296  0.00  0.00    +0.145 HD
ATOM     45  H   UNL     1      12.753   9.954   3.672  0.00  0.00    +0.145 HD
ENDBRANCH  27  30
BRANCH  27  21
ATOM     21  C   UNL     1      12.445   6.010   2.760  0.00  0.00    +0.035 C 
BRANCH  21  15
ATOM     15  C   UNL     1      12.759   5.432   1.381  0.00  0.00    -0.009 C 
ATOM     18  C   UNL     1      11.469   5.009   0.665  0.00  0.00    +0.003 C 
ATOM     19  C   UNL     1      13.731   4.250   1.498  0.00  0.00    +0.003 C 
ATOM     23  C   UNL     1      11.759   4.378  -0.695  0.00  0.00    +0.000 C 
ATOM     24  C   UNL     1      14.017   3.620   0.136  0.00  0.00    +0.000 C 
ATOM     26  C   UNL     1      12.733   3.210  -0.577  0.00  0.00    +0.000 C 
ENDBRANCH  21  15
ENDBRANCH  27  21
ENDBRANCH  11  27
ENDBRANCH  16  28
BRANCH  17  12
ATOM     12  N   UNL     1      12.334   9.460   7.647  0.00  0.00    -0.187 NA
ATOM     42  H   UNL     1      12.680   9.246   8.590  0.00  0.00    +0.148 HD
BRANCH  12   1
ATOM      1  S   UNL     1      10.671   9.430   7.307  0.00  0.00    +0.059 S 
ATOM      8  O   UNL     1      10.433  10.017   6.002  0.00  0.00    -0.153 OA
ATOM      9  O   UNL     1       9.948   9.914   8.467  0.00  0.00    -0.153 OA
BRANCH   1  32
ATOM     32  C   UNL     1      10.353   7.695   7.190  0.00  0.00    +0.106 A 
ATOM     34  C   UNL     1      10.005   6.970   8.329  0.00  0.00    +0.041 A 
ATOM     35  C   UNL     1      10.450   7.050   5.957  0.00  0.00    +0.028 A 
ATOM     37  C   UNL     1       9.754   5.601   8.236  0.00  0.00    +0.057 A 
ATOM     38  C   UNL     1      10.199   5.681   5.863  0.00  0.00    +0.002 A 
ATOM     39  C   UNL     1       9.851   4.957   7.003  0.00  0.00    +0.012 A 
BRANCH  37  40
ATOM      2  F   UNL     1       9.156   3.501   9.212  0.00  0.00    -0.166 F 
ATOM      3  F   UNL     1      10.336   4.852  10.432  0.00  0.00    -0.166 F 
ATOM      4  F   UNL     1       8.241   5.290  10.044  0.00  0.00    -0.166 F 
ATOM     40  C   UNL     1       9.381   4.827   9.455  0.00  0.00    +0.417 C 
ENDBRANCH  37  40
ENDBRANCH   1  32
ENDBRANCH  12   1
ENDBRANCH  17  12
BRANCH  29  31
ATOM     31  C   UNL     1      18.251   8.251   5.527  0.00  0.00    +0.137 C 
ATOM     33  C   UNL     1      19.489   8.464   6.373  0.00  0.00    +0.034 C 
BRANCH  31  13
ATOM     13  N   UNL     1      18.603   7.883   4.167  0.00  0.00    -0.309 NA
ATOM     36  C   UNL     1      20.017   7.544   4.064  0.00  0.00    +0.101 C 
ATOM     43  H   UNL     1      18.070   7.059   3.888  0.00  0.00    +0.122 HD
ENDBRANCH  31  13
ENDBRANCH  29  31
TORSDOF 11
ENDMDL
MODEL 6
REMARK VINA RESULT:      -6.9     28.318     31.145
REMARK  Name = 11882599
REMARK  13 active torsions:
REMARK  status: ('A' for Active; 'I' for Inactive)
REMARK    1  A    between atoms: S_1  and  N_12
REMARK    2  A    between atoms: S_1  and  C_32
REMARK    3  A    between atoms: N_11  and  C_27
REMARK    4  A    between atoms: N_12  and  C_17
REMARK    5  A    between atoms: N_13  and  C_31
REMARK    6  A    between atoms: N_13  and  C_36
REMARK    7  A    between atoms: C_15  and  C_21
REMARK    8  A    between atoms: C_16  and  C_28
REMARK    9  A    between atoms: C_21  and  C_27
REMARK   10  A    between atoms: C_27  and  C_30
REMARK   11  A    between atoms: C_29  and  C_31
REMARK   12  A    between atoms: C_31  and  C_33
REMARK   13  A    between atoms: C_37  and  C_40
REMARK                            x       y       z     vdW  Elec       q    Type
REMARK                         _______ _______ _______ _____ _____    ______ ____
ROOT
ATOM      6  O   UNL     1      -8.054 -10.926  20.109  0.00  0.00    -0.274 OA
ATOM     10  N   UNL     1      -7.522 -11.359  17.884  0.00  0.00    -0.289 N 
ATOM     16  C   UNL     1      -7.576 -12.245  16.709  0.00  0.00    +0.163 C 
ATOM     17  C   UNL     1      -6.570 -10.354  15.319  0.00  0.00    +0.080 C 
ATOM     20  C   UNL     1      -7.598 -11.484  15.380  0.00  0.00    +0.052 C 
ATOM     22  C   UNL     1      -6.702  -9.444  16.537  0.00  0.00    +0.039 C 
ATOM     25  C   UNL     1      -6.567 -10.246  17.824  0.00  0.00    +0.110 C 
ATOM     29  C   UNL     1      -8.203 -11.596  19.083  0.00  0.00    +0.233 C 
ENDROOT
BRANCH  16  28
ATOM      5  O   UNL     1      -5.771 -13.311  17.855  0.00  0.00    -0.274 OA
ATOM     11  N   UNL     1      -6.124 -13.801  15.606  0.00  0.00    -0.302 N 
ATOM     28  C   UNL     1      -6.399 -13.172  16.809  0.00  0.00    +0.234 C 
ATOM     41  H   UNL     1      -6.676 -13.580  14.784  0.00  0.00    +0.150 HD
BRANCH  11  27
ATOM     27  C   UNL     1      -5.027 -14.725  15.431  0.00  0.00    +0.159 C 
BRANCH  27  30
ATOM      7  O   UNL     1      -6.057 -16.632  16.531  0.00  0.00    -0.274 OA
ATOM     14  N   UNL     1      -4.115 -15.779  17.411  0.00  0.00    -0.328 N 
ATOM     30  C   UNL     1      -5.139 -15.819  16.487  0.00  0.00    +0.231 C 
ATOM     44  H   UNL     1      -4.077 -16.448  18.172  0.00  0.00    +0.145 HD
ATOM     45  H   UNL     1      -3.372 -15.090  17.374  0.00  0.00    +0.145 HD
ENDBRANCH  27  30
BRANCH  27  21
ATOM     21  C   UNL     1      -3.668 -14.022  15.447  0.00  0.00    +0.035 C 
BRANCH  21  15
ATOM     15  C   UNL     1      -2.887 -14.137  14.139  0.00  0.00    -0.009 C 
ATOM     18  C   UNL     1      -3.836 -14.060  12.934  0.00  0.00    +0.003 C 
ATOM     19  C   UNL     1      -2.071 -15.436  14.108  0.00  0.00    +0.003 C 
ATOM     23  C   UNL     1      -3.087 -14.226  11.614  0.00  0.00    +0.000 C 
ATOM     24  C   UNL     1      -1.324 -15.600  12.785  0.00  0.00    +0.000 C 
ATOM     26  C   UNL     1      -2.268 -15.513  11.590  0.00  0.00    +0.000 C 
ENDBRANCH  21  15
ENDBRANCH  27  21
ENDBRANCH  11  27
ENDBRANCH  16  28
BRANCH  17  12
ATOM     12  N   UNL     1      -6.787  -9.561  14.085  0.00  0.00    -0.187 NA
ATOM     42  H   UNL     1      -7.346  -8.703  14.163  0.00  0.00    +0.148 HD
BRANCH  12   1
ATOM      1  S   UNL     1      -6.478 -10.259  12.568  0.00  0.00    +0.059 S 
ATOM      8  O   UNL     1      -6.865  -9.331  11.522  0.00  0.00    -0.153 OA
ATOM      9  O   UNL     1      -6.989 -11.615  12.566  0.00  0.00    -0.153 OA
BRANCH   1  32
ATOM     32  C   UNL     1      -4.714 -10.372  12.570  0.00  0.00    +0.106 A 
ATOM     34  C   UNL     1      -4.020 -10.433  13.779  0.00  0.00    +0.041 A 
ATOM     35  C   UNL     1      -4.016 -10.402  11.364  0.00  0.00    +0.028 A 
ATOM     37  C   UNL     1      -2.629 -10.522  13.780  0.00  0.00    +0.057 A 
ATOM     38  C   UNL     1      -2.624 -10.493  11.365  0.00  0.00    +0.002 A 
ATOM     39  C   UNL     1      -1.930 -10.552  12.573  0.00  0.00    +0.012 A 
BRANCH  37  40
ATOM      2  F   UNL     1      -2.701 -10.660  16.167  0.00  0.00    -0.166 F 
ATOM      3  F   UNL     1      -1.057 -11.667  15.174  0.00  0.00    -0.166 F 
ATOM      4  F   UNL     1      -1.094  -9.495  15.278  0.00  0.00    -0.166 F 
ATOM     40  C   UNL     1      -1.887 -10.587  15.072  0.00  0.00    +0.417 C 
ENDBRANCH  37  40
ENDBRANCH   1  32
ENDBRANCH  12   1
ENDBRANCH  17  12
BRANCH  29  31
ATOM     31  C   UNL     1      -9.184 -12.743  19.094  0.00  0.00    +0.137 C 
ATOM     33  C   UNL     1     -10.406 -12.369  19.908  0.00  0.00    +0.034 C 
BRANCH  31  13
ATOM     13  N   UNL     1      -8.494 -13.881  19.677  0.00  0.00    -0.309 NA
ATOM     36  C   UNL     1      -9.104 -14.273  20.942  0.00  0.00    +0.101 C 
ATOM     43  H   UNL     1      -8.560 -14.679  19.045  0.00  0.00    +0.122 HD
ENDBRANCH  31  13
ENDBRANCH  29  31
TORSDOF 11
ENDMDL
MODEL 7
REMARK VINA RESULT:      -6.8      1.953      2.644
REMARK  Name = 11882599
REMARK  13 active torsions:
REMARK  status: ('A' for Active; 'I' for Inactive)
REMARK    1  A    between atoms: S_1  and  N_12
REMARK    2  A    between atoms: S_1  and  C_32
REMARK    3  A    between atoms: N_11  and  C_27
REMARK    4  A    between atoms: N_12  and  C_17
REMARK    5  A    between atoms: N_13  and  C_31
REMARK    6  A    between atoms: N_13  and  C_36
REMARK    7  A    between atoms: C_15  and  C_21
REMARK    8  A    between atoms: C_16  and  C_28
REMARK    9  A    between atoms: C_21  and  C_27
REMARK   10  A    between atoms: C_27  and  C_30
REMARK   11  A    between atoms: C_29  and  C_31
REMARK   12  A    between atoms: C_31  and  C_33
REMARK   13  A    between atoms: C_37  and  C_40
REMARK                            x       y       z     vdW  Elec       q    Type
REMARK                         _______ _______ _______ _____ _____    ______ ____
ROOT
ATOM      6  O   UNL     1      12.505   6.540  19.119  0.00  0.00    -0.274 OA
ATOM     10  N   UNL     1      14.488   7.058  20.223  0.00  0.00    -0.289 N 
ATOM     16  C   UNL     1      15.191   7.548  21.421  0.00  0.00    +0.163 C 
ATOM     17  C   UNL     1      17.393   6.858  20.329  0.00  0.00    +0.080 C 
ATOM     20  C   UNL     1      16.568   6.908  21.615  0.00  0.00    +0.052 C 
ATOM     22  C   UNL     1      16.588   6.222  19.200  0.00  0.00    +0.039 C 
ATOM     25  C   UNL     1      15.278   6.968  18.988  0.00  0.00    +0.110 C 
ATOM     29  C   UNL     1      13.111   6.822  20.157  0.00  0.00    +0.233 C 
ENDROOT
BRANCH  16  28
ATOM      5  O   UNL     1      14.539   9.671  20.541  0.00  0.00    -0.274 OA
ATOM     11  N   UNL     1      16.269   9.579  22.097  0.00  0.00    -0.302 N 
ATOM     28  C   UNL     1      15.275   9.041  21.296  0.00  0.00    +0.234 C 
ATOM     41  H   UNL     1      16.858   8.965  22.650  0.00  0.00    +0.150 HD
BRANCH  11  27
ATOM     27  C   UNL     1      16.568  10.992  22.143  0.00  0.00    +0.159 C 
BRANCH  27  30
ATOM      7  O   UNL     1      18.641  12.249  22.315  0.00  0.00    -0.274 OA
ATOM     14  N   UNL     1      18.716   9.971  22.595  0.00  0.00    -0.328 N 
ATOM     30  C   UNL     1      18.066  11.165  22.365  0.00  0.00    +0.231 C 
ATOM     44  H   UNL     1      19.719   9.947  22.750  0.00  0.00    +0.145 HD
ATOM     45  H   UNL     1      18.233   9.079  22.615  0.00  0.00    +0.145 HD
ENDBRANCH  27  30
BRANCH  27  21
ATOM     21  C   UNL     1      15.724  11.730  23.185  0.00  0.00    +0.035 C 
BRANCH  21  15
ATOM     15  C   UNL     1      14.676  12.669  22.592  0.00  0.00    -0.009 C 
ATOM     18  C   UNL     1      13.272  12.057  22.710  0.00  0.00    +0.003 C 
ATOM     19  C   UNL     1      15.006  12.995  21.129  0.00  0.00    +0.003 C 
ATOM     23  C   UNL     1      12.211  12.953  22.076  0.00  0.00    +0.000 C 
ATOM     24  C   UNL     1      13.942  13.890  20.497  0.00  0.00    +0.000 C 
ATOM     26  C   UNL     1      12.548  13.283  20.625  0.00  0.00    +0.000 C 
ENDBRANCH  21  15
ENDBRANCH  27  21
ENDBRANCH  11  27
ENDBRANCH  16  28
BRANCH  17  12
ATOM     12  N   UNL     1      18.623   6.062  20.567  0.00  0.00    -0.187 NA
ATOM     42  H   UNL     1      18.563   5.045  20.438  0.00  0.00    +0.148 HD
BRANCH  12   1
ATOM      1  S   UNL     1      19.927   6.755  21.404  0.00  0.00    +0.059 S 
ATOM      8  O   UNL     1      19.630   6.784  22.823  0.00  0.00    -0.153 OA
ATOM      9  O   UNL     1      20.331   7.967  20.718  0.00  0.00    -0.153 OA
BRANCH   1  32
ATOM     32  C   UNL     1      21.206   5.563  21.139  0.00  0.00    +0.106 A 
ATOM     34  C   UNL     1      22.492   5.983  20.800  0.00  0.00    +0.041 A 
ATOM     35  C   UNL     1      20.928   4.203  21.269  0.00  0.00    +0.028 A 
ATOM     37  C   UNL     1      23.500   5.043  20.592  0.00  0.00    +0.057 A 
ATOM     38  C   UNL     1      21.937   3.262  21.060  0.00  0.00    +0.002 A 
ATOM     39  C   UNL     1      23.223   3.682  20.722  0.00  0.00    +0.012 A 
BRANCH  37  40
ATOM      2  F   UNL     1      24.924   6.768  19.744  0.00  0.00    -0.166 F 
ATOM      3  F   UNL     1      25.750   5.477  21.279  0.00  0.00    -0.166 F 
ATOM      4  F   UNL     1      25.447   4.712  19.266  0.00  0.00    -0.166 F 
ATOM     40  C   UNL     1      24.876   5.492  20.230  0.00  0.00    +0.417 C 
ENDBRANCH  37  40
ENDBRANCH   1  32
ENDBRANCH  12   1
ENDBRANCH  17  12
BRANCH  29  31
ATOM     31  C   UNL     1      12.341   6.914  21.452  0.00  0.00    +0.137 C 
ATOM     33  C   UNL     1      11.240   5.873  21.474  0.00  0.00    +0.034 C 
BRANCH  31  13
ATOM     13  N   UNL     1      11.794   8.257  21.522  0.00  0.00    -0.309 NA
ATOM     36  C   UNL     1      10.629   8.304  22.398  0.00  0.00    +0.101 C 
ATOM     43  H   UNL     1      12.494   8.890  21.909  0.00  0.00    +0.122 HD
ENDBRANCH  31  13
ENDBRANCH  29  31
TORSDOF 11
ENDMDL
MODEL 8
REMARK VINA RESULT:      -6.8      3.100      6.232
REMARK  Name = 11882599
REMARK  13 active torsions:
REMARK  status: ('A' for Active; 'I' for Inactive)
REMARK    1  A    between atoms: S_1  and  N_12
REMARK    2  A    between atoms: S_1  and  C_32
REMARK    3  A    between atoms: N_11  and  C_27
REMARK    4  A    between atoms: N_12  and  C_17
REMARK    5  A    between atoms: N_13  and  C_31
REMARK    6  A    between atoms: N_13  and  C_36
REMARK    7  A    between atoms: C_15  and  C_21
REMARK    8  A    between atoms: C_16  and  C_28
REMARK    9  A    between atoms: C_21  and  C_27
REMARK   10  A    between atoms: C_27  and  C_30
REMARK   11  A    between atoms: C_29  and  C_31
REMARK   12  A    between atoms: C_31  and  C_33
REMARK   13  A    between atoms: C_37  and  C_40
REMARK                            x       y       z     vdW  Elec       q    Type
REMARK                         _______ _______ _______ _____ _____    ______ ____
ROOT
ATOM      6  O   UNL     1      11.791  12.284  25.203  0.00  0.00    -0.274 OA
ATOM     10  N   UNL     1      13.251  11.835  23.446  0.00  0.00    -0.289 N 
ATOM     16  C   UNL     1      13.507  11.704  22.002  0.00  0.00    +0.163 C 
ATOM     17  C   UNL     1      15.994  11.472  22.531  0.00  0.00    +0.080 C 
ATOM     20  C   UNL     1      14.938  12.079  21.607  0.00  0.00    +0.052 C 
ATOM     22  C   UNL     1      15.671  11.781  23.989  0.00  0.00    +0.039 C 
ATOM     25  C   UNL     1      14.275  11.290  24.347  0.00  0.00    +0.110 C 
ATOM     29  C   UNL     1      12.052  12.300  23.997  0.00  0.00    +0.233 C 
ENDROOT
BRANCH  16  28
ATOM      5  O   UNL     1      13.943   9.360  21.842  0.00  0.00    -0.274 OA
ATOM     11  N   UNL     1      11.933  10.192  21.011  0.00  0.00    -0.302 N 
ATOM     28  C   UNL     1      13.170  10.290  21.626  0.00  0.00    +0.234 C 
ATOM     41  H   UNL     1      11.390  11.031  20.834  0.00  0.00    +0.150 HD
BRANCH  11  27
ATOM     27  C   UNL     1      11.385   8.943  20.534  0.00  0.00    +0.159 C 
BRANCH  27  30
ATOM      7  O   UNL     1      10.822   8.598  22.872  0.00  0.00    -0.274 OA
ATOM     14  N   UNL     1      10.197   6.998  21.348  0.00  0.00    -0.328 N 
ATOM     30  C   UNL     1      10.777   8.195  21.713  0.00  0.00    +0.231 C 
ATOM     44  H   UNL     1       9.762   6.399  22.043  0.00  0.00    +0.145 HD
ATOM     45  H   UNL     1      10.182   6.667  20.390  0.00  0.00    +0.145 HD
ENDBRANCH  27  30
BRANCH  27  21
ATOM     21  C   UNL     1      12.420   8.109  19.773  0.00  0.00    +0.035 C 
BRANCH  21  15
ATOM     15  C   UNL     1      12.241   8.121  18.256  0.00  0.00    -0.009 C 
ATOM     18  C   UNL     1      13.262   9.058  17.597  0.00  0.00    +0.003 C 
ATOM     19  C   UNL     1      10.809   8.525  17.883  0.00  0.00    +0.003 C 
ATOM     23  C   UNL     1      13.070   9.129  16.084  0.00  0.00    +0.000 C 
ATOM     24  C   UNL     1      10.620   8.596  16.368  0.00  0.00    +0.000 C 
ATOM     26  C   UNL     1      11.643   9.521  15.716  0.00  0.00    +0.000 C 
ENDBRANCH  21  15
ENDBRANCH  27  21
ENDBRANCH  11  27
ENDBRANCH  16  28
BRANCH  17  12
ATOM     12  N   UNL     1      17.324  12.034  22.190  0.00  0.00    -0.187 NA
ATOM     42  H   UNL     1      17.600  12.911  22.645  0.00  0.00    +0.148 HD
BRANCH  12   1
ATOM      1  S   UNL     1      18.150  11.473  20.817  0.00  0.00    +0.059 S 
ATOM      8  O   UNL     1      19.531  11.913  20.871  0.00  0.00    -0.153 OA
ATOM      9  O   UNL     1      17.343  11.745  19.643  0.00  0.00    -0.153 OA
BRANCH   1  32
ATOM     32  C   UNL     1      18.126   9.723  21.065  0.00  0.00    +0.106 A 
ATOM     34  C   UNL     1      17.200   8.934  20.383  0.00  0.00    +0.041 A 
ATOM     35  C   UNL     1      19.033   9.131  21.943  0.00  0.00    +0.028 A 
ATOM     37  C   UNL     1      17.181   7.554  20.579  0.00  0.00    +0.057 A 
ATOM     38  C   UNL     1      19.015   7.750  22.139  0.00  0.00    +0.002 A 
ATOM     39  C   UNL     1      18.088   6.961  21.457  0.00  0.00    +0.012 A 
BRANCH  37  40
ATOM      2  F   UNL     1      16.743   5.613  19.250  0.00  0.00    -0.166 F 
ATOM      3  F   UNL     1      15.198   6.217  20.648  0.00  0.00    -0.166 F 
ATOM      4  F   UNL     1      15.554   7.390  18.852  0.00  0.00    -0.166 F 
ATOM     40  C   UNL     1      16.190   6.710  19.849  0.00  0.00    +0.417 C 
ENDBRANCH  37  40
ENDBRANCH   1  32
ENDBRANCH  12   1
ENDBRANCH  17  12
BRANCH  29  31
ATOM     31  C   UNL     1      11.034  12.861  23.035  0.00  0.00    +0.137 C 
ATOM     33  C   UNL     1      11.535  14.169  22.456  0.00  0.00    +0.034 C 
BRANCH  31  13
ATOM     13  N   UNL     1       9.807  13.058  23.787  0.00  0.00    -0.309 NA
ATOM     36  C   UNL     1       9.419  14.463  23.799  0.00  0.00    +0.101 C 
ATOM     43  H   UNL     1       9.050  12.535  23.348  0.00  0.00    +0.122 HD
ENDBRANCH  31  13
ENDBRANCH  29  31
TORSDOF 11
ENDMDL
MODEL 9
REMARK VINA RESULT:      -6.7     28.488     31.450
REMARK  Name = 11882599
REMARK  13 active torsions:
REMARK  status: ('A' for Active; 'I' for Inactive)
REMARK    1  A    between atoms: S_1  and  N_12
REMARK    2  A    between atoms: S_1  and  C_32
REMARK    3  A    between atoms: N_11  and  C_27
REMARK    4  A    between atoms: N_12  and  C_17
REMARK    5  A    between atoms: N_13  and  C_31
REMARK    6  A    between atoms: N_13  and  C_36
REMARK    7  A    between atoms: C_15  and  C_21
REMARK    8  A    between atoms: C_16  and  C_28
REMARK    9  A    between atoms: C_21  and  C_27
REMARK   10  A    between atoms: C_27  and  C_30
REMARK   11  A    between atoms: C_29  and  C_31
REMARK   12  A    between atoms: C_31  and  C_33
REMARK   13  A    between atoms: C_37  and  C_40
REMARK                            x       y       z     vdW  Elec       q    Type
REMARK                         _______ _______ _______ _____ _____    ______ ____
ROOT
ATOM      6  O   UNL     1      -6.705 -11.592   8.453  0.00  0.00    -0.274 OA
ATOM     10  N   UNL     1      -4.974 -11.877   9.984  0.00  0.00    -0.289 N 
ATOM     16  C   UNL     1      -3.609 -12.333  10.295  0.00  0.00    +0.163 C 
ATOM     17  C   UNL     1      -3.843 -11.248  12.595  0.00  0.00    +0.080 C 
ATOM     20  C   UNL     1      -2.933 -11.507  11.393  0.00  0.00    +0.052 C 
ATOM     22  C   UNL     1      -5.179 -10.668  12.140  0.00  0.00    +0.039 C 
ATOM     25  C   UNL     1      -5.847 -11.588  11.128  0.00  0.00    +0.110 C 
ATOM     29  C   UNL     1      -5.523 -11.847   8.697  0.00  0.00    +0.233 C 
ENDROOT
BRANCH  16  28
ATOM      5  O   UNL     1      -4.582 -14.513  10.198  0.00  0.00    -0.274 OA
ATOM     11  N   UNL     1      -2.735 -14.163  11.572  0.00  0.00    -0.302 N 
ATOM     28  C   UNL     1      -3.708 -13.785  10.662  0.00  0.00    +0.234 C 
ATOM     41  H   UNL     1      -2.086 -13.471  11.933  0.00  0.00    +0.150 HD
BRANCH  11  27
ATOM     27  C   UNL     1      -2.627 -15.503  12.102  0.00  0.00    +0.159 C 
BRANCH  27  30
ATOM      7  O   UNL     1      -3.064 -17.300  10.526  0.00  0.00    -0.274 OA
ATOM     14  N   UNL     1      -1.004 -16.286  10.485  0.00  0.00    -0.328 N 
ATOM     30  C   UNL     1      -2.288 -16.453  10.960  0.00  0.00    +0.231 C 
ATOM     44  H   UNL     1      -0.650 -16.863   9.730  0.00  0.00    +0.145 HD
ATOM     45  H   UNL     1      -0.366 -15.595  10.865  0.00  0.00    +0.145 HD
ENDBRANCH  27  30
BRANCH  27  21
ATOM     21  C   UNL     1      -3.881 -15.924  12.872  0.00  0.00    +0.035 C 
BRANCH  21  15
ATOM     15  C   UNL     1      -4.309 -14.940  13.959  0.00  0.00    -0.009 C 
ATOM     18  C   UNL     1      -4.288 -15.614  15.339  0.00  0.00    +0.003 C 
ATOM     19  C   UNL     1      -5.699 -14.365  13.654  0.00  0.00    +0.003 C 
ATOM     23  C   UNL     1      -4.763 -14.665  16.437  0.00  0.00    +0.000 C 
ATOM     24  C   UNL     1      -6.171 -13.419  14.756  0.00  0.00    +0.000 C 
ATOM     26  C   UNL     1      -6.141 -14.089  16.126  0.00  0.00    +0.000 C 
ENDBRANCH  21  15
ENDBRANCH  27  21
ENDBRANCH  11  27
ENDBRANCH  16  28
BRANCH  17  12
ATOM     12  N   UNL     1      -3.178 -10.293  13.515  0.00  0.00    -0.187 NA
ATOM     42  H   UNL     1      -2.835  -9.411  13.118  0.00  0.00    +0.148 HD
BRANCH  12   1
ATOM      1  S   UNL     1      -2.650 -10.820  15.040  0.00  0.00    +0.059 S 
ATOM      8  O   UNL     1      -1.631  -9.915  15.538  0.00  0.00    -0.153 OA
ATOM      9  O   UNL     1      -2.391 -12.246  14.978  0.00  0.00    -0.153 OA
BRANCH   1  32
ATOM     32  C   UNL     1      -4.101 -10.602  16.025  0.00  0.00    +0.106 A 
ATOM     34  C   UNL     1      -4.168 -11.157  17.303  0.00  0.00    +0.041 A 
ATOM     35  C   UNL     1      -5.179  -9.873  15.525  0.00  0.00    +0.028 A 
ATOM     37  C   UNL     1      -5.313 -10.984  18.080  0.00  0.00    +0.057 A 
ATOM     38  C   UNL     1      -6.325  -9.699  16.302  0.00  0.00    +0.002 A 
ATOM     39  C   UNL     1      -6.391 -10.255  17.580  0.00  0.00    +0.012 A 
BRANCH  37  40
ATOM      2  F   UNL     1      -4.174 -11.998  19.923  0.00  0.00    -0.166 F 
ATOM      3  F   UNL     1      -5.861 -10.719  20.393  0.00  0.00    -0.166 F 
ATOM      4  F   UNL     1      -6.198 -12.673  19.501  0.00  0.00    -0.166 F 
ATOM     40  C   UNL     1      -5.384 -11.579  19.446  0.00  0.00    +0.417 C 
ENDBRANCH  37  40
ENDBRANCH   1  32
ENDBRANCH  12   1
ENDBRANCH  17  12
BRANCH  29  31
ATOM     31  C   UNL     1      -4.586 -12.140   7.551  0.00  0.00    +0.137 C 
ATOM     33  C   UNL     1      -4.882 -11.210   6.392  0.00  0.00    +0.034 C 
BRANCH  31  13
ATOM     13  N   UNL     1      -4.797 -13.527   7.176  0.00  0.00    -0.309 NA
ATOM     36  C   UNL     1      -3.554 -14.147   6.734  0.00  0.00    +0.101 C 
ATOM     43  H   UNL     1      -5.130 -14.051   7.986  0.00  0.00    +0.122 HD
ENDBRANCH  31  13
ENDBRANCH  29  31
TORSDOF 11
ENDMDL
MODEL 10
REMARK VINA RESULT:      -6.7     17.015     20.404
REMARK  Name = 11882599
REMARK  13 active torsions:
REMARK  status: ('A' for Active; 'I' for Inactive)
REMARK    1  A    between atoms: S_1  and  N_12
REMARK    2  A    between atoms: S_1  and  C_32
REMARK    3  A    between atoms: N_11  and  C_27
REMARK    4  A    between atoms: N_12  and  C_17
REMARK    5  A    between atoms: N_13  and  C_31
REMARK    6  A    between atoms: N_13  and  C_36
REMARK    7  A    between atoms: C_15  and  C_21
REMARK    8  A    between atoms: C_16  and  C_28
REMARK    9  A    between atoms: C_21  and  C_27
REMARK   10  A    between atoms: C_27  and  C_30
REMARK   11  A    between atoms: C_29  and  C_31
REMARK   12  A    between atoms: C_31  and  C_33
REMARK   13  A    between atoms: C_37  and  C_40
REMARK                            x       y       z     vdW  Elec       q    Type
REMARK                         _______ _______ _______ _____ _____    ______ ____
ROOT
ATOM      6  O   UNL     1      17.015  10.360   3.940  0.00  0.00    -0.274 OA
ATOM     10  N   UNL     1      15.352   8.850   4.553  0.00  0.00    -0.289 N 
ATOM     16  C   UNL     1      14.882   7.462   4.703  0.00  0.00    +0.163 C 
ATOM     17  C   UNL     1      12.823   8.363   5.916  0.00  0.00    +0.080 C 
ATOM     20  C   UNL     1      13.903   7.281   5.866  0.00  0.00    +0.052 C 
ATOM     22  C   UNL     1      13.454   9.751   5.870  0.00  0.00    +0.039 C 
ATOM     25  C   UNL     1      14.333   9.902   4.636  0.00  0.00    +0.110 C 
ATOM     29  C   UNL     1      16.657   9.207   4.195  0.00  0.00    +0.233 C 
ENDROOT
BRANCH  16  28
ATOM      5  O   UNL     1      13.199   7.512   3.008  0.00  0.00    -0.274 OA
ATOM     11  N   UNL     1      15.059   6.144   2.710  0.00  0.00    -0.302 N 
ATOM     28  C   UNL     1      14.277   7.063   3.389  0.00  0.00    +0.234 C 
ATOM     41  H   UNL     1      15.913   5.797   3.135  0.00  0.00    +0.150 HD
BRANCH  11  27
ATOM     27  C   UNL     1      14.689   5.584   1.430  0.00  0.00    +0.159 C 
BRANCH  27  30
ATOM      7  O   UNL     1      15.963   3.930   0.186  0.00  0.00    -0.274 OA
ATOM     14  N   UNL     1      15.419   3.476   2.371  0.00  0.00    -0.328 N 
ATOM     30  C   UNL     1      15.432   4.267   1.241  0.00  0.00    +0.231 C 
ATOM     44  H   UNL     1      15.872   2.568   2.374  0.00  0.00    +0.145 HD
ATOM     45  H   UNL     1      14.961   3.758   3.231  0.00  0.00    +0.145 HD
ENDBRANCH  27  30
BRANCH  27  21
ATOM     21  C   UNL     1      14.920   6.566   0.279  0.00  0.00    +0.035 C 
BRANCH  21  15
ATOM     15  C   UNL     1      13.650   6.957  -0.475  0.00  0.00    -0.009 C 
ATOM     18  C   UNL     1      13.333   8.444  -0.269  0.00  0.00    +0.003 C 
ATOM     19  C   UNL     1      12.468   6.081  -0.037  0.00  0.00    +0.003 C 
ATOM     23  C   UNL     1      12.038   8.849  -0.969  0.00  0.00    +0.000 C 
ATOM     24  C   UNL     1      11.174   6.489  -0.738  0.00  0.00    +0.000 C 
ATOM     26  C   UNL     1      10.868   7.970  -0.539  0.00  0.00    +0.000 C 
ENDBRANCH  21  15
ENDBRANCH  27  21
ENDBRANCH  11  27
ENDBRANCH  16  28
BRANCH  17  12
ATOM     12  N   UNL     1      12.041   8.217   7.168  0.00  0.00    -0.187 NA
ATOM     42  H   UNL     1      12.460   8.574   8.034  0.00  0.00    +0.148 HD
BRANCH  12   1
ATOM      1  S   UNL     1      10.722   7.149   7.219  0.00  0.00    +0.059 S 
ATOM      8  O   UNL     1       9.573   7.828   7.790  0.00  0.00    -0.153 OA
ATOM      9  O   UNL     1      11.168   5.883   7.768  0.00  0.00    -0.153 OA
BRANCH   1  32
ATOM     32  C   UNL     1      10.400   6.883   5.502  0.00  0.00    +0.106 A 
ATOM     34  C   UNL     1      10.785   5.687   4.897  0.00  0.00    +0.041 A 
ATOM     35  C   UNL     1       9.761   7.869   4.751  0.00  0.00    +0.028 A 
ATOM     37  C   UNL     1      10.531   5.476   3.542  0.00  0.00    +0.057 A 
ATOM     38  C   UNL     1       9.506   7.659   3.396  0.00  0.00    +0.002 A 
ATOM     39  C   UNL     1       9.891   6.462   2.791  0.00  0.00    +0.012 A 
BRANCH  37  40
ATOM      2  F   UNL     1      10.218   3.892   1.778  0.00  0.00    -0.166 F 
ATOM      3  F   UNL     1      12.246   4.184   2.489  0.00  0.00    -0.166 F 
ATOM      4  F   UNL     1      10.806   3.121   3.725  0.00  0.00    -0.166 F 
ATOM     40  C   UNL     1      10.942   4.197   2.896  0.00  0.00    +0.417 C 
ENDBRANCH  37  40
ENDBRANCH   1  32
ENDBRANCH  12   1
ENDBRANCH  17  12
BRANCH  29  31
ATOM     31  C   UNL     1      17.675   8.093   4.133  0.00  0.00    +0.137 C 
ATOM     33  C   UNL     1      18.953   8.523   4.823  0.00  0.00    +0.034 C 
BRANCH  31  13
ATOM     13  N   UNL     1      17.908   7.813   2.726  0.00  0.00    -0.309 NA
ATOM     36  C   UNL     1      19.279   8.131   2.349  0.00  0.00    +0.101 C 
ATOM     43  H   UNL     1      17.763   6.820   2.549  0.00  0.00    +0.122 HD
ENDBRANCH  31  13
ENDBRANCH  29  31
TORSDOF 11
ENDMDL
