MODEL 1
REMARK VINA RESULT:      -7.8      0.000      0.000
REMARK  Name = 11911727
REMARK  8 active torsions:
REMARK  status: ('A' for Active; 'I' for Inactive)
REMARK    1  A    between atoms: S_1  and  N_6
REMARK    2  A    between atoms: S_1  and  C_19
REMARK    3  A    between atoms: N_6  and  C_14
REMARK    4  A    between atoms: N_7  and  C_15
REMARK    5  A    between atoms: N_11  and  C_36
REMARK    6  A    between atoms: N_11  and  C_37
REMARK    7  A    between atoms: N_11  and  C_38
REMARK    8  A    between atoms: C_23  and  C_28
REMARK                            x       y       z     vdW  Elec       q    Type
REMARK                         _______ _______ _______ _____ _____    ______ ____
ROOT
ATOM      2  O   UNL     1      19.992   6.373  20.430  0.00  0.00    -0.370 OA
ATOM      3  O   UNL     1      19.524   8.492  22.673  0.00  0.00    -0.370 OA
ATOM     12  C   UNL     1      19.653   7.061  22.682  0.00  0.00    +0.170 C 
ATOM     13  C   UNL     1      18.974   6.538  21.432  0.00  0.00    +0.171 C 
ATOM     14  C   UNL     1      21.101   6.663  22.508  0.00  0.00    +0.133 C 
ATOM     15  C   UNL     1      18.024   7.644  21.037  0.00  0.00    +0.130 C 
ATOM     16  C   UNL     1      21.269   6.699  20.999  0.00  0.00    +0.183 C 
ATOM     17  C   UNL     1      18.733   8.887  21.542  0.00  0.00    +0.185 C 
ENDROOT
BRANCH  15   7
ATOM      7  N   UNL     1      16.760   7.477  21.719  0.00  0.00    -0.306 N 
ATOM      8  N   UNL     1      15.564   8.527  19.995  0.00  0.00    -0.214 NA
ATOM      9  N   UNL     1      14.434   7.688  21.951  0.00  0.00    -0.223 NA
ATOM     18  C   UNL     1      15.550   7.910  21.206  0.00  0.00    +0.216 A 
ATOM     23  C   UNL     1      14.368   8.936  19.524  0.00  0.00    +0.076 A 
ATOM     25  C   UNL     1      13.272   8.124  21.420  0.00  0.00    +0.116 A 
ATOM     27  C   UNL     1      13.177   8.760  20.200  0.00  0.00    +0.048 A 
ATOM     40  H   UNL     1      16.730   6.973  22.599  0.00  0.00    +0.149 HD
BRANCH  23  28
ATOM     28  C   UNL     1      14.406   9.586  18.236  0.00  0.00    +0.001 A 
ATOM     32  C   UNL     1      13.963   8.911  17.096  0.00  0.00    +0.012 A 
ATOM     33  C   UNL     1      14.887  10.892  18.125  0.00  0.00    +0.012 A 
ATOM     34  C   UNL     1      14.001   9.539  15.852  0.00  0.00    +0.024 A 
ATOM     35  C   UNL     1      14.926  11.521  16.880  0.00  0.00    +0.024 A 
ATOM     36  C   UNL     1      14.483  10.844  15.744  0.00  0.00    +0.029 A 
BRANCH  36  11
ATOM     11  N   UNL     1      14.521  11.479  14.485  0.00  0.00    -0.336 N 
ATOM     37  C   UNL     1      15.721  11.431  13.673  0.00  0.00    +0.129 C 
ATOM     38  C   UNL     1      13.365  12.203  13.993  0.00  0.00    +0.129 C 
ENDBRANCH  36  11
ENDBRANCH  23  28
ENDBRANCH  15   7
BRANCH  14   6
ATOM      6  N   UNL     1      21.347   5.341  23.030  0.00  0.00    -0.182 NA
ATOM     39  H   UNL     1      20.629   4.621  22.888  0.00  0.00    +0.148 HD
BRANCH   6   1
ATOM      1  S   UNL     1      22.589   5.095  24.161  0.00  0.00    +0.061 S 
ATOM      4  O   UNL     1      22.021   5.016  25.492  0.00  0.00    -0.153 OA
ATOM      5  O   UNL     1      23.666   6.026  23.880  0.00  0.00    -0.153 OA
BRANCH   1  19
ATOM     10  N   UNL     1      23.756   4.250  21.550  0.00  0.00    -0.253 NA
ATOM     19  C   UNL     1      23.170   3.485  23.719  0.00  0.00    +0.131 A 
ATOM     20  C   UNL     1      23.689   3.255  22.455  0.00  0.00    +0.097 A 
ATOM     21  C   UNL     1      23.081   2.487  24.685  0.00  0.00    +0.031 A 
ATOM     22  C   UNL     1      24.136   1.950  22.160  0.00  0.00    +0.002 A 
ATOM     24  C   UNL     1      23.526   1.205  24.387  0.00  0.00    +0.003 A 
ATOM     26  C   UNL     1      24.052   0.934  23.127  0.00  0.00    +0.010 A 
ATOM     29  C   UNL     1      24.662   1.705  20.884  0.00  0.00    +0.011 A 
ATOM     30  C   UNL     1      24.270   3.973  20.331  0.00  0.00    +0.111 A 
ATOM     31  C   UNL     1      24.733   2.730  19.951  0.00  0.00    +0.020 A 
ENDBRANCH   1  19
ENDBRANCH   6   1
ENDBRANCH  14   6
TORSDOF 6
ENDMDL
MODEL 2
REMARK VINA RESULT:      -7.8      8.068     10.735
REMARK  Name = 11911727
REMARK  8 active torsions:
REMARK  status: ('A' for Active; 'I' for Inactive)
REMARK    1  A    between atoms: S_1  and  N_6
REMARK    2  A    between atoms: S_1  and  C_19
REMARK    3  A    between atoms: N_6  and  C_14
REMARK    4  A    between atoms: N_7  and  C_15
REMARK    5  A    between atoms: N_11  and  C_36
REMARK    6  A    between atoms: N_11  and  C_37
REMARK    7  A    between atoms: N_11  and  C_38
REMARK    8  A    between atoms: C_23  and  C_28
REMARK                            x       y       z     vdW  Elec       q    Type
REMARK                         _______ _______ _______ _____ _____    ______ ____
ROOT
ATOM      2  O   UNL     1      13.181   8.895  15.214  0.00  0.00    -0.370 OA
ATOM      3  O   UNL     1      15.397  10.775  16.351  0.00  0.00    -0.370 OA
ATOM     12  C   UNL     1      14.073  10.434  16.794  0.00  0.00    +0.170 C 
ATOM     13  C   UNL     1      13.207  10.290  15.558  0.00  0.00    +0.171 C 
ATOM     14  C   UNL     1      14.065   9.054  17.411  0.00  0.00    +0.133 C 
ATOM     15  C   UNL     1      13.942  11.078  14.499  0.00  0.00    +0.130 C 
ATOM     16  C   UNL     1      13.923   8.155  16.195  0.00  0.00    +0.183 C 
ATOM     17  C   UNL     1      15.392  10.937  14.925  0.00  0.00    +0.185 C 
ENDROOT
BRANCH  15   7
ATOM      7  N   UNL     1      13.538  12.466  14.545  0.00  0.00    -0.306 N 
ATOM      8  N   UNL     1      12.203  12.257  12.626  0.00  0.00    -0.214 NA
ATOM      9  N   UNL     1      12.383  14.362  13.785  0.00  0.00    -0.223 NA
ATOM     18  C   UNL     1      12.682  13.046  13.625  0.00  0.00    +0.216 A 
ATOM     23  C   UNL     1      11.372  12.854  11.747  0.00  0.00    +0.076 A 
ATOM     25  C   UNL     1      11.546  14.894  12.870  0.00  0.00    +0.116 A 
ATOM     27  C   UNL     1      11.004  14.182  11.820  0.00  0.00    +0.048 A 
ATOM     40  H   UNL     1      13.848  13.050  15.314  0.00  0.00    +0.149 HD
BRANCH  23  28
ATOM     28  C   UNL     1      10.874  11.998  10.697  0.00  0.00    +0.001 A 
ATOM     32  C   UNL     1      11.739  11.529   9.705  0.00  0.00    +0.012 A 
ATOM     33  C   UNL     1       9.525  11.639  10.667  0.00  0.00    +0.012 A 
ATOM     34  C   UNL     1      11.257  10.704   8.690  0.00  0.00    +0.024 A 
ATOM     35  C   UNL     1       9.043  10.813   9.650  0.00  0.00    +0.024 A 
ATOM     36  C   UNL     1       9.910  10.346   8.662  0.00  0.00    +0.029 A 
BRANCH  36  11
ATOM     11  N   UNL     1       9.422   9.511   7.635  0.00  0.00    -0.336 N 
ATOM     37  C   UNL     1       9.222  10.032   6.297  0.00  0.00    +0.129 C 
ATOM     38  C   UNL     1       9.101   8.124   7.908  0.00  0.00    +0.129 C 
ENDBRANCH  36  11
ENDBRANCH  23  28
ENDBRANCH  15   7
BRANCH  14   6
ATOM      6  N   UNL     1      12.951   8.892  18.314  0.00  0.00    -0.182 NA
ATOM     39  H   UNL     1      12.295   9.675  18.423  0.00  0.00    +0.148 HD
BRANCH   6   1
ATOM      1  S   UNL     1      12.947   7.614  19.431  0.00  0.00    +0.061 S 
ATOM      4  O   UNL     1      14.312   7.280  19.787  0.00  0.00    -0.153 OA
ATOM      5  O   UNL     1      12.043   6.583  18.958  0.00  0.00    -0.153 OA
BRANCH   1  19
ATOM     10  N   UNL     1      13.770  10.128  20.806  0.00  0.00    -0.253 NA
ATOM     19  C   UNL     1      12.184   8.364  20.838  0.00  0.00    +0.131 A 
ATOM     20  C   UNL     1      12.692   9.542  21.361  0.00  0.00    +0.097 A 
ATOM     21  C   UNL     1      11.072   7.723  21.378  0.00  0.00    +0.031 A 
ATOM     22  C   UNL     1      12.040  10.093  22.484  0.00  0.00    +0.002 A 
ATOM     24  C   UNL     1      10.436   8.273  22.485  0.00  0.00    +0.003 A 
ATOM     26  C   UNL     1      10.918   9.455  23.038  0.00  0.00    +0.010 A 
ATOM     29  C   UNL     1      12.547  11.285  23.022  0.00  0.00    +0.011 A 
ATOM     30  C   UNL     1      14.227  11.277  21.355  0.00  0.00    +0.111 A 
ATOM     31  C   UNL     1      13.657  11.890  22.451  0.00  0.00    +0.020 A 
ENDBRANCH   1  19
ENDBRANCH   6   1
ENDBRANCH  14   6
TORSDOF 6
ENDMDL
MODEL 3
REMARK VINA RESULT:      -7.8     30.709     33.237
REMARK  Name = 11911727
REMARK  8 active torsions:
REMARK  status: ('A' for Active; 'I' for Inactive)
REMARK    1  A    between atoms: S_1  and  N_6
REMARK    2  A    between atoms: S_1  and  C_19
REMARK    3  A    between atoms: N_6  and  C_14
REMARK    4  A    between atoms: N_7  and  C_15
REMARK    5  A    between atoms: N_11  and  C_36
REMARK    6  A    between atoms: N_11  and  C_37
REMARK    7  A    between atoms: N_11  and  C_38
REMARK    8  A    between atoms: C_23  and  C_28
REMARK                            x       y       z     vdW  Elec       q    Type
REMARK                         _______ _______ _______ _____ _____    ______ ____
ROOT
ATOM      2  O   UNL     1      -0.564 -14.186   5.419  0.00  0.00    -0.370 OA
ATOM      3  O   UNL     1      -2.744 -15.651   3.735  0.00  0.00    -0.370 OA
ATOM     12  C   UNL     1      -1.762 -14.652   3.417  0.00  0.00    +0.170 C 
ATOM     13  C   UNL     1      -1.659 -13.723   4.611  0.00  0.00    +0.171 C 
ATOM     14  C   UNL     1      -0.389 -15.277   3.319  0.00  0.00    +0.133 C 
ATOM     15  C   UNL     1      -2.967 -13.915   5.341  0.00  0.00    +0.130 C 
ATOM     16  C   UNL     1       0.061 -15.303   4.770  0.00  0.00    +0.183 C 
ATOM     17  C   UNL     1      -3.323 -15.354   5.015  0.00  0.00    +0.185 C 
ENDROOT
BRANCH  15   7
ATOM      7  N   UNL     1      -3.968 -13.018   4.808  0.00  0.00    -0.306 N 
ATOM      8  N   UNL     1      -4.232 -11.913   6.861  0.00  0.00    -0.214 NA
ATOM      9  N   UNL     1      -5.513 -11.256   4.928  0.00  0.00    -0.223 NA
ATOM     18  C   UNL     1      -4.590 -12.033   5.555  0.00  0.00    +0.216 A 
ATOM     23  C   UNL     1      -4.857 -10.943   7.559  0.00  0.00    +0.076 A 
ATOM     25  C   UNL     1      -6.100 -10.306   5.687  0.00  0.00    +0.116 A 
ATOM     27  C   UNL     1      -5.809 -10.101   7.020  0.00  0.00    +0.048 A 
ATOM     40  H   UNL     1      -4.205 -13.065   3.823  0.00  0.00    +0.149 HD
BRANCH  23  28
ATOM     28  C   UNL     1      -4.462 -10.832   8.943  0.00  0.00    +0.001 A 
ATOM     32  C   UNL     1      -4.468 -11.960   9.767  0.00  0.00    +0.012 A 
ATOM     33  C   UNL     1      -4.073  -9.596   9.463  0.00  0.00    +0.012 A 
ATOM     34  C   UNL     1      -4.087 -11.852  11.104  0.00  0.00    +0.024 A 
ATOM     35  C   UNL     1      -3.692  -9.488  10.802  0.00  0.00    +0.024 A 
ATOM     36  C   UNL     1      -3.700 -10.617  11.621  0.00  0.00    +0.029 A 
BRANCH  36  11
ATOM     11  N   UNL     1      -3.314 -10.508  12.974  0.00  0.00    -0.336 N 
ATOM     37  C   UNL     1      -4.301 -10.619  14.031  0.00  0.00    +0.129 C 
ATOM     38  C   UNL     1      -1.928 -10.268  13.325  0.00  0.00    +0.129 C 
ENDBRANCH  36  11
ENDBRANCH  23  28
ENDBRANCH  15   7
BRANCH  14   6
ATOM      6  N   UNL     1       0.495 -14.474   2.511  0.00  0.00    -0.182 NA
ATOM     39  H   UNL     1       0.881 -13.614   2.919  0.00  0.00    +0.148 HD
BRANCH   6   1
ATOM      1  S   UNL     1       0.582 -14.737   0.836  0.00  0.00    +0.061 S 
ATOM      4  O   UNL     1       0.014 -13.599   0.139  0.00  0.00    -0.153 OA
ATOM      5  O   UNL     1       0.112 -16.078   0.549  0.00  0.00    -0.153 OA
BRANCH   1  19
ATOM     10  N   UNL     1       2.635 -16.409   2.207  0.00  0.00    -0.253 NA
ATOM     19  C   UNL     1       2.328 -14.731   0.557  0.00  0.00    +0.131 A 
ATOM     20  C   UNL     1       3.152 -15.576   1.283  0.00  0.00    +0.097 A 
ATOM     21  C   UNL     1       2.818 -13.855  -0.407  0.00  0.00    +0.031 A 
ATOM     22  C   UNL     1       4.536 -15.527   1.017  0.00  0.00    +0.002 A 
ATOM     24  C   UNL     1       4.183 -13.813  -0.664  0.00  0.00    +0.003 A 
ATOM     26  C   UNL     1       5.042 -14.646   0.046  0.00  0.00    +0.010 A 
ATOM     29  C   UNL     1       5.379 -16.377   1.747  0.00  0.00    +0.011 A 
ATOM     30  C   UNL     1       3.482 -17.213   2.889  0.00  0.00    +0.111 A 
ATOM     31  C   UNL     1       4.848 -17.236   2.699  0.00  0.00    +0.020 A 
ENDBRANCH   1  19
ENDBRANCH   6   1
ENDBRANCH  14   6
TORSDOF 6
ENDMDL
MODEL 4
REMARK VINA RESULT:      -7.6     16.411     20.129
REMARK  Name = 11911727
REMARK  8 active torsions:
REMARK  status: ('A' for Active; 'I' for Inactive)
REMARK    1  A    between atoms: S_1  and  N_6
REMARK    2  A    between atoms: S_1  and  C_19
REMARK    3  A    between atoms: N_6  and  C_14
REMARK    4  A    between atoms: N_7  and  C_15
REMARK    5  A    between atoms: N_11  and  C_36
REMARK    6  A    between atoms: N_11  and  C_37
REMARK    7  A    between atoms: N_11  and  C_38
REMARK    8  A    between atoms: C_23  and  C_28
REMARK                            x       y       z     vdW  Elec       q    Type
REMARK                         _______ _______ _______ _____ _____    ______ ____
ROOT
ATOM      2  O   UNL     1      12.716   3.772   1.671  0.00  0.00    -0.370 OA
ATOM      3  O   UNL     1      13.948   5.217  -0.805  0.00  0.00    -0.370 OA
ATOM     12  C   UNL     1      13.742   5.610   0.562  0.00  0.00    +0.170 C 
ATOM     13  C   UNL     1      12.422   5.014   1.008  0.00  0.00    +0.171 C 
ATOM     14  C   UNL     1      14.765   4.950   1.458  0.00  0.00    +0.133 C 
ATOM     15  C   UNL     1      11.678   4.756  -0.281  0.00  0.00    +0.130 C 
ATOM     16  C   UNL     1      14.139   3.592   1.722  0.00  0.00    +0.183 C 
ATOM     17  C   UNL     1      12.801   4.487  -1.265  0.00  0.00    +0.185 C 
ENDROOT
BRANCH  15   7
ATOM      7  N   UNL     1      10.941   5.938  -0.672  0.00  0.00    -0.306 N 
ATOM      8  N   UNL     1      10.187   6.328   1.515  0.00  0.00    -0.214 NA
ATOM      9  N   UNL     1       9.565   7.799  -0.289  0.00  0.00    -0.223 NA
ATOM     18  C   UNL     1      10.209   6.712   0.211  0.00  0.00    +0.216 A 
ATOM     23  C   UNL     1       9.464   7.104   2.349  0.00  0.00    +0.076 A 
ATOM     25  C   UNL     1       8.860   8.530   0.601  0.00  0.00    +0.116 A 
ATOM     27  C   UNL     1       8.773   8.228   1.944  0.00  0.00    +0.048 A 
ATOM     40  H   UNL     1      10.993   6.263  -1.632  0.00  0.00    +0.149 HD
BRANCH  23  28
ATOM     28  C   UNL     1       9.456   6.680   3.728  0.00  0.00    +0.001 A 
ATOM     32  C   UNL     1       8.591   7.286   4.643  0.00  0.00    +0.012 A 
ATOM     33  C   UNL     1      10.313   5.663   4.154  0.00  0.00    +0.012 A 
ATOM     34  C   UNL     1       8.584   6.876   5.976  0.00  0.00    +0.024 A 
ATOM     35  C   UNL     1      10.307   5.254   5.488  0.00  0.00    +0.024 A 
ATOM     36  C   UNL     1       9.442   5.861   6.399  0.00  0.00    +0.029 A 
BRANCH  36  11
ATOM     11  N   UNL     1       9.434   5.447   7.747  0.00  0.00    -0.336 N 
ATOM     37  C   UNL     1       9.786   4.085   8.099  0.00  0.00    +0.129 C 
ATOM     38  C   UNL     1       9.060   6.373   8.797  0.00  0.00    +0.129 C 
ENDBRANCH  36  11
ENDBRANCH  23  28
ENDBRANCH  15   7
BRANCH  14   6
ATOM      6  N   UNL     1      14.942   5.691   2.683  0.00  0.00    -0.182 NA
ATOM     39  H   UNL     1      14.531   5.313   3.545  0.00  0.00    +0.148 HD
BRANCH   6   1
ATOM      1  S   UNL     1      15.470   7.304   2.627  0.00  0.00    +0.061 S 
ATOM      4  O   UNL     1      15.784   7.661   1.257  0.00  0.00    -0.153 OA
ATOM      5  O   UNL     1      16.446   7.513   3.678  0.00  0.00    -0.153 OA
BRANCH   1  19
ATOM     10  N   UNL     1      14.141   7.299   5.296  0.00  0.00    -0.253 NA
ATOM     19  C   UNL     1      14.009   8.182   3.098  0.00  0.00    +0.131 A 
ATOM     20  C   UNL     1      13.516   8.072   4.388  0.00  0.00    +0.097 A 
ATOM     21  C   UNL     1      13.397   8.969   2.127  0.00  0.00    +0.031 A 
ATOM     22  C   UNL     1      12.347   8.796   4.705  0.00  0.00    +0.002 A 
ATOM     24  C   UNL     1      12.246   9.680   2.448  0.00  0.00    +0.003 A 
ATOM     26  C   UNL     1      11.721   9.594   3.733  0.00  0.00    +0.010 A 
ATOM     29  C   UNL     1      11.840   8.691   6.008  0.00  0.00    +0.011 A 
ATOM     30  C   UNL     1      13.619   7.225   6.542  0.00  0.00    +0.111 A 
ATOM     31  C   UNL     1      12.482   7.895   6.945  0.00  0.00    +0.020 A 
ENDBRANCH   1  19
ENDBRANCH   6   1
ENDBRANCH  14   6
TORSDOF 6
ENDMDL
MODEL 5
REMARK VINA RESULT:      -7.5     29.435     32.664
REMARK  Name = 11911727
REMARK  8 active torsions:
REMARK  status: ('A' for Active; 'I' for Inactive)
REMARK    1  A    between atoms: S_1  and  N_6
REMARK    2  A    between atoms: S_1  and  C_19
REMARK    3  A    between atoms: N_6  and  C_14
REMARK    4  A    between atoms: N_7  and  C_15
REMARK    5  A    between atoms: N_11  and  C_36
REMARK    6  A    between atoms: N_11  and  C_37
REMARK    7  A    between atoms: N_11  and  C_38
REMARK    8  A    between atoms: C_23  and  C_28
REMARK                            x       y       z     vdW  Elec       q    Type
REMARK                         _______ _______ _______ _____ _____    ______ ____
ROOT
ATOM      2  O   UNL     1      -6.843 -13.382  15.019  0.00  0.00    -0.370 OA
ATOM      3  O   UNL     1      -5.078 -14.380  17.390  0.00  0.00    -0.370 OA
ATOM     12  C   UNL     1      -5.900 -13.218  17.197  0.00  0.00    +0.170 C 
ATOM     13  C   UNL     1      -5.752 -12.796  15.748  0.00  0.00    +0.171 C 
ATOM     14  C   UNL     1      -7.362 -13.581  17.326  0.00  0.00    +0.133 C 
ATOM     15  C   UNL     1      -4.442 -13.412  15.316  0.00  0.00    +0.130 C 
ATOM     16  C   UNL     1      -7.696 -14.087  15.934  0.00  0.00    +0.183 C 
ATOM     17  C   UNL     1      -4.360 -14.659  16.178  0.00  0.00    +0.185 C 
ENDROOT
BRANCH  15   7
ATOM      7  N   UNL     1      -3.348 -12.517  15.624  0.00  0.00    -0.306 N 
ATOM      8  N   UNL     1      -3.316 -11.629  13.453  0.00  0.00    -0.214 NA
ATOM      9  N   UNL     1      -1.771 -10.852  15.130  0.00  0.00    -0.223 NA
ATOM     18  C   UNL     1      -2.796 -11.640  14.709  0.00  0.00    +0.216 A 
ATOM     23  C   UNL     1      -2.754 -10.763  12.585  0.00  0.00    +0.076 A 
ATOM     25  C   UNL     1      -1.256 -10.009  14.210  0.00  0.00    +0.116 A 
ATOM     27  C   UNL     1      -1.711  -9.919  12.911  0.00  0.00    +0.048 A 
ATOM     40  H   UNL     1      -2.987 -12.479  16.571  0.00  0.00    +0.149 HD
BRANCH  23  28
ATOM     28  C   UNL     1      -3.323 -10.767  11.259  0.00  0.00    +0.001 A 
ATOM     32  C   UNL     1      -3.682 -11.974  10.653  0.00  0.00    +0.012 A 
ATOM     33  C   UNL     1      -3.516  -9.565  10.575  0.00  0.00    +0.012 A 
ATOM     34  C   UNL     1      -4.230 -11.978   9.372  0.00  0.00    +0.024 A 
ATOM     35  C   UNL     1      -4.064  -9.569   9.292  0.00  0.00    +0.024 A 
ATOM     36  C   UNL     1      -4.421 -10.776   8.691  0.00  0.00    +0.029 A 
BRANCH  36  11
ATOM     11  N   UNL     1      -4.976 -10.780   7.394  0.00  0.00    -0.336 N 
ATOM     37  C   UNL     1      -4.576 -11.783   6.426  0.00  0.00    +0.129 C 
ATOM     38  C   UNL     1      -5.943  -9.772   7.006  0.00  0.00    +0.129 C 
ENDBRANCH  36  11
ENDBRANCH  23  28
ENDBRANCH  15   7
BRANCH  14   6
ATOM      6  N   UNL     1      -8.158 -12.427  17.669  0.00  0.00    -0.182 NA
ATOM     39  H   UNL     1      -8.366 -11.743  16.932  0.00  0.00    +0.148 HD
BRANCH   6   1
ATOM      1  S   UNL     1      -8.409 -12.028  19.300  0.00  0.00    +0.061 S 
ATOM      4  O   UNL     1      -7.346 -11.151  19.751  0.00  0.00    -0.153 OA
ATOM      5  O   UNL     1      -8.719 -13.239  20.035  0.00  0.00    -0.153 OA
BRANCH   1  19
ATOM     10  N   UNL     1      -8.959  -9.678  17.549  0.00  0.00    -0.253 NA
ATOM     19  C   UNL     1      -9.899 -11.080  19.216  0.00  0.00    +0.131 A 
ATOM     20  C   UNL     1      -9.996 -10.010  18.342  0.00  0.00    +0.097 A 
ATOM     21  C   UNL     1     -10.944 -11.459  20.054  0.00  0.00    +0.031 A 
ATOM     22  C   UNL     1     -11.210  -9.291  18.320  0.00  0.00    +0.002 A 
ATOM     24  C   UNL     1     -12.137 -10.747  20.025  0.00  0.00    +0.003 A 
ATOM     26  C   UNL     1     -12.271  -9.664  19.161  0.00  0.00    +0.010 A 
ATOM     29  C   UNL     1     -11.317  -8.205  17.440  0.00  0.00    +0.011 A 
ATOM     30  C   UNL     1      -9.104  -8.624  16.714  0.00  0.00    +0.111 A 
ATOM     31  C   UNL     1     -10.251  -7.862  16.622  0.00  0.00    +0.020 A 
ENDBRANCH   1  19
ENDBRANCH   6   1
ENDBRANCH  14   6
TORSDOF 6
ENDMDL
MODEL 6
REMARK VINA RESULT:      -7.5     29.868     32.350
REMARK  Name = 11911727
REMARK  8 active torsions:
REMARK  status: ('A' for Active; 'I' for Inactive)
REMARK    1  A    between atoms: S_1  and  N_6
REMARK    2  A    between atoms: S_1  and  C_19
REMARK    3  A    between atoms: N_6  and  C_14
REMARK    4  A    between atoms: N_7  and  C_15
REMARK    5  A    between atoms: N_11  and  C_36
REMARK    6  A    between atoms: N_11  and  C_37
REMARK    7  A    between atoms: N_11  and  C_38
REMARK    8  A    between atoms: C_23  and  C_28
REMARK                            x       y       z     vdW  Elec       q    Type
REMARK                         _______ _______ _______ _____ _____    ______ ____
ROOT
ATOM      2  O   UNL     1      -3.306 -11.728  10.588  0.00  0.00    -0.370 OA
ATOM      3  O   UNL     1      -4.135  -8.724  10.741  0.00  0.00    -0.370 OA
ATOM     12  C   UNL     1      -4.666  -9.922  11.329  0.00  0.00    +0.170 C 
ATOM     13  C   UNL     1      -4.529 -11.028  10.301  0.00  0.00    +0.171 C 
ATOM     14  C   UNL     1      -3.794 -10.376  12.477  0.00  0.00    +0.133 C 
ATOM     15  C   UNL     1      -4.418 -10.297   8.984  0.00  0.00    +0.130 C 
ATOM     16  C   UNL     1      -2.709 -11.168  11.767  0.00  0.00    +0.183 C 
ATOM     17  C   UNL     1      -3.754  -8.992   9.383  0.00  0.00    +0.185 C 
ENDROOT
BRANCH  15   7
ATOM      7  N   UNL     1      -5.736 -10.045   8.445  0.00  0.00    -0.306 N 
ATOM      8  N   UNL     1      -5.213 -11.058   6.394  0.00  0.00    -0.214 NA
ATOM      9  N   UNL     1      -7.398 -10.123   6.791  0.00  0.00    -0.223 NA
ATOM     18  C   UNL     1      -6.128 -10.420   7.172  0.00  0.00    +0.216 A 
ATOM     23  C   UNL     1      -5.628 -11.409   5.159  0.00  0.00    +0.076 A 
ATOM     25  C   UNL     1      -7.746 -10.503   5.543  0.00  0.00    +0.116 A 
ATOM     27  C   UNL     1      -6.895 -11.155   4.675  0.00  0.00    +0.048 A 
ATOM     40  H   UNL     1      -6.442  -9.617   9.034  0.00  0.00    +0.149 HD
BRANCH  23  28
ATOM     28  C   UNL     1      -4.642 -12.086   4.351  0.00  0.00    +0.001 A 
ATOM     32  C   UNL     1      -3.381 -12.376   4.879  0.00  0.00    +0.012 A 
ATOM     33  C   UNL     1      -4.944 -12.451   3.038  0.00  0.00    +0.012 A 
ATOM     34  C   UNL     1      -2.429 -13.029   4.098  0.00  0.00    +0.024 A 
ATOM     35  C   UNL     1      -3.990 -13.104   2.256  0.00  0.00    +0.024 A 
ATOM     36  C   UNL     1      -2.733 -13.392   2.786  0.00  0.00    +0.029 A 
BRANCH  36  11
ATOM     11  N   UNL     1      -1.769 -14.053   1.996  0.00  0.00    -0.336 N 
ATOM     37  C   UNL     1      -0.503 -14.463   2.571  0.00  0.00    +0.129 C 
ATOM     38  C   UNL     1      -2.027 -14.318   0.594  0.00  0.00    +0.129 C 
ENDBRANCH  36  11
ENDBRANCH  23  28
ENDBRANCH  15   7
BRANCH  14   6
ATOM      6  N   UNL     1      -4.531 -11.207  13.397  0.00  0.00    -0.182 NA
ATOM     39  H   UNL     1      -5.495 -11.467  13.153  0.00  0.00    +0.148 HD
BRANCH   6   1
ATOM      1  S   UNL     1      -3.965 -11.421  14.983  0.00  0.00    +0.061 S 
ATOM      4  O   UNL     1      -2.812 -10.570  15.202  0.00  0.00    -0.153 OA
ATOM      5  O   UNL     1      -3.888 -12.842  15.263  0.00  0.00    -0.153 OA
BRANCH   1  19
ATOM     10  N   UNL     1      -4.364 -11.662  17.928  0.00  0.00    -0.253 NA
ATOM     19  C   UNL     1      -5.307 -10.779  15.938  0.00  0.00    +0.131 A 
ATOM     20  C   UNL     1      -5.345 -10.979  17.308  0.00  0.00    +0.097 A 
ATOM     21  C   UNL     1      -6.297 -10.079  15.256  0.00  0.00    +0.031 A 
ATOM     22  C   UNL     1      -6.441 -10.442  18.017  0.00  0.00    +0.002 A 
ATOM     24  C   UNL     1      -7.373  -9.553  15.961  0.00  0.00    +0.003 A 
ATOM     26  C   UNL     1      -7.447  -9.734  17.339  0.00  0.00    +0.010 A 
ATOM     29  C   UNL     1      -6.489 -10.640  19.404  0.00  0.00    +0.011 A 
ATOM     30  C   UNL     1      -4.448 -11.830  19.267  0.00  0.00    +0.111 A 
ATOM     31  C   UNL     1      -5.479 -11.344  20.044  0.00  0.00    +0.020 A 
ENDBRANCH   1  19
ENDBRANCH   6   1
ENDBRANCH  14   6
TORSDOF 6
ENDMDL
MODEL 7
REMARK VINA RESULT:      -7.4     29.954     32.481
REMARK  Name = 11911727
REMARK  8 active torsions:
REMARK  status: ('A' for Active; 'I' for Inactive)
REMARK    1  A    between atoms: S_1  and  N_6
REMARK    2  A    between atoms: S_1  and  C_19
REMARK    3  A    between atoms: N_6  and  C_14
REMARK    4  A    between atoms: N_7  and  C_15
REMARK    5  A    between atoms: N_11  and  C_36
REMARK    6  A    between atoms: N_11  and  C_37
REMARK    7  A    between atoms: N_11  and  C_38
REMARK    8  A    between atoms: C_23  and  C_28
REMARK                            x       y       z     vdW  Elec       q    Type
REMARK                         _______ _______ _______ _____ _____    ______ ____
ROOT
ATOM      2  O   UNL     1      -6.575  -9.542  16.310  0.00  0.00    -0.370 OA
ATOM      3  O   UNL     1      -5.226 -11.435  18.392  0.00  0.00    -0.370 OA
ATOM     12  C   UNL     1      -6.046 -11.669  17.235  0.00  0.00    +0.170 C 
ATOM     13  C   UNL     1      -7.082 -10.564  17.185  0.00  0.00    +0.171 C 
ATOM     14  C   UNL     1      -5.239 -11.474  15.972  0.00  0.00    +0.133 C 
ATOM     15  C   UNL     1      -7.147 -10.053  18.605  0.00  0.00    +0.130 C 
ATOM     16  C   UNL     1      -5.319  -9.972  15.763  0.00  0.00    +0.183 C 
ATOM     17  C   UNL     1      -5.739 -10.305  19.114  0.00  0.00    +0.185 C 
ENDROOT
BRANCH  15   7
ATOM      7  N   UNL     1      -8.100 -10.828  19.367  0.00  0.00    -0.306 N 
ATOM      8  N   UNL     1      -9.935  -9.790  18.338  0.00  0.00    -0.214 NA
ATOM      9  N   UNL     1     -10.256 -11.493  20.012  0.00  0.00    -0.223 NA
ATOM     18  C   UNL     1      -9.472 -10.700  19.235  0.00  0.00    +0.216 A 
ATOM     23  C   UNL     1     -11.277  -9.691  18.234  0.00  0.00    +0.076 A 
ATOM     25  C   UNL     1     -11.589 -11.340  19.857  0.00  0.00    +0.116 A 
ATOM     27  C   UNL     1     -12.161 -10.447  18.975  0.00  0.00    +0.048 A 
ATOM     40  H   UNL     1      -7.766 -11.546  20.001  0.00  0.00    +0.149 HD
BRANCH  23  28
ATOM     28  C   UNL     1     -11.747  -8.720  17.275  0.00  0.00    +0.001 A 
ATOM     32  C   UNL     1     -10.899  -7.699  16.837  0.00  0.00    +0.012 A 
ATOM     33  C   UNL     1     -13.051  -8.797  16.783  0.00  0.00    +0.012 A 
ATOM     34  C   UNL     1     -11.355  -6.761  15.911  0.00  0.00    +0.024 A 
ATOM     35  C   UNL     1     -13.507  -7.857  15.857  0.00  0.00    +0.024 A 
ATOM     36  C   UNL     1     -12.658  -6.840  15.421  0.00  0.00    +0.029 A 
BRANCH  36  11
ATOM     11  N   UNL     1     -13.118  -5.891  14.485  0.00  0.00    -0.336 N 
ATOM     37  C   UNL     1     -12.184  -5.007  13.815  0.00  0.00    +0.129 C 
ATOM     38  C   UNL     1     -14.533  -5.777  14.190  0.00  0.00    +0.129 C 
ENDBRANCH  36  11
ENDBRANCH  23  28
ENDBRANCH  15   7
BRANCH  14   6
ATOM      6  N   UNL     1      -5.824 -12.188  14.863  0.00  0.00    -0.182 NA
ATOM     39  H   UNL     1      -6.846 -12.286  14.832  0.00  0.00    +0.148 HD
BRANCH   6   1
ATOM      1  S   UNL     1      -4.843 -13.151  13.866  0.00  0.00    +0.061 S 
ATOM      4  O   UNL     1      -5.680 -13.925  12.969  0.00  0.00    -0.153 OA
ATOM      5  O   UNL     1      -3.848 -13.812  14.688  0.00  0.00    -0.153 OA
BRANCH   1  19
ATOM     10  N   UNL     1      -6.055 -10.958  12.249  0.00  0.00    -0.253 NA
ATOM     19  C   UNL     1      -3.994 -11.933  12.906  0.00  0.00    +0.131 A 
ATOM     20  C   UNL     1      -4.709 -10.975  12.207  0.00  0.00    +0.097 A 
ATOM     21  C   UNL     1      -2.603 -11.988  12.893  0.00  0.00    +0.031 A 
ATOM     22  C   UNL     1      -3.976 -10.029  11.459  0.00  0.00    +0.002 A 
ATOM     24  C   UNL     1      -1.889 -11.052  12.154  0.00  0.00    +0.003 A 
ATOM     26  C   UNL     1      -2.572 -10.074  11.438  0.00  0.00    +0.010 A 
ATOM     29  C   UNL     1      -4.690  -9.055  10.747  0.00  0.00    +0.011 A 
ATOM     30  C   UNL     1      -6.706 -10.002  11.548  0.00  0.00    +0.111 A 
ATOM     31  C   UNL     1      -6.077  -9.037  10.789  0.00  0.00    +0.020 A 
ENDBRANCH   1  19
ENDBRANCH   6   1
ENDBRANCH  14   6
TORSDOF 6
ENDMDL
MODEL 8
REMARK VINA RESULT:      -7.3     29.236     32.434
REMARK  Name = 11911727
REMARK  8 active torsions:
REMARK  status: ('A' for Active; 'I' for Inactive)
REMARK    1  A    between atoms: S_1  and  N_6
REMARK    2  A    between atoms: S_1  and  C_19
REMARK    3  A    between atoms: N_6  and  C_14
REMARK    4  A    between atoms: N_7  and  C_15
REMARK    5  A    between atoms: N_11  and  C_36
REMARK    6  A    between atoms: N_11  and  C_37
REMARK    7  A    between atoms: N_11  and  C_38
REMARK    8  A    between atoms: C_23  and  C_28
REMARK                            x       y       z     vdW  Elec       q    Type
REMARK                         _______ _______ _______ _____ _____    ______ ____
ROOT
ATOM      2  O   UNL     1      -6.584 -11.864  14.948  0.00  0.00    -0.370 OA
ATOM      3  O   UNL     1      -4.196 -13.767  15.590  0.00  0.00    -0.370 OA
ATOM     12  C   UNL     1      -4.630 -12.512  16.139  0.00  0.00    +0.170 C 
ATOM     13  C   UNL     1      -5.160 -11.676  14.991  0.00  0.00    +0.171 C 
ATOM     14  C   UNL     1      -5.833 -12.716  17.032  0.00  0.00    +0.133 C 
ATOM     15  C   UNL     1      -4.514 -12.279  13.766  0.00  0.00    +0.130 C 
ATOM     16  C   UNL     1      -6.980 -12.712  16.036  0.00  0.00    +0.183 C 
ATOM     17  C   UNL     1      -4.342 -13.734  14.162  0.00  0.00    +0.185 C 
ENDROOT
BRANCH  15   7
ATOM      7  N   UNL     1      -3.224 -11.667  13.535  0.00  0.00    -0.306 N 
ATOM      8  N   UNL     1      -3.973 -10.553  11.610  0.00  0.00    -0.214 NA
ATOM      9  N   UNL     1      -1.701 -10.309  12.376  0.00  0.00    -0.223 NA
ATOM     18  C   UNL     1      -2.958 -10.817  12.475  0.00  0.00    +0.216 A 
ATOM     23  C   UNL     1      -3.680  -9.722  10.589  0.00  0.00    +0.076 A 
ATOM     25  C   UNL     1      -1.477  -9.485  11.330  0.00  0.00    +0.116 A 
ATOM     27  C   UNL     1      -2.437  -9.152  10.397  0.00  0.00    +0.048 A 
ATOM     40  H   UNL     1      -2.475 -11.816  14.202  0.00  0.00    +0.149 HD
BRANCH  23  28
ATOM     28  C   UNL     1      -4.771  -9.454   9.684  0.00  0.00    +0.001 A 
ATOM     32  C   UNL     1      -4.740  -9.954   8.380  0.00  0.00    +0.012 A 
ATOM     33  C   UNL     1      -5.861  -8.692  10.108  0.00  0.00    +0.012 A 
ATOM     34  C   UNL     1      -5.794  -9.694   7.505  0.00  0.00    +0.024 A 
ATOM     35  C   UNL     1      -6.916  -8.430   9.232  0.00  0.00    +0.024 A 
ATOM     36  C   UNL     1      -6.882  -8.932   7.931  0.00  0.00    +0.029 A 
BRANCH  36  11
ATOM     11  N   UNL     1      -7.948  -8.669   7.046  0.00  0.00    -0.336 N 
ATOM     37  C   UNL     1      -8.866  -9.726   6.667  0.00  0.00    +0.129 C 
ATOM     38  C   UNL     1      -8.133  -7.342   6.492  0.00  0.00    +0.129 C 
ENDBRANCH  36  11
ENDBRANCH  23  28
ENDBRANCH  15   7
BRANCH  14   6
ATOM      6  N   UNL     1      -5.964 -11.642  17.986  0.00  0.00    -0.182 NA
ATOM     39  H   UNL     1      -5.203 -10.956  18.054  0.00  0.00    +0.148 HD
BRANCH   6   1
ATOM      1  S   UNL     1      -7.143 -11.733  19.204  0.00  0.00    +0.061 S 
ATOM      4  O   UNL     1      -6.598 -11.211  20.442  0.00  0.00    -0.153 OA
ATOM      5  O   UNL     1      -7.748 -13.051  19.171  0.00  0.00    -0.153 OA
BRANCH   1  19
ATOM     10  N   UNL     1     -10.005 -11.566  20.024  0.00  0.00    -0.253 NA
ATOM     19  C   UNL     1      -8.360 -10.592  18.619  0.00  0.00    +0.131 A 
ATOM     20  C   UNL     1      -9.656 -10.646  19.104  0.00  0.00    +0.097 A 
ATOM     21  C   UNL     1      -7.954  -9.658  17.669  0.00  0.00    +0.031 A 
ATOM     22  C   UNL     1     -10.583  -9.709  18.599  0.00  0.00    +0.002 A 
ATOM     24  C   UNL     1      -8.873  -8.738  17.178  0.00  0.00    +0.003 A 
ATOM     26  C   UNL     1     -10.185  -8.762  17.640  0.00  0.00    +0.010 A 
ATOM     29  C   UNL     1     -11.898  -9.756  19.083  0.00  0.00    +0.011 A 
ATOM     30  C   UNL     1     -11.284 -11.577  20.464  0.00  0.00    +0.111 A 
ATOM     31  C   UNL     1     -12.259 -10.703  20.030  0.00  0.00    +0.020 A 
ENDBRANCH   1  19
ENDBRANCH   6   1
ENDBRANCH  14   6
TORSDOF 6
ENDMDL
MODEL 9
REMARK VINA RESULT:      -7.2     30.090     33.227
REMARK  Name = 11911727
REMARK  8 active torsions:
REMARK  status: ('A' for Active; 'I' for Inactive)
REMARK    1  A    between atoms: S_1  and  N_6
REMARK    2  A    between atoms: S_1  and  C_19
REMARK    3  A    between atoms: N_6  and  C_14
REMARK    4  A    between atoms: N_7  and  C_15
REMARK    5  A    between atoms: N_11  and  C_36
REMARK    6  A    between atoms: N_11  and  C_37
REMARK    7  A    between atoms: N_11  and  C_38
REMARK    8  A    between atoms: C_23  and  C_28
REMARK                            x       y       z     vdW  Elec       q    Type
REMARK                         _______ _______ _______ _____ _____    ______ ____
ROOT
ATOM      2  O   UNL     1      -7.300 -10.176  16.731  0.00  0.00    -0.370 OA
ATOM      3  O   UNL     1      -5.107 -10.744  18.876  0.00  0.00    -0.370 OA
ATOM     12  C   UNL     1      -5.458 -11.379  17.635  0.00  0.00    +0.170 C 
ATOM     13  C   UNL     1      -6.968 -11.333  17.517  0.00  0.00    +0.171 C 
ATOM     14  C   UNL     1      -4.972 -10.552  16.467  0.00  0.00    +0.133 C 
ATOM     15  C   UNL     1      -7.445 -11.155  18.939  0.00  0.00    +0.130 C 
ATOM     16  C   UNL     1      -6.090  -9.537  16.300  0.00  0.00    +0.183 C 
ATOM     17  C   UNL     1      -6.305 -10.383  19.578  0.00  0.00    +0.185 C 
ENDROOT
BRANCH  15   7
ATOM      7  N   UNL     1      -7.596 -12.445  19.576  0.00  0.00    -0.306 N 
ATOM      8  N   UNL     1      -9.863 -12.070  20.051  0.00  0.00    -0.214 NA
ATOM      9  N   UNL     1      -8.789 -14.131  20.689  0.00  0.00    -0.223 NA
ATOM     18  C   UNL     1      -8.785 -12.896  20.121  0.00  0.00    +0.216 A 
ATOM     23  C   UNL     1     -11.006 -12.540  20.592  0.00  0.00    +0.076 A 
ATOM     25  C   UNL     1      -9.966 -14.537  21.212  0.00  0.00    +0.116 A 
ATOM     27  C   UNL     1     -11.117 -13.778  21.192  0.00  0.00    +0.048 A 
ATOM     40  H   UNL     1      -6.813 -13.090  19.588  0.00  0.00    +0.149 HD
BRANCH  23  28
ATOM     28  C   UNL     1     -12.137 -11.649  20.505  0.00  0.00    +0.001 A 
ATOM     32  C   UNL     1     -13.341 -11.979  21.134  0.00  0.00    +0.012 A 
ATOM     33  C   UNL     1     -12.034 -10.454  19.791  0.00  0.00    +0.012 A 
ATOM     34  C   UNL     1     -14.434 -11.118  21.048  0.00  0.00    +0.024 A 
ATOM     35  C   UNL     1     -13.129  -9.592  19.705  0.00  0.00    +0.024 A 
ATOM     36  C   UNL     1     -14.328  -9.925  20.334  0.00  0.00    +0.029 A 
BRANCH  36  11
ATOM     11  N   UNL     1     -15.435  -9.054  20.248  0.00  0.00    -0.336 N 
ATOM     37  C   UNL     1     -16.300  -9.078  19.085  0.00  0.00    +0.129 C 
ATOM     38  C   UNL     1     -15.712  -8.113  21.315  0.00  0.00    +0.129 C 
ENDBRANCH  36  11
ENDBRANCH  23  28
ENDBRANCH  15   7
BRANCH  14   6
ATOM      6  N   UNL     1      -4.819 -11.361  15.282  0.00  0.00    -0.182 NA
ATOM     39  H   UNL     1      -5.657 -11.796  14.878  0.00  0.00    +0.148 HD
BRANCH   6   1
ATOM      1  S   UNL     1      -3.274 -11.884  14.809  0.00  0.00    +0.061 S 
ATOM      4  O   UNL     1      -3.290 -13.321  14.613  0.00  0.00    -0.153 OA
ATOM      5  O   UNL     1      -2.288 -11.277  15.682  0.00  0.00    -0.153 OA
BRANCH   1  19
ATOM     10  N   UNL     1      -5.248 -11.893  12.574  0.00  0.00    -0.253 NA
ATOM     19  C   UNL     1      -3.101 -11.119  13.225  0.00  0.00    +0.131 A 
ATOM     20  C   UNL     1      -4.119 -11.217  12.290  0.00  0.00    +0.097 A 
ATOM     21  C   UNL     1      -1.918 -10.430  12.975  0.00  0.00    +0.031 A 
ATOM     22  C   UNL     1      -3.923 -10.586  11.043  0.00  0.00    +0.002 A 
ATOM     24  C   UNL     1      -1.734  -9.811  11.744  0.00  0.00    +0.003 A 
ATOM     26  C   UNL     1      -2.733  -9.888  10.779  0.00  0.00    +0.010 A 
ATOM     29  C   UNL     1      -4.947 -10.679  10.089  0.00  0.00    +0.011 A 
ATOM     30  C   UNL     1      -6.210 -11.960  11.626  0.00  0.00    +0.111 A 
ATOM     31  C   UNL     1      -6.110 -11.376  10.380  0.00  0.00    +0.020 A 
ENDBRANCH   1  19
ENDBRANCH   6   1
ENDBRANCH  14   6
TORSDOF 6
ENDMDL
MODEL 10
REMARK VINA RESULT:      -7.2     17.565     20.688
REMARK  Name = 11911727
REMARK  8 active torsions:
REMARK  status: ('A' for Active; 'I' for Inactive)
REMARK    1  A    between atoms: S_1  and  N_6
REMARK    2  A    between atoms: S_1  and  C_19
REMARK    3  A    between atoms: N_6  and  C_14
REMARK    4  A    between atoms: N_7  and  C_15
REMARK    5  A    between atoms: N_11  and  C_36
REMARK    6  A    between atoms: N_11  and  C_37
REMARK    7  A    between atoms: N_11  and  C_38
REMARK    8  A    between atoms: C_23  and  C_28
REMARK                            x       y       z     vdW  Elec       q    Type
REMARK                         _______ _______ _______ _____ _____    ______ ____
ROOT
ATOM      2  O   UNL     1      13.697   8.519   2.179  0.00  0.00    -0.370 OA
ATOM      3  O   UNL     1      15.608   6.804   3.952  0.00  0.00    -0.370 OA
ATOM     12  C   UNL     1      14.748   6.491   2.845  0.00  0.00    +0.170 C 
ATOM     13  C   UNL     1      13.503   7.344   2.985  0.00  0.00    +0.171 C 
ATOM     14  C   UNL     1      15.370   6.958   1.548  0.00  0.00    +0.133 C 
ATOM     15  C   UNL     1      13.470   7.712   4.449  0.00  0.00    +0.130 C 
ATOM     16  C   UNL     1      14.956   8.418   1.497  0.00  0.00    +0.183 C 
ATOM     17  C   UNL     1      14.942   7.733   4.820  0.00  0.00    +0.185 C 
ENDROOT
BRANCH  15   7
ATOM      7  N   UNL     1      12.779   6.689   5.202  0.00  0.00    -0.306 N 
ATOM      8  N   UNL     1      10.687   7.314   4.342  0.00  0.00    -0.214 NA
ATOM      9  N   UNL     1      10.888   5.492   5.906  0.00  0.00    -0.223 NA
ATOM     18  C   UNL     1      11.410   6.492   5.148  0.00  0.00    +0.216 A 
ATOM     23  C   UNL     1       9.356   7.094   4.313  0.00  0.00    +0.076 A 
ATOM     25  C   UNL     1       9.550   5.329   5.830  0.00  0.00    +0.116 A 
ATOM     27  C   UNL     1       8.726   6.107   5.043  0.00  0.00    +0.048 A 
ATOM     40  H   UNL     1      13.314   6.038   5.766  0.00  0.00    +0.149 HD
BRANCH  23  28
ATOM     28  C   UNL     1       8.608   7.976   3.450  0.00  0.00    +0.001 A 
ATOM     32  C   UNL     1       7.548   8.728   3.964  0.00  0.00    +0.012 A 
ATOM     33  C   UNL     1       8.940   8.080   2.098  0.00  0.00    +0.012 A 
ATOM     34  C   UNL     1       6.825   9.578   3.129  0.00  0.00    +0.024 A 
ATOM     35  C   UNL     1       8.215   8.931   1.262  0.00  0.00    +0.024 A 
ATOM     36  C   UNL     1       7.158   9.680   1.779  0.00  0.00    +0.029 A 
BRANCH  36  11
ATOM     11  N   UNL     1       6.426  10.542   0.935  0.00  0.00    -0.336 N 
ATOM     37  C   UNL     1       5.126  10.145   0.429  0.00  0.00    +0.129 C 
ATOM     38  C   UNL     1       6.971  11.829   0.549  0.00  0.00    +0.129 C 
ENDBRANCH  36  11
ENDBRANCH  23  28
ENDBRANCH  15   7
BRANCH  14   6
ATOM      6  N   UNL     1      14.843   6.225   0.423  0.00  0.00    -0.182 NA
ATOM     39  H   UNL     1      14.426   6.755  -0.351  0.00  0.00    +0.148 HD
BRANCH   6   1
ATOM      1  S   UNL     1      14.580   4.552   0.551  0.00  0.00    +0.061 S 
ATOM      4  O   UNL     1      15.294   4.039   1.704  0.00  0.00    -0.153 OA
ATOM      5  O   UNL     1      14.768   3.948  -0.754  0.00  0.00    -0.153 OA
BRANCH   1  19
ATOM     10  N   UNL     1      12.351   5.636  -1.107  0.00  0.00    -0.253 NA
ATOM     19  C   UNL     1      12.849   4.484   0.907  0.00  0.00    +0.131 A 
ATOM     20  C   UNL     1      11.935   5.039   0.026  0.00  0.00    +0.097 A 
ATOM     21  C   UNL     1      12.465   3.857   2.089  0.00  0.00    +0.031 A 
ATOM     22  C   UNL     1      10.567   4.953   0.364  0.00  0.00    +0.002 A 
ATOM     24  C   UNL     1      11.116   3.776   2.413  0.00  0.00    +0.003 A 
ATOM     26  C   UNL     1      10.168   4.324   1.554  0.00  0.00    +0.010 A 
ATOM     29  C   UNL     1       9.634   5.513  -0.520  0.00  0.00    +0.011 A 
ATOM     30  C   UNL     1      11.418   6.162  -1.933  0.00  0.00    +0.111 A 
ATOM     31  C   UNL     1      10.061   6.128  -1.688  0.00  0.00    +0.020 A 
ENDBRANCH   1  19
ENDBRANCH   6   1
ENDBRANCH  14   6
TORSDOF 6
ENDMDL
