MODEL 1
REMARK VINA RESULT:      -5.2      0.000      0.000
REMARK  Name = 75367755
REMARK  4 active torsions:
REMARK  status: ('A' for Active; 'I' for Inactive)
REMARK    1  A    between atoms: O_2  and  C_6
REMARK    2  A    between atoms: N_3  and  C_8
REMARK    3  A    between atoms: C_8  and  C_11
REMARK    4  A    between atoms: C_14  and  C_17
REMARK                            x       y       z     vdW  Elec       q    Type
REMARK                         _______ _______ _______ _____ _____    ______ ____
ROOT
ATOM      1  O   UNL     1     -11.347  -8.897  14.626  0.00  0.00    -0.376 OA
ATOM      3  N   UNL     1      -9.309  -9.357  16.942  0.00  0.00    -0.293 NA
ATOM      5  C   UNL     1      -9.846  -8.058  17.365  0.00  0.00    +0.118 C 
ATOM      6  C   UNL     1     -10.970  -7.437  16.521  0.00  0.00    +0.154 C 
ATOM      7  C   UNL     1     -10.310 -10.274  16.397  0.00  0.00    +0.113 C 
ATOM      9  C   UNL     1     -10.813  -7.637  15.019  0.00  0.00    +0.192 C 
ATOM     10  C   UNL     1     -10.505 -10.007  14.904  0.00  0.00    +0.175 C 
ENDROOT
BRANCH   6   2
ATOM      2  O   UNL     1     -10.995  -6.033  16.777  0.00  0.00    -0.388 OA
ATOM     18  H   UNL     1     -10.672  -5.895  17.684  0.00  0.00    +0.210 HD
ENDBRANCH   6   2
BRANCH   3   8
ATOM      8  C   UNL     1      -8.558  -9.971  18.037  0.00  0.00    +0.119 C 
BRANCH   8  11
ATOM     11  C   UNL     1      -7.111 -10.174  17.679  0.00  0.00    -0.032 A 
ATOM     12  C   UNL     1      -6.262 -10.853  18.553  0.00  0.00    +0.023 A 
ATOM     13  C   UNL     1      -6.618  -9.682  16.469  0.00  0.00    +0.005 A 
ATOM     14  C   UNL     1      -4.921 -11.040  18.218  0.00  0.00    +0.052 A 
ATOM     15  C   UNL     1      -5.277  -9.872  16.135  0.00  0.00    +0.002 A 
ATOM     16  C   UNL     1      -4.429 -10.550  17.009  0.00  0.00    +0.019 A 
BRANCH  14  17
ATOM      4  N   UNL     1      -3.345 -12.303  19.840  0.00  0.00    -0.191 NA
ATOM     17  C   UNL     1      -4.051 -11.736  19.114  0.00  0.00    +0.099 C 
ENDBRANCH  14  17
ENDBRANCH   8  11
ENDBRANCH   3   8
TORSDOF 4
ENDMDL
MODEL 2
REMARK VINA RESULT:      -5.2     26.725     28.475
REMARK  Name = 75367755
REMARK  4 active torsions:
REMARK  status: ('A' for Active; 'I' for Inactive)
REMARK    1  A    between atoms: O_2  and  C_6
REMARK    2  A    between atoms: N_3  and  C_8
REMARK    3  A    between atoms: C_8  and  C_11
REMARK    4  A    between atoms: C_14  and  C_17
REMARK                            x       y       z     vdW  Elec       q    Type
REMARK                         _______ _______ _______ _____ _____    ______ ____
ROOT
ATOM      1  O   UNL     1      14.713  11.177  17.155  0.00  0.00    -0.376 OA
ATOM      3  N   UNL     1      13.898   8.664  18.813  0.00  0.00    -0.293 NA
ATOM      5  C   UNL     1      13.779   8.096  17.466  0.00  0.00    +0.118 C 
ATOM      6  C   UNL     1      14.154   8.991  16.274  0.00  0.00    +0.154 C 
ATOM      7  C   UNL     1      15.043   9.558  18.992  0.00  0.00    +0.113 C 
ATOM      9  C   UNL     1      13.732  10.447  16.425  0.00  0.00    +0.192 C 
ATOM     10  C   UNL     1      14.670  10.976  18.561  0.00  0.00    +0.175 C 
ENDROOT
BRANCH   6   2
ATOM      2  O   UNL     1      13.519   8.468  15.107  0.00  0.00    -0.388 OA
ATOM     18  H   UNL     1      14.091   7.765  14.753  0.00  0.00    +0.210 HD
ENDBRANCH   6   2
BRANCH   3   8
ATOM      8  C   UNL     1      13.891   7.595  19.812  0.00  0.00    +0.119 C 
BRANCH   8  11
ATOM     11  C   UNL     1      12.699   7.691  20.727  0.00  0.00    -0.032 A 
ATOM     12  C   UNL     1      12.444   8.873  21.422  0.00  0.00    +0.023 A 
ATOM     13  C   UNL     1      11.849   6.595  20.878  0.00  0.00    +0.005 A 
ATOM     14  C   UNL     1      11.339   8.960  22.268  0.00  0.00    +0.052 A 
ATOM     15  C   UNL     1      10.742   6.683  21.724  0.00  0.00    +0.002 A 
ATOM     16  C   UNL     1      10.488   7.865  22.419  0.00  0.00    +0.019 A 
BRANCH  14  17
ATOM      4  N   UNL     1      10.863  11.154  23.558  0.00  0.00    -0.191 NA
ATOM     17  C   UNL     1      11.077  10.171  22.980  0.00  0.00    +0.099 C 
ENDBRANCH  14  17
ENDBRANCH   8  11
ENDBRANCH   3   8
TORSDOF 4
ENDMDL
MODEL 3
REMARK VINA RESULT:      -5.1     17.438     18.515
REMARK  Name = 75367755
REMARK  4 active torsions:
REMARK  status: ('A' for Active; 'I' for Inactive)
REMARK    1  A    between atoms: O_2  and  C_6
REMARK    2  A    between atoms: N_3  and  C_8
REMARK    3  A    between atoms: C_8  and  C_11
REMARK    4  A    between atoms: C_14  and  C_17
REMARK                            x       y       z     vdW  Elec       q    Type
REMARK                         _______ _______ _______ _____ _____    ______ ____
ROOT
ATOM      1  O   UNL     1     -17.187   5.887  22.547  0.00  0.00    -0.376 OA
ATOM      3  N   UNL     1     -14.090   5.958  22.190  0.00  0.00    -0.293 NA
ATOM      5  C   UNL     1     -14.166   5.060  23.348  0.00  0.00    +0.118 C 
ATOM      6  C   UNL     1     -15.559   4.674  23.867  0.00  0.00    +0.154 C 
ATOM      7  C   UNL     1     -15.131   5.735  21.186  0.00  0.00    +0.113 C 
ATOM      9  C   UNL     1     -16.579   5.805  23.832  0.00  0.00    +0.192 C 
ATOM     10  C   UNL     1     -16.390   6.519  21.556  0.00  0.00    +0.175 C 
ENDROOT
BRANCH   6   2
ATOM      2  O   UNL     1     -15.426   4.244  25.222  0.00  0.00    -0.388 OA
ATOM     18  H   UNL     1     -14.676   3.626  25.261  0.00  0.00    +0.210 HD
ENDBRANCH   6   2
BRANCH   3   8
ATOM      8  C   UNL     1     -12.753   5.903  21.597  0.00  0.00    +0.119 C 
BRANCH   8  11
ATOM     11  C   UNL     1     -12.398   7.187  20.897  0.00  0.00    -0.032 A 
ATOM     12  C   UNL     1     -11.793   7.155  19.641  0.00  0.00    +0.023 A 
ATOM     13  C   UNL     1     -12.677   8.412  21.506  0.00  0.00    +0.005 A 
ATOM     14  C   UNL     1     -11.467   8.346  18.993  0.00  0.00    +0.052 A 
ATOM     15  C   UNL     1     -12.351   9.603  20.857  0.00  0.00    +0.002 A 
ATOM     16  C   UNL     1     -11.745   9.570  19.601  0.00  0.00    +0.019 A 
BRANCH  14  17
ATOM      4  N   UNL     1     -10.344   8.285  16.660  0.00  0.00    -0.191 NA
ATOM     17  C   UNL     1     -10.847   8.313  17.705  0.00  0.00    +0.099 C 
ENDBRANCH  14  17
ENDBRANCH   8  11
ENDBRANCH   3   8
TORSDOF 4
ENDMDL
MODEL 4
REMARK VINA RESULT:      -5.0     19.528     21.533
REMARK  Name = 75367755
REMARK  4 active torsions:
REMARK  status: ('A' for Active; 'I' for Inactive)
REMARK    1  A    between atoms: O_2  and  C_6
REMARK    2  A    between atoms: N_3  and  C_8
REMARK    3  A    between atoms: C_8  and  C_11
REMARK    4  A    between atoms: C_14  and  C_17
REMARK                            x       y       z     vdW  Elec       q    Type
REMARK                         _______ _______ _______ _____ _____    ______ ____
ROOT
ATOM      1  O   UNL     1     -15.680   1.638  28.647  0.00  0.00    -0.376 OA
ATOM      3  N   UNL     1     -14.725   2.300  31.541  0.00  0.00    -0.293 NA
ATOM      5  C   UNL     1     -14.805   0.840  31.656  0.00  0.00    +0.118 C 
ATOM      6  C   UNL     1     -15.196   0.042  30.402  0.00  0.00    +0.154 C 
ATOM      7  C   UNL     1     -14.197   2.777  30.263  0.00  0.00    +0.113 C 
ATOM      9  C   UNL     1     -16.268   0.703  29.546  0.00  0.00    +0.192 C 
ATOM     10  C   UNL     1     -15.326   2.881  29.238  0.00  0.00    +0.175 C 
ENDROOT
BRANCH   6   2
ATOM      2  O   UNL     1     -15.691  -1.230  30.821  0.00  0.00    -0.388 OA
ATOM     18  H   UNL     1     -15.145  -1.912  30.395  0.00  0.00    +0.210 HD
ENDBRANCH   6   2
BRANCH   3   8
ATOM      8  C   UNL     1     -13.976   2.853  32.670  0.00  0.00    +0.119 C 
BRANCH   8  11
ATOM     11  C   UNL     1     -14.370   4.277  32.960  0.00  0.00    -0.032 A 
ATOM     12  C   UNL     1     -13.484   5.318  32.683  0.00  0.00    +0.023 A 
ATOM     13  C   UNL     1     -15.625   4.554  33.505  0.00  0.00    +0.005 A 
ATOM     14  C   UNL     1     -13.852   6.636  32.951  0.00  0.00    +0.052 A 
ATOM     15  C   UNL     1     -15.992   5.874  33.771  0.00  0.00    +0.002 A 
ATOM     16  C   UNL     1     -15.106   6.914  33.495  0.00  0.00    +0.019 A 
BRANCH  14  17
ATOM      4  N   UNL     1     -12.208   8.571  32.437  0.00  0.00    -0.191 NA
ATOM     17  C   UNL     1     -12.944   7.703  32.667  0.00  0.00    +0.099 C 
ENDBRANCH  14  17
ENDBRANCH   8  11
ENDBRANCH   3   8
TORSDOF 4
ENDMDL
MODEL 5
REMARK VINA RESULT:      -5.0     17.411     19.275
REMARK  Name = 75367755
REMARK  4 active torsions:
REMARK  status: ('A' for Active; 'I' for Inactive)
REMARK    1  A    between atoms: O_2  and  C_6
REMARK    2  A    between atoms: N_3  and  C_8
REMARK    3  A    between atoms: C_8  and  C_11
REMARK    4  A    between atoms: C_14  and  C_17
REMARK                            x       y       z     vdW  Elec       q    Type
REMARK                         _______ _______ _______ _____ _____    ______ ____
ROOT
ATOM      1  O   UNL     1     -11.274  10.763  15.445  0.00  0.00    -0.376 OA
ATOM      3  N   UNL     1     -10.953   9.151  18.096  0.00  0.00    -0.293 NA
ATOM      5  C   UNL     1     -10.552   8.108  17.145  0.00  0.00    +0.118 C 
ATOM      6  C   UNL     1     -10.498   8.478  15.655  0.00  0.00    +0.154 C 
ATOM      7  C   UNL     1     -10.465  10.490  17.764  0.00  0.00    +0.113 C 
ATOM      9  C   UNL     1     -11.618   9.403  15.197  0.00  0.00    +0.192 C 
ATOM     10  C   UNL     1     -11.432  11.173  16.797  0.00  0.00    +0.175 C 
ENDROOT
BRANCH   6   2
ATOM      2  O   UNL     1     -10.585   7.273  14.894  0.00  0.00    -0.388 OA
ATOM     18  H   UNL     1     -10.640   7.523  13.956  0.00  0.00    +0.210 HD
ENDBRANCH   6   2
BRANCH   3   8
ATOM      8  C   UNL     1     -10.575   8.764  19.456  0.00  0.00    +0.119 C 
BRANCH   8  11
ATOM     11  C   UNL     1     -11.780   8.565  20.336  0.00  0.00    -0.032 A 
ATOM     12  C   UNL     1     -12.249   7.279  20.601  0.00  0.00    +0.023 A 
ATOM     13  C   UNL     1     -12.427   9.671  20.890  0.00  0.00    +0.005 A 
ATOM     14  C   UNL     1     -13.364   7.097  21.418  0.00  0.00    +0.052 A 
ATOM     15  C   UNL     1     -13.542   9.488  21.708  0.00  0.00    +0.002 A 
ATOM     16  C   UNL     1     -14.011   8.202  21.972  0.00  0.00    +0.019 A 
BRANCH  14  17
ATOM      4  N   UNL     1     -14.234   4.707  21.908  0.00  0.00    -0.191 NA
ATOM     17  C   UNL     1     -13.845   5.778  21.689  0.00  0.00    +0.099 C 
ENDBRANCH  14  17
ENDBRANCH   8  11
ENDBRANCH   3   8
TORSDOF 4
ENDMDL
MODEL 6
REMARK VINA RESULT:      -5.0     25.487     27.091
REMARK  Name = 75367755
REMARK  4 active torsions:
REMARK  status: ('A' for Active; 'I' for Inactive)
REMARK    1  A    between atoms: O_2  and  C_6
REMARK    2  A    between atoms: N_3  and  C_8
REMARK    3  A    between atoms: C_8  and  C_11
REMARK    4  A    between atoms: C_14  and  C_17
REMARK                            x       y       z     vdW  Elec       q    Type
REMARK                         _______ _______ _______ _____ _____    ______ ____
ROOT
ATOM      1  O   UNL     1      11.940   7.298   1.597  0.00  0.00    -0.376 OA
ATOM      3  N   UNL     1      10.432   5.375   3.535  0.00  0.00    -0.293 NA
ATOM      5  C   UNL     1      10.158   4.684   2.269  0.00  0.00    +0.118 C 
ATOM      6  C   UNL     1      10.778   5.262   0.988  0.00  0.00    +0.154 C 
ATOM      7  C   UNL     1      11.785   5.921   3.643  0.00  0.00    +0.113 C 
ATOM      9  C   UNL     1      10.792   6.784   0.928  0.00  0.00    +0.192 C 
ATOM     10  C   UNL     1      11.837   7.313   3.014  0.00  0.00    +0.175 C 
ENDROOT
BRANCH   6   2
ATOM      2  O   UNL     1      10.022   4.786  -0.126  0.00  0.00    -0.388 OA
ATOM     18  H   UNL     1      10.093   3.816  -0.134  0.00  0.00    +0.210 HD
ENDBRANCH   6   2
BRANCH   3   8
ATOM      8  C   UNL     1      10.114   4.500   4.664  0.00  0.00    +0.119 C 
BRANCH   8  11
ATOM     11  C   UNL     1       9.680   5.282   5.874  0.00  0.00    -0.032 A 
ATOM     12  C   UNL     1       9.942   4.794   7.154  0.00  0.00    +0.023 A 
ATOM     13  C   UNL     1       9.017   6.500   5.714  0.00  0.00    +0.005 A 
ATOM     14  C   UNL     1       9.540   5.522   8.274  0.00  0.00    +0.052 A 
ATOM     15  C   UNL     1       8.616   7.228   6.835  0.00  0.00    +0.002 A 
ATOM     16  C   UNL     1       8.877   6.739   8.114  0.00  0.00    +0.019 A 
BRANCH  14  17
ATOM      4  N   UNL     1      10.025   4.614  10.650  0.00  0.00    -0.191 NA
ATOM     17  C   UNL     1       9.808   5.021   9.586  0.00  0.00    +0.099 C 
ENDBRANCH  14  17
ENDBRANCH   8  11
ENDBRANCH   3   8
TORSDOF 4
ENDMDL
MODEL 7
REMARK VINA RESULT:      -5.0      4.717      6.955
REMARK  Name = 75367755
REMARK  4 active torsions:
REMARK  status: ('A' for Active; 'I' for Inactive)
REMARK    1  A    between atoms: O_2  and  C_6
REMARK    2  A    between atoms: N_3  and  C_8
REMARK    3  A    between atoms: C_8  and  C_11
REMARK    4  A    between atoms: C_14  and  C_17
REMARK                            x       y       z     vdW  Elec       q    Type
REMARK                         _______ _______ _______ _____ _____    ______ ____
ROOT
ATOM      1  O   UNL     1      -2.478 -11.634  11.468  0.00  0.00    -0.376 OA
ATOM      3  N   UNL     1      -2.877 -11.249  14.537  0.00  0.00    -0.293 NA
ATOM      5  C   UNL     1      -2.658 -12.700  14.515  0.00  0.00    +0.118 C 
ATOM      6  C   UNL     1      -2.349 -13.359  13.162  0.00  0.00    +0.154 C 
ATOM      7  C   UNL     1      -2.025 -10.497  13.615  0.00  0.00    +0.113 C 
ATOM      9  C   UNL     1      -3.134 -12.785  11.989  0.00  0.00    +0.192 C 
ATOM     10  C   UNL     1      -2.670 -10.450  12.230  0.00  0.00    +0.175 C 
ENDROOT
BRANCH   6   2
ATOM      2  O   UNL     1      -2.662 -14.748  13.262  0.00  0.00    -0.388 OA
ATOM     18  H   UNL     1      -1.846 -15.246  13.081  0.00  0.00    +0.210 HD
ENDBRANCH   6   2
BRANCH   3   8
ATOM      8  C   UNL     1      -2.763 -10.744  15.905  0.00  0.00    +0.119 C 
BRANCH   8  11
ATOM     11  C   UNL     1      -4.112 -10.545  16.543  0.00  0.00    -0.032 A 
ATOM     12  C   UNL     1      -4.326 -10.937  17.864  0.00  0.00    +0.023 A 
ATOM     13  C   UNL     1      -5.149  -9.967  15.810  0.00  0.00    +0.005 A 
ATOM     14  C   UNL     1      -5.576 -10.752  18.453  0.00  0.00    +0.052 A 
ATOM     15  C   UNL     1      -6.400  -9.781  16.401  0.00  0.00    +0.002 A 
ATOM     16  C   UNL     1      -6.613 -10.173  17.721  0.00  0.00    +0.019 A 
BRANCH  14  17
ATOM      4  N   UNL     1      -5.975 -11.480  20.906  0.00  0.00    -0.191 NA
ATOM     17  C   UNL     1      -5.796 -11.153  19.807  0.00  0.00    +0.099 C 
ENDBRANCH  14  17
ENDBRANCH   8  11
ENDBRANCH   3   8
TORSDOF 4
ENDMDL
MODEL 8
REMARK VINA RESULT:      -5.0     26.901     28.603
REMARK  Name = 75367755
REMARK  4 active torsions:
REMARK  status: ('A' for Active; 'I' for Inactive)
REMARK    1  A    between atoms: O_2  and  C_6
REMARK    2  A    between atoms: N_3  and  C_8
REMARK    3  A    between atoms: C_8  and  C_11
REMARK    4  A    between atoms: C_14  and  C_17
REMARK                            x       y       z     vdW  Elec       q    Type
REMARK                         _______ _______ _______ _____ _____    ______ ____
ROOT
ATOM      1  O   UNL     1      12.744   8.072   6.479  0.00  0.00    -0.376 OA
ATOM      3  N   UNL     1      10.973   6.384   4.545  0.00  0.00    -0.293 NA
ATOM      5  C   UNL     1      10.616   5.731   5.810  0.00  0.00    +0.118 C 
ATOM      6  C   UNL     1      11.228   6.290   7.104  0.00  0.00    +0.154 C 
ATOM      7  C   UNL     1      11.116   7.837   4.636  0.00  0.00    +0.113 C 
ATOM      9  C   UNL     1      12.678   6.737   6.970  0.00  0.00    +0.192 C 
ATOM     10  C   UNL     1      12.534   8.196   5.080  0.00  0.00    +0.175 C 
ENDROOT
BRANCH   6   2
ATOM      2  O   UNL     1      11.173   5.267   8.099  0.00  0.00    -0.388 OA
ATOM     18  H   UNL     1      10.975   4.430   7.647  0.00  0.00    +0.210 HD
ENDBRANCH   6   2
BRANCH   3   8
ATOM      8  C   UNL     1      10.026   6.001   3.497  0.00  0.00    +0.119 C 
BRANCH   8  11
ATOM     11  C   UNL     1      10.712   5.311   2.349  0.00  0.00    -0.032 A 
ATOM     12  C   UNL     1      11.992   4.782   2.513  0.00  0.00    +0.023 A 
ATOM     13  C   UNL     1      10.063   5.198   1.118  0.00  0.00    +0.005 A 
ATOM     14  C   UNL     1      12.624   4.141   1.448  0.00  0.00    +0.052 A 
ATOM     15  C   UNL     1      10.696   4.556   0.053  0.00  0.00    +0.002 A 
ATOM     16  C   UNL     1      11.976   4.028   0.218  0.00  0.00    +0.019 A 
BRANCH  14  17
ATOM      4  N   UNL     1      15.001   3.159   1.754  0.00  0.00    -0.191 NA
ATOM     17  C   UNL     1      13.936   3.600   1.616  0.00  0.00    +0.099 C 
ENDBRANCH  14  17
ENDBRANCH   8  11
ENDBRANCH   3   8
TORSDOF 4
ENDMDL
MODEL 9
REMARK VINA RESULT:      -4.9     17.231     19.272
REMARK  Name = 75367755
REMARK  4 active torsions:
REMARK  status: ('A' for Active; 'I' for Inactive)
REMARK    1  A    between atoms: O_2  and  C_6
REMARK    2  A    between atoms: N_3  and  C_8
REMARK    3  A    between atoms: C_8  and  C_11
REMARK    4  A    between atoms: C_14  and  C_17
REMARK                            x       y       z     vdW  Elec       q    Type
REMARK                         _______ _______ _______ _____ _____    ______ ____
ROOT
ATOM      1  O   UNL     1     -18.011   0.550  26.420  0.00  0.00    -0.376 OA
ATOM      3  N   UNL     1     -16.395   2.780  27.884  0.00  0.00    -0.293 NA
ATOM      5  C   UNL     1     -16.055   3.123  26.499  0.00  0.00    +0.118 C 
ATOM      6  C   UNL     1     -16.697   2.295  25.375  0.00  0.00    +0.154 C 
ATOM      7  C   UNL     1     -17.785   2.367  28.079  0.00  0.00    +0.113 C 
ATOM      9  C   UNL     1     -16.820   0.808  25.683  0.00  0.00    +0.192 C 
ATOM     10  C   UNL     1     -17.930   0.871  27.802  0.00  0.00    +0.175 C 
ENDROOT
BRANCH   6   2
ATOM      2  O   UNL     1     -15.893   2.436  24.204  0.00  0.00    -0.388 OA
ATOM     18  H   UNL     1     -15.168   1.791  24.266  0.00  0.00    +0.210 HD
ENDBRANCH   6   2
BRANCH   3   8
ATOM      8  C   UNL     1     -16.031   3.879  28.779  0.00  0.00    +0.119 C 
BRANCH   8  11
ATOM     11  C   UNL     1     -15.174   3.408  29.923  0.00  0.00    -0.032 A 
ATOM     12  C   UNL     1     -15.075   4.174  31.085  0.00  0.00    +0.023 A 
ATOM     13  C   UNL     1     -14.478   2.203  29.821  0.00  0.00    +0.005 A 
ATOM     14  C   UNL     1     -14.281   3.736  32.144  0.00  0.00    +0.052 A 
ATOM     15  C   UNL     1     -13.685   1.764  30.882  0.00  0.00    +0.002 A 
ATOM     16  C   UNL     1     -13.586   2.531  32.043  0.00  0.00    +0.019 A 
BRANCH  14  17
ATOM      4  N   UNL     1     -14.097   5.158  34.300  0.00  0.00    -0.191 NA
ATOM     17  C   UNL     1     -14.180   4.520  33.335  0.00  0.00    +0.099 C 
ENDBRANCH  14  17
ENDBRANCH   8  11
ENDBRANCH   3   8
TORSDOF 4
ENDMDL
MODEL 10
REMARK VINA RESULT:      -4.9     19.542     21.631
REMARK  Name = 75367755
REMARK  4 active torsions:
REMARK  status: ('A' for Active; 'I' for Inactive)
REMARK    1  A    between atoms: O_2  and  C_6
REMARK    2  A    between atoms: N_3  and  C_8
REMARK    3  A    between atoms: C_8  and  C_11
REMARK    4  A    between atoms: C_14  and  C_17
REMARK                            x       y       z     vdW  Elec       q    Type
REMARK                         _______ _______ _______ _____ _____    ______ ____
ROOT
ATOM      1  O   UNL     1     -16.082   1.768  28.585  0.00  0.00    -0.376 OA
ATOM      3  N   UNL     1     -14.464   2.481  31.153  0.00  0.00    -0.293 NA
ATOM      5  C   UNL     1     -14.056   1.079  31.008  0.00  0.00    +0.118 C 
ATOM      6  C   UNL     1     -14.582   0.300  29.793  0.00  0.00    +0.154 C 
ATOM      7  C   UNL     1     -14.563   3.213  29.891  0.00  0.00    +0.113 C 
ATOM      9  C   UNL     1     -16.025   0.617  29.421  0.00  0.00    +0.192 C 
ATOM     10  C   UNL     1     -15.945   3.003  29.273  0.00  0.00    +0.175 C 
ENDROOT
BRANCH   6   2
ATOM      2  O   UNL     1     -14.501  -1.095  30.089  0.00  0.00    -0.388 OA
ATOM     18  H   UNL     1     -15.063  -1.262  30.865  0.00  0.00    +0.210 HD
ENDBRANCH   6   2
BRANCH   3   8
ATOM      8  C   UNL     1     -13.585   3.164  32.104  0.00  0.00    +0.119 C 
BRANCH   8  11
ATOM     11  C   UNL     1     -14.231   4.399  32.674  0.00  0.00    -0.032 A 
ATOM     12  C   UNL     1     -15.427   4.299  33.385  0.00  0.00    +0.023 A 
ATOM     13  C   UNL     1     -13.630   5.645  32.492  0.00  0.00    +0.005 A 
ATOM     14  C   UNL     1     -16.022   5.443  33.914  0.00  0.00    +0.052 A 
ATOM     15  C   UNL     1     -14.225   6.790  33.023  0.00  0.00    +0.002 A 
ATOM     16  C   UNL     1     -15.421   6.689  33.733  0.00  0.00    +0.019 A 
BRANCH  14  17
ATOM      4  N   UNL     1     -18.242   5.258  35.235  0.00  0.00    -0.191 NA
ATOM     17  C   UNL     1     -17.247   5.341  34.642  0.00  0.00    +0.099 C 
ENDBRANCH  14  17
ENDBRANCH   8  11
ENDBRANCH   3   8
TORSDOF 4
ENDMDL
