MODEL 1
REMARK VINA RESULT:      -6.8      0.000      0.000
REMARK  Name = 75536962
REMARK  2 active torsions:
REMARK  status: ('A' for Active; 'I' for Inactive)
REMARK    1  A    between atoms: O_3  and  C_6
REMARK    2  A    between atoms: O_3  and  C_14
REMARK                            x       y       z     vdW  Elec       q    Type
REMARK                         _______ _______ _______ _____ _____    ______ ____
ROOT
ATOM      1  S   UNL     1      11.230  10.376  22.788  0.00  0.00    -0.052 S 
ATOM      2  O   UNL     1      11.946   6.237  20.880  0.00  0.00    -0.375 OA
ATOM      4  N   UNL     1      11.824   9.127  20.488  0.00  0.00    -0.304 N 
ATOM      5  N   UNL     1      13.249  10.885  21.266  0.00  0.00    -0.225 NA
ATOM      6  C   UNL     1      13.740   7.633  19.930  0.00  0.00    +0.216 C 
ATOM      7  C   UNL     1      12.724   8.665  19.423  0.00  0.00    +0.154 C 
ATOM      8  C   UNL     1      10.630   8.294  20.682  0.00  0.00    +0.135 C 
ATOM      9  C   UNL     1      13.270   6.727  21.069  0.00  0.00    +0.206 C 
ATOM     10  C   UNL     1      10.952   7.052  21.508  0.00  0.00    +0.179 C 
ATOM     11  C   UNL     1      12.193  10.117  21.398  0.00  0.00    +0.162 A 
ATOM     12  C   UNL     1      12.304  11.631  23.284  0.00  0.00    +0.041 A 
ATOM     13  C   UNL     1      13.327  11.758  22.340  0.00  0.00    +0.080 A 
ATOM     15  C   UNL     1      12.244  12.444  24.428  0.00  0.00    +0.017 A 
ATOM     16  C   UNL     1      14.325  12.735  22.550  0.00  0.00    +0.029 A 
ATOM     19  C   UNL     1      13.244  13.403  24.611  0.00  0.00    +0.001 A 
ATOM     20  C   UNL     1      14.272  13.549  23.685  0.00  0.00    +0.002 A 
ENDROOT
BRANCH   6   3
ATOM      3  O   UNL     1      14.935   8.283  20.359  0.00  0.00    -0.485 OA
BRANCH   3  14
ATOM     14  C   UNL     1      16.090   7.554  20.283  0.00  0.00    +0.121 A 
ATOM     17  C   UNL     1      16.277   6.648  19.238  0.00  0.00    +0.045 A 
ATOM     18  C   UNL     1      17.083   7.716  21.250  0.00  0.00    +0.045 A 
ATOM     21  C   UNL     1      17.454   5.904  19.161  0.00  0.00    +0.004 A 
ATOM     22  C   UNL     1      18.261   6.973  21.172  0.00  0.00    +0.004 A 
ATOM     23  C   UNL     1      18.447   6.067  20.128  0.00  0.00    +0.000 A 
ENDBRANCH   3  14
ENDBRANCH   6   3
TORSDOF 2
ENDMDL
MODEL 2
REMARK VINA RESULT:      -6.2     16.322     18.832
REMARK  Name = 75536962
REMARK  2 active torsions:
REMARK  status: ('A' for Active; 'I' for Inactive)
REMARK    1  A    between atoms: O_3  and  C_6
REMARK    2  A    between atoms: O_3  and  C_14
REMARK                            x       y       z     vdW  Elec       q    Type
REMARK                         _______ _______ _______ _____ _____    ______ ____
ROOT
ATOM      1  S   UNL     1      10.877   7.218   1.110  0.00  0.00    -0.052 S 
ATOM      2  O   UNL     1       9.439   9.902   4.576  0.00  0.00    -0.375 OA
ATOM      4  N   UNL     1       9.013   7.467   3.025  0.00  0.00    -0.304 N 
ATOM      5  N   UNL     1      10.284   5.444   2.885  0.00  0.00    -0.225 NA
ATOM      6  C   UNL     1       9.275   7.623   5.500  0.00  0.00    +0.216 C 
ATOM      7  C   UNL     1       8.398   7.168   4.326  0.00  0.00    +0.154 C 
ATOM      8  C   UNL     1       8.719   8.809   2.506  0.00  0.00    +0.135 C 
ATOM      9  C   UNL     1      10.138   8.863   5.256  0.00  0.00    +0.206 C 
ATOM     10  C   UNL     1       9.613   9.860   3.157  0.00  0.00    +0.179 C 
ATOM     11  C   UNL     1       9.988   6.649   2.456  0.00  0.00    +0.162 A 
ATOM     12  C   UNL     1      11.752   5.733   1.073  0.00  0.00    +0.041 A 
ATOM     13  C   UNL     1      11.294   4.906   2.102  0.00  0.00    +0.080 A 
ATOM     15  C   UNL     1      12.772   5.330   0.195  0.00  0.00    +0.017 A 
ATOM     16  C   UNL     1      11.877   3.630   2.257  0.00  0.00    +0.029 A 
ATOM     19  C   UNL     1      13.332   4.062   0.370  0.00  0.00    +0.001 A 
ATOM     20  C   UNL     1      12.892   3.221   1.387  0.00  0.00    +0.002 A 
ENDROOT
BRANCH   6   3
ATOM      3  O   UNL     1      10.142   6.567   5.911  0.00  0.00    -0.485 OA
BRANCH   3  14
ATOM     14  C   UNL     1       9.827   5.939   7.085  0.00  0.00    +0.121 A 
ATOM     17  C   UNL     1       9.274   6.664   8.139  0.00  0.00    +0.045 A 
ATOM     18  C   UNL     1      10.060   4.570   7.227  0.00  0.00    +0.045 A 
ATOM     21  C   UNL     1       8.954   6.023   9.336  0.00  0.00    +0.004 A 
ATOM     22  C   UNL     1       9.739   3.929   8.423  0.00  0.00    +0.004 A 
ATOM     23  C   UNL     1       9.187   4.655   9.478  0.00  0.00    +0.000 A 
ENDBRANCH   3  14
ENDBRANCH   6   3
TORSDOF 2
ENDMDL
MODEL 3
REMARK VINA RESULT:      -6.1     27.817     29.154
REMARK  Name = 75536962
REMARK  2 active torsions:
REMARK  status: ('A' for Active; 'I' for Inactive)
REMARK    1  A    between atoms: O_3  and  C_6
REMARK    2  A    between atoms: O_3  and  C_14
REMARK                            x       y       z     vdW  Elec       q    Type
REMARK                         _______ _______ _______ _____ _____    ______ ____
ROOT
ATOM      1  S   UNL     1      -3.697 -13.056  10.463  0.00  0.00    -0.052 S 
ATOM      2  O   UNL     1      -3.826 -14.761  14.748  0.00  0.00    -0.375 OA
ATOM      4  N   UNL     1      -2.356 -13.179  12.785  0.00  0.00    -0.304 N 
ATOM      5  N   UNL     1      -2.820 -11.042  11.815  0.00  0.00    -0.225 NA
ATOM      6  C   UNL     1      -3.041 -12.446  15.067  0.00  0.00    +0.216 C 
ATOM      7  C   UNL     1      -1.888 -12.659  14.077  0.00  0.00    +0.154 C 
ATOM      8  C   UNL     1      -2.460 -14.643  12.719  0.00  0.00    +0.135 C 
ATOM      9  C   UNL     1      -4.226 -13.406  14.939  0.00  0.00    +0.206 C 
ATOM     10  C   UNL     1      -3.750 -15.134  13.370  0.00  0.00    +0.179 C 
ATOM     11  C   UNL     1      -2.890 -12.352  11.798  0.00  0.00    +0.162 A 
ATOM     12  C   UNL     1      -3.995 -11.481   9.827  0.00  0.00    +0.041 A 
ATOM     13  C   UNL     1      -3.450 -10.528  10.691  0.00  0.00    +0.080 A 
ATOM     15  C   UNL     1      -4.664 -11.117   8.647  0.00  0.00    +0.017 A 
ATOM     16  C   UNL     1      -3.579  -9.161  10.361  0.00  0.00    +0.029 A 
ATOM     19  C   UNL     1      -4.777  -9.758   8.343  0.00  0.00    +0.001 A 
ATOM     20  C   UNL     1      -4.243  -8.791   9.188  0.00  0.00    +0.002 A 
ENDROOT
BRANCH   6   3
ATOM      3  O   UNL     1      -3.548 -11.118  14.961  0.00  0.00    -0.485 OA
BRANCH   3  14
ATOM     14  C   UNL     1      -4.463 -10.734  15.904  0.00  0.00    +0.121 A 
ATOM     17  C   UNL     1      -5.615 -10.048  15.520  0.00  0.00    +0.045 A 
ATOM     18  C   UNL     1      -4.243 -11.030  17.250  0.00  0.00    +0.045 A 
ATOM     21  C   UNL     1      -6.547  -9.656  16.482  0.00  0.00    +0.004 A 
ATOM     22  C   UNL     1      -5.176 -10.640  18.210  0.00  0.00    +0.004 A 
ATOM     23  C   UNL     1      -6.328  -9.952  17.827  0.00  0.00    +0.000 A 
ENDBRANCH   3  14
ENDBRANCH   6   3
TORSDOF 2
ENDMDL
MODEL 4
REMARK VINA RESULT:      -6.1     16.575     18.712
REMARK  Name = 75536962
REMARK  2 active torsions:
REMARK  status: ('A' for Active; 'I' for Inactive)
REMARK    1  A    between atoms: O_3  and  C_6
REMARK    2  A    between atoms: O_3  and  C_14
REMARK                            x       y       z     vdW  Elec       q    Type
REMARK                         _______ _______ _______ _____ _____    ______ ____
ROOT
ATOM      1  S   UNL     1       9.574   8.380   1.081  0.00  0.00    -0.052 S 
ATOM      2  O   UNL     1      11.902   4.592   2.310  0.00  0.00    -0.375 OA
ATOM      4  N   UNL     1      11.185   7.345   2.961  0.00  0.00    -0.304 N 
ATOM      5  N   UNL     1       9.099   8.318   3.615  0.00  0.00    -0.225 NA
ATOM      6  C   UNL     1      10.865   5.345   4.415  0.00  0.00    +0.216 C 
ATOM      7  C   UNL     1      11.484   6.741   4.267  0.00  0.00    +0.154 C 
ATOM      8  C   UNL     1      12.133   6.994   1.896  0.00  0.00    +0.135 C 
ATOM      9  C   UNL     1      10.739   4.523   3.131  0.00  0.00    +0.206 C 
ATOM     10  C   UNL     1      11.827   5.617   1.316  0.00  0.00    +0.179 C 
ATOM     11  C   UNL     1       9.975   7.986   2.696  0.00  0.00    +0.162 A 
ATOM     12  C   UNL     1       8.088   9.063   1.628  0.00  0.00    +0.041 A 
ATOM     13  C   UNL     1       8.011   8.937   3.018  0.00  0.00    +0.080 A 
ATOM     15  C   UNL     1       7.064   9.666   0.879  0.00  0.00    +0.017 A 
ATOM     16  C   UNL     1       6.868   9.433   3.681  0.00  0.00    +0.029 A 
ATOM     19  C   UNL     1       5.944  10.150   1.560  0.00  0.00    +0.001 A 
ATOM     20  C   UNL     1       5.844  10.036   2.943  0.00  0.00    +0.002 A 
ENDROOT
BRANCH   6   3
ATOM      3  O   UNL     1       9.567   5.437   4.999  0.00  0.00    -0.485 OA
BRANCH   3  14
ATOM     14  C   UNL     1       9.506   5.419   6.365  0.00  0.00    +0.121 A 
ATOM     17  C   UNL     1       9.090   6.554   7.061  0.00  0.00    +0.045 A 
ATOM     18  C   UNL     1       9.862   4.264   7.064  0.00  0.00    +0.045 A 
ATOM     21  C   UNL     1       9.030   6.535   8.455  0.00  0.00    +0.004 A 
ATOM     22  C   UNL     1       9.800   4.246   8.457  0.00  0.00    +0.004 A 
ATOM     23  C   UNL     1       9.384   5.381   9.153  0.00  0.00    +0.000 A 
ENDBRANCH   3  14
ENDBRANCH   6   3
TORSDOF 2
ENDMDL
MODEL 5
REMARK VINA RESULT:      -6.0     27.558     28.897
REMARK  Name = 75536962
REMARK  2 active torsions:
REMARK  status: ('A' for Active; 'I' for Inactive)
REMARK    1  A    between atoms: O_3  and  C_6
REMARK    2  A    between atoms: O_3  and  C_14
REMARK                            x       y       z     vdW  Elec       q    Type
REMARK                         _______ _______ _______ _____ _____    ______ ____
ROOT
ATOM      1  S   UNL     1      -8.155 -10.304  18.154  0.00  0.00    -0.052 S 
ATOM      2  O   UNL     1      -3.716 -11.524  17.849  0.00  0.00    -0.375 OA
ATOM      4  N   UNL     1      -6.439 -11.924  16.876  0.00  0.00    -0.304 N 
ATOM      5  N   UNL     1      -7.880 -10.505  15.597  0.00  0.00    -0.225 NA
ATOM      6  C   UNL     1      -4.437 -11.364  15.498  0.00  0.00    +0.216 C 
ATOM      7  C   UNL     1      -5.596 -12.339  15.746  0.00  0.00    +0.154 C 
ATOM      8  C   UNL     1      -5.978 -12.401  18.186  0.00  0.00    +0.135 C 
ATOM      9  C   UNL     1      -3.878 -10.654  16.732  0.00  0.00    +0.206 C 
ATOM     10  C   UNL     1      -4.847 -11.529  18.724  0.00  0.00    +0.179 C 
ATOM     11  C   UNL     1      -7.437 -10.960  16.746  0.00  0.00    +0.162 A 
ATOM     12  C   UNL     1      -9.160  -9.312  17.166  0.00  0.00    +0.041 A 
ATOM     13  C   UNL     1      -8.869  -9.559  15.821  0.00  0.00    +0.080 A 
ATOM     15  C   UNL     1     -10.137  -8.380  17.554  0.00  0.00    +0.017 A 
ATOM     16  C   UNL     1      -9.581  -8.848  14.831  0.00  0.00    +0.029 A 
ATOM     19  C   UNL     1     -10.828  -7.691  16.554  0.00  0.00    +0.001 A 
ATOM     20  C   UNL     1     -10.555  -7.920  15.210  0.00  0.00    +0.002 A 
ENDROOT
BRANCH   6   3
ATOM      3  O   UNL     1      -4.824 -10.361  14.560  0.00  0.00    -0.485 OA
BRANCH   3  14
ATOM     14  C   UNL     1      -4.187 -10.376  13.350  0.00  0.00    +0.121 A 
ATOM     17  C   UNL     1      -2.846 -10.752  13.270  0.00  0.00    +0.045 A 
ATOM     18  C   UNL     1      -4.879 -10.015  12.193  0.00  0.00    +0.045 A 
ATOM     21  C   UNL     1      -2.197 -10.767  12.035  0.00  0.00    +0.004 A 
ATOM     22  C   UNL     1      -4.230 -10.030  10.959  0.00  0.00    +0.004 A 
ATOM     23  C   UNL     1      -2.889 -10.406  10.880  0.00  0.00    +0.000 A 
ENDBRANCH   3  14
ENDBRANCH   6   3
TORSDOF 2
ENDMDL
MODEL 6
REMARK VINA RESULT:      -5.9     27.844     29.292
REMARK  Name = 75536962
REMARK  2 active torsions:
REMARK  status: ('A' for Active; 'I' for Inactive)
REMARK    1  A    between atoms: O_3  and  C_6
REMARK    2  A    between atoms: O_3  and  C_14
REMARK                            x       y       z     vdW  Elec       q    Type
REMARK                         _______ _______ _______ _____ _____    ______ ____
ROOT
ATOM      1  S   UNL     1      -7.408  -9.957  11.837  0.00  0.00    -0.052 S 
ATOM      2  O   UNL     1     -10.018  -9.023  15.524  0.00  0.00    -0.375 OA
ATOM      4  N   UNL     1      -8.227 -10.914  14.207  0.00  0.00    -0.304 N 
ATOM      5  N   UNL     1      -5.883 -10.800  13.738  0.00  0.00    -0.225 NA
ATOM      6  C   UNL     1      -7.956  -9.960  16.495  0.00  0.00    +0.216 C 
ATOM      7  C   UNL     1      -8.079 -11.225  15.635  0.00  0.00    +0.154 C 
ATOM      8  C   UNL     1      -9.611 -10.686  13.773  0.00  0.00    +0.135 C 
ATOM      9  C   UNL     1      -8.704  -8.725  15.988  0.00  0.00    +0.206 C 
ATOM     10  C   UNL     1     -10.073  -9.273  14.117  0.00  0.00    +0.179 C 
ATOM     11  C   UNL     1      -7.136 -10.613  13.393  0.00  0.00    +0.162 A 
ATOM     12  C   UNL     1      -5.705  -9.906  11.572  0.00  0.00    +0.041 A 
ATOM     13  C   UNL     1      -5.051 -10.399  12.704  0.00  0.00    +0.080 A 
ATOM     15  C   UNL     1      -5.000  -9.460  10.442  0.00  0.00    +0.017 A 
ATOM     16  C   UNL     1      -3.640 -10.447  12.704  0.00  0.00    +0.029 A 
ATOM     19  C   UNL     1      -3.604  -9.519  10.468  0.00  0.00    +0.001 A 
ATOM     20  C   UNL     1      -2.930 -10.005  11.583  0.00  0.00    +0.002 A 
ENDROOT
BRANCH   6   3
ATOM      3  O   UNL     1      -6.585  -9.599  16.654  0.00  0.00    -0.485 OA
BRANCH   3  14
ATOM     14  C   UNL     1      -5.850 -10.354  17.526  0.00  0.00    +0.121 A 
ATOM     17  C   UNL     1      -4.575 -10.792  17.169  0.00  0.00    +0.045 A 
ATOM     18  C   UNL     1      -6.377 -10.686  18.776  0.00  0.00    +0.045 A 
ATOM     21  C   UNL     1      -3.827 -11.562  18.059  0.00  0.00    +0.004 A 
ATOM     22  C   UNL     1      -5.628 -11.455  19.665  0.00  0.00    +0.004 A 
ATOM     23  C   UNL     1      -4.353 -11.894  19.308  0.00  0.00    +0.000 A 
ENDBRANCH   3  14
ENDBRANCH   6   3
TORSDOF 2
ENDMDL
MODEL 7
REMARK VINA RESULT:      -5.8     21.554     24.135
REMARK  Name = 75536962
REMARK  2 active torsions:
REMARK  status: ('A' for Active; 'I' for Inactive)
REMARK    1  A    between atoms: O_3  and  C_6
REMARK    2  A    between atoms: O_3  and  C_14
REMARK                            x       y       z     vdW  Elec       q    Type
REMARK                         _______ _______ _______ _____ _____    ______ ____
ROOT
ATOM      1  S   UNL     1      -4.818  11.557  35.795  0.00  0.00    -0.052 S 
ATOM      2  O   UNL     1      -0.305  10.684  36.189  0.00  0.00    -0.375 OA
ATOM      4  N   UNL     1      -2.836  11.164  37.562  0.00  0.00    -0.304 N 
ATOM      5  N   UNL     1      -4.821   9.837  37.717  0.00  0.00    -0.225 NA
ATOM      6  C   UNL     1      -1.333   9.198  37.865  0.00  0.00    +0.216 C 
ATOM      7  C   UNL     1      -2.055  10.379  38.527  0.00  0.00    +0.154 C 
ATOM      8  C   UNL     1      -2.078  12.224  36.883  0.00  0.00    +0.135 C 
ATOM      9  C   UNL     1      -0.891   9.405  36.415  0.00  0.00    +0.206 C 
ATOM     10  C   UNL     1      -1.246  11.660  35.735  0.00  0.00    +0.179 C 
ATOM     11  C   UNL     1      -4.108  10.778  37.142  0.00  0.00    +0.162 A 
ATOM     12  C   UNL     1      -6.216  10.564  35.971  0.00  0.00    +0.041 A 
ATOM     13  C   UNL     1      -6.033   9.703  37.057  0.00  0.00    +0.080 A 
ATOM     15  C   UNL     1      -7.391  10.547  35.201  0.00  0.00    +0.017 A 
ATOM     16  C   UNL     1      -7.063   8.794  37.383  0.00  0.00    +0.029 A 
ATOM     19  C   UNL     1      -8.395   9.639  35.546  0.00  0.00    +0.001 A 
ATOM     20  C   UNL     1      -8.235   8.772  36.622  0.00  0.00    +0.002 A 
ENDROOT
BRANCH   6   3
ATOM      3  O   UNL     1      -2.150   8.030  37.906  0.00  0.00    -0.485 OA
BRANCH   3  14
ATOM     14  C   UNL     1      -1.745   7.028  38.744  0.00  0.00    +0.121 A 
ATOM     17  C   UNL     1      -0.484   6.453  38.589  0.00  0.00    +0.045 A 
ATOM     18  C   UNL     1      -2.595   6.581  39.757  0.00  0.00    +0.045 A 
ATOM     21  C   UNL     1      -0.073   5.431  39.444  0.00  0.00    +0.004 A 
ATOM     22  C   UNL     1      -2.183   5.560  40.613  0.00  0.00    +0.004 A 
ATOM     23  C   UNL     1      -0.922   4.984  40.456  0.00  0.00    +0.000 A 
ENDBRANCH   3  14
ENDBRANCH   6   3
TORSDOF 2
ENDMDL
MODEL 8
REMARK VINA RESULT:      -5.8     25.121     27.105
REMARK  Name = 75536962
REMARK  2 active torsions:
REMARK  status: ('A' for Active; 'I' for Inactive)
REMARK    1  A    between atoms: O_3  and  C_6
REMARK    2  A    between atoms: O_3  and  C_14
REMARK                            x       y       z     vdW  Elec       q    Type
REMARK                         _______ _______ _______ _____ _____    ______ ____
ROOT
ATOM      1  S   UNL     1     -15.283   9.070  24.015  0.00  0.00    -0.052 S 
ATOM      2  O   UNL     1     -14.856   5.142  21.634  0.00  0.00    -0.375 OA
ATOM      4  N   UNL     1     -15.060   8.052  21.542  0.00  0.00    -0.304 N 
ATOM      5  N   UNL     1     -13.540   9.761  22.244  0.00  0.00    -0.225 NA
ATOM      6  C   UNL     1     -13.249   6.659  20.545  0.00  0.00    +0.216 C 
ATOM      7  C   UNL     1     -14.341   7.710  20.307  0.00  0.00    +0.154 C 
ATOM      8  C   UNL     1     -16.201   7.178  21.845  0.00  0.00    +0.135 C 
ATOM      9  C   UNL     1     -13.522   5.641  21.654  0.00  0.00    +0.206 C 
ATOM     10  C   UNL     1     -15.741   5.872  22.487  0.00  0.00    +0.179 C 
ATOM     11  C   UNL     1     -14.556   8.961  22.470  0.00  0.00    +0.162 A 
ATOM     12  C   UNL     1     -14.152  10.298  24.449  0.00  0.00    +0.041 A 
ATOM     13  C   UNL     1     -13.296  10.534  23.369  0.00  0.00    +0.080 A 
ATOM     15  C   UNL     1     -14.032  11.000  25.659  0.00  0.00    +0.017 A 
ATOM     16  C   UNL     1     -12.285  11.509  23.507  0.00  0.00    +0.029 A 
ATOM     19  C   UNL     1     -13.023  11.960  25.769  0.00  0.00    +0.001 A 
ATOM     20  C   UNL     1     -12.159  12.213  24.708  0.00  0.00    +0.002 A 
ENDROOT
BRANCH   6   3
ATOM      3  O   UNL     1     -12.005   7.292  20.836  0.00  0.00    -0.485 OA
BRANCH   3  14
ATOM     14  C   UNL     1     -11.377   7.918  19.794  0.00  0.00    +0.121 A 
ATOM     17  C   UNL     1     -11.277   7.284  18.556  0.00  0.00    +0.045 A 
ATOM     18  C   UNL     1     -10.835   9.192  19.970  0.00  0.00    +0.045 A 
ATOM     21  C   UNL     1     -10.635   7.922  17.494  0.00  0.00    +0.004 A 
ATOM     22  C   UNL     1     -10.195   9.830  18.908  0.00  0.00    +0.004 A 
ATOM     23  C   UNL     1     -10.095   9.195  17.670  0.00  0.00    +0.000 A 
ENDBRANCH   3  14
ENDBRANCH   6   3
TORSDOF 2
ENDMDL
MODEL 9
REMARK VINA RESULT:      -5.8     13.508     15.202
REMARK  Name = 75536962
REMARK  2 active torsions:
REMARK  status: ('A' for Active; 'I' for Inactive)
REMARK    1  A    between atoms: O_3  and  C_6
REMARK    2  A    between atoms: O_3  and  C_14
REMARK                            x       y       z     vdW  Elec       q    Type
REMARK                         _______ _______ _______ _____ _____    ______ ____
ROOT
ATOM      1  S   UNL     1       8.472  13.052   7.117  0.00  0.00    -0.052 S 
ATOM      2  O   UNL     1       7.858   9.942   3.766  0.00  0.00    -0.375 OA
ATOM      4  N   UNL     1       9.620  10.987   5.844  0.00  0.00    -0.304 N 
ATOM      5  N   UNL     1       9.444  10.940   8.230  0.00  0.00    -0.225 NA
ATOM      6  C   UNL     1       8.846   8.629   5.603  0.00  0.00    +0.216 C 
ATOM      7  C   UNL     1      10.041   9.587   5.697  0.00  0.00    +0.154 C 
ATOM      8  C   UNL     1       9.374  11.686   4.576  0.00  0.00    +0.135 C 
ATOM      9  C   UNL     1       7.584   9.189   4.944  0.00  0.00    +0.206 C 
ATOM     10  C   UNL     1       7.998  11.343   4.015  0.00  0.00    +0.179 C 
ATOM     11  C   UNL     1       9.245  11.527   7.074  0.00  0.00    +0.162 A 
ATOM     12  C   UNL     1       8.381  12.947   8.835  0.00  0.00    +0.041 A 
ATOM     13  C   UNL     1       8.954  11.741   9.250  0.00  0.00    +0.080 A 
ATOM     15  C   UNL     1       7.840  13.865   9.750  0.00  0.00    +0.017 A 
ATOM     16  C   UNL     1       8.987  11.446  10.630  0.00  0.00    +0.029 A 
ATOM     19  C   UNL     1       7.886  13.549  11.110  0.00  0.00    +0.001 A 
ATOM     20  C   UNL     1       8.451  12.356  11.547  0.00  0.00    +0.002 A 
ENDROOT
BRANCH   6   3
ATOM      3  O   UNL     1       8.484   8.157   6.899  0.00  0.00    -0.485 OA
BRANCH   3  14
ATOM     14  C   UNL     1       8.940   6.916   7.248  0.00  0.00    +0.121 A 
ATOM     17  C   UNL     1       9.265   5.987   6.260  0.00  0.00    +0.045 A 
ATOM     18  C   UNL     1       9.081   6.578   8.595  0.00  0.00    +0.045 A 
ATOM     21  C   UNL     1       9.729   4.721   6.617  0.00  0.00    +0.004 A 
ATOM     22  C   UNL     1       9.546   5.312   8.951  0.00  0.00    +0.004 A 
ATOM     23  C   UNL     1       9.869   4.383   7.962  0.00  0.00    +0.000 A 
ENDBRANCH   3  14
ENDBRANCH   6   3
TORSDOF 2
ENDMDL
MODEL 10
REMARK VINA RESULT:      -5.7     16.590     18.436
REMARK  Name = 75536962
REMARK  2 active torsions:
REMARK  status: ('A' for Active; 'I' for Inactive)
REMARK    1  A    between atoms: O_3  and  C_6
REMARK    2  A    between atoms: O_3  and  C_14
REMARK                            x       y       z     vdW  Elec       q    Type
REMARK                         _______ _______ _______ _____ _____    ______ ____
ROOT
ATOM      1  S   UNL     1       8.156   9.369   5.473  0.00  0.00    -0.052 S 
ATOM      2  O   UNL     1      11.292   6.373   7.048  0.00  0.00    -0.375 OA
ATOM      4  N   UNL     1       8.760   6.759   5.647  0.00  0.00    -0.304 N 
ATOM      5  N   UNL     1       8.273   7.707   3.504  0.00  0.00    -0.225 NA
ATOM      6  C   UNL     1      10.751   5.521   4.799  0.00  0.00    +0.216 C 
ATOM      7  C   UNL     1       9.254   5.474   5.133  0.00  0.00    +0.154 C 
ATOM      8  C   UNL     1       8.908   6.933   7.098  0.00  0.00    +0.135 C 
ATOM      9  C   UNL     1      11.606   6.453   5.660  0.00  0.00    +0.206 C 
ATOM     10  C   UNL     1      10.331   7.347   7.462  0.00  0.00    +0.179 C 
ATOM     11  C   UNL     1       8.416   7.816   4.805  0.00  0.00    +0.162 A 
ATOM     12  C   UNL     1       7.817   9.979   3.897  0.00  0.00    +0.041 A 
ATOM     13  C   UNL     1       7.930   8.940   2.969  0.00  0.00    +0.080 A 
ATOM     15  C   UNL     1       7.477  11.286   3.510  0.00  0.00    +0.017 A 
ATOM     16  C   UNL     1       7.693   9.219   1.606  0.00  0.00    +0.029 A 
ATOM     19  C   UNL     1       7.247  11.535   2.154  0.00  0.00    +0.001 A 
ATOM     20  C   UNL     1       7.353  10.517   1.213  0.00  0.00    +0.002 A 
ENDROOT
BRANCH   6   3
ATOM      3  O   UNL     1      10.945   5.892   3.436  0.00  0.00    -0.485 OA
BRANCH   3  14
ATOM     14  C   UNL     1      11.874   5.176   2.732  0.00  0.00    +0.121 A 
ATOM     17  C   UNL     1      13.057   5.785   2.315  0.00  0.00    +0.045 A 
ATOM     18  C   UNL     1      11.637   3.834   2.429  0.00  0.00    +0.045 A 
ATOM     21  C   UNL     1      14.003   5.055   1.596  0.00  0.00    +0.004 A 
ATOM     22  C   UNL     1      12.584   3.104   1.712  0.00  0.00    +0.004 A 
ATOM     23  C   UNL     1      13.767   3.714   1.295  0.00  0.00    +0.000 A 
ENDBRANCH   3  14
ENDBRANCH   6   3
TORSDOF 2
ENDMDL
