MODEL 1
REMARK VINA RESULT:      -6.6      0.000      0.000
REMARK  Name = 75536700
REMARK  8 active torsions:
REMARK  status: ('A' for Active; 'I' for Inactive)
REMARK    1  A    between atoms: S_1  and  N_8
REMARK    2  A    between atoms: S_1  and  C_19
REMARK    3  A    between atoms: O_3  and  C_10
REMARK    4  A    between atoms: N_7  and  C_9
REMARK    5  A    between atoms: N_7  and  C_12
REMARK    6  A    between atoms: N_8  and  C_16
REMARK    7  A    between atoms: C_11  and  C_16
REMARK    8  A    between atoms: C_24  and  C_25
REMARK                            x       y       z     vdW  Elec       q    Type
REMARK                         _______ _______ _______ _____ _____    ______ ____
ROOT
ATOM      2  O   UNL     1     -17.379   3.277  28.107  0.00  0.00    -0.371 OA
ATOM      9  C   UNL     1     -16.456   3.288  25.919  0.00  0.00    +0.111 C 
ATOM     10  C   UNL     1     -16.234   1.923  26.543  0.00  0.00    +0.164 C 
ATOM     11  C   UNL     1     -17.296   1.922  27.634  0.00  0.00    +0.164 C 
ATOM     13  C   UNL     1     -16.742   4.137  27.147  0.00  0.00    +0.181 C 
ENDROOT
BRANCH  10   3
ATOM      3  O   UNL     1     -16.423   0.866  25.622  0.00  0.00    -0.388 OA
ATOM     27  H   UNL     1     -15.622   0.783  25.080  0.00  0.00    +0.210 HD
ENDBRANCH  10   3
BRANCH   9   7
ATOM      7  N   UNL     1     -15.321   3.770  25.148  0.00  0.00    -0.306 NA
ATOM     26  H   UNL     1     -14.756   2.983  24.829  0.00  0.00    +0.123 HD
BRANCH   7  12
ATOM      4  O   UNL     1     -16.056   4.818  21.150  0.00  0.00    -0.380 OA
ATOM     12  C   UNL     1     -15.761   4.562  24.002  0.00  0.00    +0.058 C 
ATOM     14  C   UNL     1     -14.577   4.863  23.079  0.00  0.00    +0.047 C 
ATOM     15  C   UNL     1     -16.863   3.839  23.223  0.00  0.00    +0.047 C 
ATOM     17  C   UNL     1     -15.055   5.583  21.823  0.00  0.00    +0.161 C 
ATOM     18  C   UNL     1     -17.215   4.615  21.959  0.00  0.00    +0.161 C 
ENDBRANCH   7  12
ENDBRANCH   9   7
BRANCH  11  16
ATOM     16  C   UNL     1     -16.969   0.994  28.789  0.00  0.00    +0.140 C 
BRANCH  16   8
ATOM      8  N   UNL     1     -15.548   0.600  28.721  0.00  0.00    -0.187 NA
ATOM     28  H   UNL     1     -15.192   0.375  27.784  0.00  0.00    +0.148 HD
BRANCH   8   1
ATOM      1  S   UNL     1     -14.797  -0.119  30.067  0.00  0.00    +0.058 S 
ATOM      5  O   UNL     1     -13.480  -0.594  29.687  0.00  0.00    -0.153 OA
ATOM      6  O   UNL     1     -15.738  -1.018  30.708  0.00  0.00    -0.153 OA
BRANCH   1  19
ATOM     19  C   UNL     1     -14.588   1.264  31.147  0.00  0.00    +0.105 A 
ATOM     20  C   UNL     1     -14.866   1.135  32.508  0.00  0.00    +0.029 A 
ATOM     21  C   UNL     1     -14.149   2.486  30.638  0.00  0.00    +0.029 A 
ATOM     22  C   UNL     1     -14.703   2.227  33.359  0.00  0.00    +0.005 A 
ATOM     23  C   UNL     1     -13.987   3.579  31.490  0.00  0.00    +0.005 A 
ATOM     24  C   UNL     1     -14.265   3.450  32.851  0.00  0.00    -0.050 A 
ATOM     25  C   UNL     1     -14.091   4.618  33.762  0.00  0.00    +0.044 C 
ENDBRANCH   1  19
ENDBRANCH   8   1
ENDBRANCH  16   8
ENDBRANCH  11  16
TORSDOF 7
ENDMDL
MODEL 2
REMARK VINA RESULT:      -6.4     19.386     21.506
REMARK  Name = 75536700
REMARK  8 active torsions:
REMARK  status: ('A' for Active; 'I' for Inactive)
REMARK    1  A    between atoms: S_1  and  N_8
REMARK    2  A    between atoms: S_1  and  C_19
REMARK    3  A    between atoms: O_3  and  C_10
REMARK    4  A    between atoms: N_7  and  C_9
REMARK    5  A    between atoms: N_7  and  C_12
REMARK    6  A    between atoms: N_8  and  C_16
REMARK    7  A    between atoms: C_11  and  C_16
REMARK    8  A    between atoms: C_24  and  C_25
REMARK                            x       y       z     vdW  Elec       q    Type
REMARK                         _______ _______ _______ _____ _____    ______ ____
ROOT
ATOM      2  O   UNL     1      -5.755 -11.917  18.034  0.00  0.00    -0.371 OA
ATOM      9  C   UNL     1      -7.369 -10.308  17.363  0.00  0.00    +0.111 C 
ATOM     10  C   UNL     1      -6.028  -9.945  16.756  0.00  0.00    +0.164 C 
ATOM     11  C   UNL     1      -5.302 -11.282  16.826  0.00  0.00    +0.164 C 
ATOM     13  C   UNL     1      -6.950 -11.251  18.480  0.00  0.00    +0.181 C 
ENDROOT
BRANCH  10   3
ATOM      3  O   UNL     1      -6.140  -9.475  15.427  0.00  0.00    -0.388 OA
ATOM     27  H   UNL     1      -6.926  -9.879  15.024  0.00  0.00    +0.210 HD
ENDBRANCH  10   3
BRANCH   9   7
ATOM      7  N   UNL     1      -8.123  -9.162  17.844  0.00  0.00    -0.306 NA
ATOM     26  H   UNL     1      -7.487  -8.405  18.096  0.00  0.00    +0.123 HD
BRANCH   7  12
ATOM      4  O   UNL     1     -11.786  -8.547  15.888  0.00  0.00    -0.380 OA
ATOM     12  C   UNL     1      -9.072  -8.696  16.837  0.00  0.00    +0.058 C 
ATOM     14  C   UNL     1      -9.779  -9.886  16.180  0.00  0.00    +0.047 C 
ATOM     15  C   UNL     1     -10.105  -7.747  17.450  0.00  0.00    +0.047 C 
ATOM     17  C   UNL     1     -10.856  -9.397  15.217  0.00  0.00    +0.161 C 
ATOM     18  C   UNL     1     -11.165  -7.376  16.418  0.00  0.00    +0.161 C 
ENDBRANCH   7  12
ENDBRANCH   9   7
BRANCH  11  16
ATOM     16  C   UNL     1      -3.790 -11.144  16.856  0.00  0.00    +0.140 C 
BRANCH  16   8
ATOM      8  N   UNL     1      -3.351 -10.277  15.744  0.00  0.00    -0.187 NA
ATOM     28  H   UNL     1      -4.076  -9.678  15.332  0.00  0.00    +0.148 HD
BRANCH   8   1
ATOM      1  S   UNL     1      -2.033 -10.739  14.773  0.00  0.00    +0.058 S 
ATOM      5  O   UNL     1      -1.855 -12.177  14.856  0.00  0.00    -0.153 OA
ATOM      6  O   UNL     1      -0.918  -9.850  15.036  0.00  0.00    -0.153 OA
BRANCH   1  19
ATOM     19  C   UNL     1      -2.626 -10.356  13.153  0.00  0.00    +0.105 A 
ATOM     20  C   UNL     1      -3.989 -10.444  12.870  0.00  0.00    +0.029 A 
ATOM     21  C   UNL     1      -1.731  -9.970  12.156  0.00  0.00    +0.029 A 
ATOM     22  C   UNL     1      -4.457 -10.145  11.591  0.00  0.00    +0.005 A 
ATOM     23  C   UNL     1      -2.199  -9.671  10.876  0.00  0.00    +0.005 A 
ATOM     24  C   UNL     1      -3.562  -9.759  10.593  0.00  0.00    -0.050 A 
ATOM     25  C   UNL     1      -4.062  -9.439   9.225  0.00  0.00    +0.044 C 
ENDBRANCH   1  19
ENDBRANCH   8   1
ENDBRANCH  16   8
ENDBRANCH  11  16
TORSDOF 7
ENDMDL
MODEL 3
REMARK VINA RESULT:      -6.4     33.814     35.345
REMARK  Name = 75536700
REMARK  8 active torsions:
REMARK  status: ('A' for Active; 'I' for Inactive)
REMARK    1  A    between atoms: S_1  and  N_8
REMARK    2  A    between atoms: S_1  and  C_19
REMARK    3  A    between atoms: O_3  and  C_10
REMARK    4  A    between atoms: N_7  and  C_9
REMARK    5  A    between atoms: N_7  and  C_12
REMARK    6  A    between atoms: N_8  and  C_16
REMARK    7  A    between atoms: C_11  and  C_16
REMARK    8  A    between atoms: C_24  and  C_25
REMARK                            x       y       z     vdW  Elec       q    Type
REMARK                         _______ _______ _______ _____ _____    ______ ____
ROOT
ATOM      2  O   UNL     1      17.470   5.896  18.886  0.00  0.00    -0.371 OA
ATOM      9  C   UNL     1      16.198   7.053  20.524  0.00  0.00    +0.111 C 
ATOM     10  C   UNL     1      17.450   6.496  21.173  0.00  0.00    +0.164 C 
ATOM     11  C   UNL     1      18.344   6.289  19.957  0.00  0.00    +0.164 C 
ATOM     13  C   UNL     1      16.118   6.216  19.257  0.00  0.00    +0.181 C 
ENDROOT
BRANCH  10   3
ATOM      3  O   UNL     1      18.026   7.393  22.103  0.00  0.00    -0.388 OA
ATOM     27  H   UNL     1      18.019   8.284  21.716  0.00  0.00    +0.210 HD
ENDBRANCH  10   3
BRANCH   9   7
ATOM      7  N   UNL     1      15.009   6.938  21.353  0.00  0.00    -0.306 NA
ATOM     26  H   UNL     1      15.138   7.455  22.223  0.00  0.00    +0.123 HD
BRANCH   7  12
ATOM      4  O   UNL     1      11.504   9.133  20.636  0.00  0.00    -0.380 OA
ATOM     12  C   UNL     1      13.828   7.434  20.652  0.00  0.00    +0.058 C 
ATOM     14  C   UNL     1      12.560   7.099  21.443  0.00  0.00    +0.047 C 
ATOM     15  C   UNL     1      13.917   8.945  20.423  0.00  0.00    +0.047 C 
ATOM     17  C   UNL     1      11.339   7.722  20.775  0.00  0.00    +0.161 C 
ATOM     18  C   UNL     1      12.621   9.468  19.812  0.00  0.00    +0.161 C 
ENDBRANCH   7  12
ENDBRANCH   9   7
BRANCH  11  16
ATOM     16  C   UNL     1      19.407   5.226  20.169  0.00  0.00    +0.140 C 
BRANCH  16   8
ATOM      8  N   UNL     1      20.730   5.868  20.300  0.00  0.00    -0.187 NA
ATOM     28  H   UNL     1      21.312   5.867  19.454  0.00  0.00    +0.148 HD
BRANCH   8   1
ATOM      1  S   UNL     1      21.502   5.927  21.814  0.00  0.00    +0.058 S 
ATOM      5  O   UNL     1      20.509   5.810  22.865  0.00  0.00    -0.153 OA
ATOM      6  O   UNL     1      22.444   7.030  21.821  0.00  0.00    -0.153 OA
BRANCH   1  19
ATOM     19  C   UNL     1      22.453   4.438  21.794  0.00  0.00    +0.105 A 
ATOM     20  C   UNL     1      23.239   4.126  20.685  0.00  0.00    +0.029 A 
ATOM     21  C   UNL     1      22.414   3.571  22.886  0.00  0.00    +0.029 A 
ATOM     22  C   UNL     1      23.987   2.950  20.667  0.00  0.00    +0.005 A 
ATOM     23  C   UNL     1      23.162   2.393  22.869  0.00  0.00    +0.005 A 
ATOM     24  C   UNL     1      23.948   2.082  21.759  0.00  0.00    -0.050 A 
ATOM     25  C   UNL     1      24.748   0.823  21.741  0.00  0.00    +0.044 C 
ENDBRANCH   1  19
ENDBRANCH   8   1
ENDBRANCH  16   8
ENDBRANCH  11  16
TORSDOF 7
ENDMDL
MODEL 4
REMARK VINA RESULT:      -6.4     31.169     33.024
REMARK  Name = 75536700
REMARK  8 active torsions:
REMARK  status: ('A' for Active; 'I' for Inactive)
REMARK    1  A    between atoms: S_1  and  N_8
REMARK    2  A    between atoms: S_1  and  C_19
REMARK    3  A    between atoms: O_3  and  C_10
REMARK    4  A    between atoms: N_7  and  C_9
REMARK    5  A    between atoms: N_7  and  C_12
REMARK    6  A    between atoms: N_8  and  C_16
REMARK    7  A    between atoms: C_11  and  C_16
REMARK    8  A    between atoms: C_24  and  C_25
REMARK                            x       y       z     vdW  Elec       q    Type
REMARK                         _______ _______ _______ _____ _____    ______ ____
ROOT
ATOM      2  O   UNL     1      15.707   8.512  20.600  0.00  0.00    -0.371 OA
ATOM      9  C   UNL     1      17.812   7.466  20.941  0.00  0.00    +0.111 C 
ATOM     10  C   UNL     1      16.957   6.579  20.057  0.00  0.00    +0.164 C 
ATOM     11  C   UNL     1      15.941   7.583  19.528  0.00  0.00    +0.164 C 
ATOM     13  C   UNL     1      16.762   8.370  21.567  0.00  0.00    +0.181 C 
ENDROOT
BRANCH  10   3
ATOM      3  O   UNL     1      17.695   5.977  19.011  0.00  0.00    -0.388 OA
ATOM     27  H   UNL     1      17.170   5.246  18.646  0.00  0.00    +0.210 HD
ENDBRANCH  10   3
BRANCH   9   7
ATOM      7  N   UNL     1      18.589   6.734  21.927  0.00  0.00    -0.306 NA
ATOM     26  H   UNL     1      18.334   5.746  21.911  0.00  0.00    +0.123 HD
BRANCH   7  12
ATOM      4  O   UNL     1      22.687   5.823  21.948  0.00  0.00    -0.380 OA
ATOM     12  C   UNL     1      20.022   6.879  21.683  0.00  0.00    +0.058 C 
ATOM     14  C   UNL     1      20.788   6.906  23.009  0.00  0.00    +0.047 C 
ATOM     15  C   UNL     1      20.548   5.745  20.798  0.00  0.00    +0.047 C 
ATOM     17  C   UNL     1      22.291   6.934  22.752  0.00  0.00    +0.161 C 
ATOM     18  C   UNL     1      22.064   5.836  20.663  0.00  0.00    +0.161 C 
ENDBRANCH   7  12
ENDBRANCH   9   7
BRANCH  11  16
ATOM     16  C   UNL     1      14.630   6.944  19.107  0.00  0.00    +0.140 C 
BRANCH  16   8
ATOM      8  N   UNL     1      13.738   6.827  20.278  0.00  0.00    -0.187 NA
ATOM     28  H   UNL     1      14.076   6.225  21.038  0.00  0.00    +0.148 HD
BRANCH   8   1
ATOM      1  S   UNL     1      12.059   7.034  20.094  0.00  0.00    +0.058 S 
ATOM      5  O   UNL     1      11.363   5.997  20.831  0.00  0.00    -0.153 OA
ATOM      6  O   UNL     1      11.762   7.257  18.692  0.00  0.00    -0.153 OA
BRANCH   1  19
ATOM     19  C   UNL     1      11.790   8.570  20.928  0.00  0.00    +0.105 A 
ATOM     20  C   UNL     1      11.160   8.587  22.172  0.00  0.00    +0.029 A 
ATOM     21  C   UNL     1      12.205   9.764  20.339  0.00  0.00    +0.029 A 
ATOM     22  C   UNL     1      10.945   9.798  22.828  0.00  0.00    +0.005 A 
ATOM     23  C   UNL     1      11.989  10.976  20.996  0.00  0.00    +0.005 A 
ATOM     24  C   UNL     1      11.359  10.993  22.240  0.00  0.00    -0.050 A 
ATOM     25  C   UNL     1      11.129  12.289  22.943  0.00  0.00    +0.044 C 
ENDBRANCH   1  19
ENDBRANCH   8   1
ENDBRANCH  16   8
ENDBRANCH  11  16
TORSDOF 7
ENDMDL
MODEL 5
REMARK VINA RESULT:      -6.1      4.121      7.100
REMARK  Name = 75536700
REMARK  8 active torsions:
REMARK  status: ('A' for Active; 'I' for Inactive)
REMARK    1  A    between atoms: S_1  and  N_8
REMARK    2  A    between atoms: S_1  and  C_19
REMARK    3  A    between atoms: O_3  and  C_10
REMARK    4  A    between atoms: N_7  and  C_9
REMARK    5  A    between atoms: N_7  and  C_12
REMARK    6  A    between atoms: N_8  and  C_16
REMARK    7  A    between atoms: C_11  and  C_16
REMARK    8  A    between atoms: C_24  and  C_25
REMARK                            x       y       z     vdW  Elec       q    Type
REMARK                         _______ _______ _______ _____ _____    ______ ____
ROOT
ATOM      2  O   UNL     1     -15.284   7.439  21.409  0.00  0.00    -0.371 OA
ATOM      9  C   UNL     1     -13.178   6.598  20.703  0.00  0.00    +0.111 C 
ATOM     10  C   UNL     1     -13.537   5.975  22.038  0.00  0.00    +0.164 C 
ATOM     11  C   UNL     1     -15.046   6.181  22.062  0.00  0.00    +0.164 C 
ATOM     13  C   UNL     1     -14.102   7.805  20.676  0.00  0.00    +0.181 C 
ENDROOT
BRANCH  10   3
ATOM      3  O   UNL     1     -13.192   4.605  22.111  0.00  0.00    -0.388 OA
ATOM     27  H   UNL     1     -13.025   4.282  21.210  0.00  0.00    +0.210 HD
ENDBRANCH  10   3
BRANCH   9   7
ATOM      7  N   UNL     1     -11.774   6.957  20.584  0.00  0.00    -0.306 NA
ATOM     26  H   UNL     1     -11.214   6.124  20.402  0.00  0.00    +0.123 HD
BRANCH   7  12
ATOM      4  O   UNL     1      -9.795   9.181  17.624  0.00  0.00    -0.380 OA
ATOM     12  C   UNL     1     -11.569   7.935  19.519  0.00  0.00    +0.058 C 
ATOM     14  C   UNL     1     -10.513   8.963  19.936  0.00  0.00    +0.047 C 
ATOM     15  C   UNL     1     -11.147   7.250  18.216  0.00  0.00    +0.047 C 
ATOM     17  C   UNL     1     -10.210   9.910  18.780  0.00  0.00    +0.161 C 
ATOM     18  C   UNL     1     -10.808   8.291  17.154  0.00  0.00    +0.161 C 
ENDBRANCH   7  12
ENDBRANCH   9   7
BRANCH  11  16
ATOM     16  C   UNL     1     -15.624   6.215  23.466  0.00  0.00    +0.140 C 
BRANCH  16   8
ATOM      8  N   UNL     1     -15.440   4.899  24.109  0.00  0.00    -0.187 NA
ATOM     28  H   UNL     1     -14.466   4.602  24.246  0.00  0.00    +0.148 HD
BRANCH   8   1
ATOM      1  S   UNL     1     -16.639   3.702  23.958  0.00  0.00    +0.058 S 
ATOM      5  O   UNL     1     -16.241   2.748  22.939  0.00  0.00    -0.153 OA
ATOM      6  O   UNL     1     -17.938   4.341  23.889  0.00  0.00    -0.153 OA
BRANCH   1  19
ATOM     19  C   UNL     1     -16.543   2.894  25.527  0.00  0.00    +0.105 A 
ATOM     20  C   UNL     1     -16.903   1.552  25.644  0.00  0.00    +0.029 A 
ATOM     21  C   UNL     1     -16.113   3.601  26.650  0.00  0.00    +0.029 A 
ATOM     22  C   UNL     1     -16.831   0.915  26.883  0.00  0.00    +0.005 A 
ATOM     23  C   UNL     1     -16.041   2.964  27.890  0.00  0.00    +0.005 A 
ATOM     24  C   UNL     1     -16.401   1.622  28.006  0.00  0.00    -0.050 A 
ATOM     25  C   UNL     1     -16.323   0.941  29.331  0.00  0.00    +0.044 C 
ENDBRANCH   1  19
ENDBRANCH   8   1
ENDBRANCH  16   8
ENDBRANCH  11  16
TORSDOF 7
ENDMDL
MODEL 6
REMARK VINA RESULT:      -6.0     18.619     20.219
REMARK  Name = 75536700
REMARK  8 active torsions:
REMARK  status: ('A' for Active; 'I' for Inactive)
REMARK    1  A    between atoms: S_1  and  N_8
REMARK    2  A    between atoms: S_1  and  C_19
REMARK    3  A    between atoms: O_3  and  C_10
REMARK    4  A    between atoms: N_7  and  C_9
REMARK    5  A    between atoms: N_7  and  C_12
REMARK    6  A    between atoms: N_8  and  C_16
REMARK    7  A    between atoms: C_11  and  C_16
REMARK    8  A    between atoms: C_24  and  C_25
REMARK                            x       y       z     vdW  Elec       q    Type
REMARK                         _______ _______ _______ _____ _____    ______ ____
ROOT
ATOM      2  O   UNL     1      -5.853 -10.120  17.441  0.00  0.00    -0.371 OA
ATOM      9  C   UNL     1      -3.942 -11.303  16.674  0.00  0.00    +0.111 C 
ATOM     10  C   UNL     1      -4.309 -11.802  18.058  0.00  0.00    +0.164 C 
ATOM     11  C   UNL     1      -5.766 -11.368  18.150  0.00  0.00    +0.164 C 
ATOM     13  C   UNL     1      -4.676  -9.972  16.629  0.00  0.00    +0.181 C 
ENDROOT
BRANCH  10   3
ATOM      3  O   UNL     1      -4.168 -13.203  18.187  0.00  0.00    -0.388 OA
ATOM     27  H   UNL     1      -3.991 -13.576  17.308  0.00  0.00    +0.210 HD
ENDBRANCH  10   3
BRANCH   9   7
ATOM      7  N   UNL     1      -2.510 -11.166  16.462  0.00  0.00    -0.306 NA
ATOM     26  H   UNL     1      -2.000 -11.720  17.152  0.00  0.00    +0.123 HD
BRANCH   7  12
ATOM      4  O   UNL     1      -2.824 -11.853  12.333  0.00  0.00    -0.380 OA
ATOM     12  C   UNL     1      -2.134 -11.587  15.115  0.00  0.00    +0.058 C 
ATOM     14  C   UNL     1      -3.094 -12.666  14.607  0.00  0.00    +0.047 C 
ATOM     15  C   UNL     1      -2.123 -10.399  14.150  0.00  0.00    +0.047 C 
ATOM     17  C   UNL     1      -2.777 -13.017  13.157  0.00  0.00    +0.161 C 
ATOM     18  C   UNL     1      -1.860 -10.874  12.725  0.00  0.00    +0.161 C 
ENDBRANCH   7  12
ENDBRANCH   9   7
BRANCH  11  16
ATOM     16  C   UNL     1      -6.248 -11.182  19.577  0.00  0.00    +0.140 C 
BRANCH  16   8
ATOM      8  N   UNL     1      -7.489 -10.382  19.581  0.00  0.00    -0.187 NA
ATOM     28  H   UNL     1      -7.493  -9.567  20.207  0.00  0.00    +0.148 HD
BRANCH   8   1
ATOM      1  S   UNL     1      -8.975 -11.113  19.194  0.00  0.00    +0.058 S 
ATOM      5  O   UNL     1      -9.735 -11.331  20.410  0.00  0.00    -0.153 OA
ATOM      6  O   UNL     1      -8.735 -12.212  18.278  0.00  0.00    -0.153 OA
BRANCH   1  19
ATOM     19  C   UNL     1      -9.777  -9.837  18.270  0.00  0.00    +0.105 A 
ATOM     20  C   UNL     1      -9.022  -8.961  17.490  0.00  0.00    +0.029 A 
ATOM     21  C   UNL     1     -11.164  -9.704  18.324  0.00  0.00    +0.029 A 
ATOM     22  C   UNL     1      -9.654  -7.953  16.764  0.00  0.00    +0.005 A 
ATOM     23  C   UNL     1     -11.796  -8.695  17.598  0.00  0.00    +0.005 A 
ATOM     24  C   UNL     1     -11.042  -7.819  16.818  0.00  0.00    -0.050 A 
ATOM     25  C   UNL     1     -11.717  -6.740  16.041  0.00  0.00    +0.044 C 
ENDBRANCH   1  19
ENDBRANCH   8   1
ENDBRANCH  16   8
ENDBRANCH  11  16
TORSDOF 7
ENDMDL
MODEL 7
REMARK VINA RESULT:      -6.0     21.961     23.326
REMARK  Name = 75536700
REMARK  8 active torsions:
REMARK  status: ('A' for Active; 'I' for Inactive)
REMARK    1  A    between atoms: S_1  and  N_8
REMARK    2  A    between atoms: S_1  and  C_19
REMARK    3  A    between atoms: O_3  and  C_10
REMARK    4  A    between atoms: N_7  and  C_9
REMARK    5  A    between atoms: N_7  and  C_12
REMARK    6  A    between atoms: N_8  and  C_16
REMARK    7  A    between atoms: C_11  and  C_16
REMARK    8  A    between atoms: C_24  and  C_25
REMARK                            x       y       z     vdW  Elec       q    Type
REMARK                         _______ _______ _______ _____ _____    ______ ____
ROOT
ATOM      2  O   UNL     1      -5.390 -13.304  13.094  0.00  0.00    -0.371 OA
ATOM      9  C   UNL     1      -3.984 -13.449  11.185  0.00  0.00    +0.111 C 
ATOM     10  C   UNL     1      -3.126 -13.492  12.435  0.00  0.00    +0.164 C 
ATOM     11  C   UNL     1      -4.150 -13.921  13.479  0.00  0.00    +0.164 C 
ATOM     13  C   UNL     1      -5.279 -12.866  11.728  0.00  0.00    +0.181 C 
ENDROOT
BRANCH  10   3
ATOM      3  O   UNL     1      -2.060 -14.417  12.333  0.00  0.00    -0.388 OA
ATOM     27  H   UNL     1      -2.417 -15.263  12.017  0.00  0.00    +0.210 HD
ENDBRANCH  10   3
BRANCH   9   7
ATOM      7  N   UNL     1      -3.412 -12.653  10.111  0.00  0.00    -0.306 NA
ATOM     26  H   UNL     1      -3.485 -13.155   9.226  0.00  0.00    +0.123 HD
BRANCH   7  12
ATOM      4  O   UNL     1      -4.135  -8.697   8.906  0.00  0.00    -0.380 OA
ATOM     12  C   UNL     1      -4.080 -11.358  10.002  0.00  0.00    +0.058 C 
ATOM     14  C   UNL     1      -3.164 -10.242  10.511  0.00  0.00    +0.047 C 
ATOM     15  C   UNL     1      -4.499 -11.074   8.557  0.00  0.00    +0.047 C 
ATOM     17  C   UNL     1      -3.812  -8.880  10.285  0.00  0.00    +0.161 C 
ATOM     18  C   UNL     1      -5.073  -9.666   8.438  0.00  0.00    +0.161 C 
ENDBRANCH   7  12
ENDBRANCH   9   7
BRANCH  11  16
ATOM     16  C   UNL     1      -3.782 -13.497  14.889  0.00  0.00    +0.140 C 
BRANCH  16   8
ATOM      8  N   UNL     1      -2.504 -12.757  14.866  0.00  0.00    -0.187 NA
ATOM     28  H   UNL     1      -1.665 -13.309  15.079  0.00  0.00    +0.148 HD
BRANCH   8   1
ATOM      1  S   UNL     1      -2.480 -11.088  15.195  0.00  0.00    +0.058 S 
ATOM      5  O   UNL     1      -2.926 -10.361  14.021  0.00  0.00    -0.153 OA
ATOM      6  O   UNL     1      -1.219 -10.750  15.827  0.00  0.00    -0.153 OA
BRANCH   1  19
ATOM     19  C   UNL     1      -3.733 -10.945  16.433  0.00  0.00    +0.105 A 
ATOM     20  C   UNL     1      -4.922 -10.275  16.148  0.00  0.00    +0.029 A 
ATOM     21  C   UNL     1      -3.530 -11.499  17.697  0.00  0.00    +0.029 A 
ATOM     22  C   UNL     1      -5.909 -10.159  17.126  0.00  0.00    +0.005 A 
ATOM     23  C   UNL     1      -4.517 -11.382  18.676  0.00  0.00    +0.005 A 
ATOM     24  C   UNL     1      -5.707 -10.712  18.391  0.00  0.00    -0.050 A 
ATOM     25  C   UNL     1      -6.763 -10.588  19.437  0.00  0.00    +0.044 C 
ENDBRANCH   1  19
ENDBRANCH   8   1
ENDBRANCH  16   8
ENDBRANCH  11  16
TORSDOF 7
ENDMDL
MODEL 8
REMARK VINA RESULT:      -6.0     16.220     17.856
REMARK  Name = 75536700
REMARK  8 active torsions:
REMARK  status: ('A' for Active; 'I' for Inactive)
REMARK    1  A    between atoms: S_1  and  N_8
REMARK    2  A    between atoms: S_1  and  C_19
REMARK    3  A    between atoms: O_3  and  C_10
REMARK    4  A    between atoms: N_7  and  C_9
REMARK    5  A    between atoms: N_7  and  C_12
REMARK    6  A    between atoms: N_8  and  C_16
REMARK    7  A    between atoms: C_11  and  C_16
REMARK    8  A    between atoms: C_24  and  C_25
REMARK                            x       y       z     vdW  Elec       q    Type
REMARK                         _______ _______ _______ _____ _____    ______ ____
ROOT
ATOM      2  O   UNL     1     -10.179  -8.927  15.343  0.00  0.00    -0.371 OA
ATOM      9  C   UNL     1     -11.693  -7.171  14.829  0.00  0.00    +0.111 C 
ATOM     10  C   UNL     1     -11.329  -7.095  16.299  0.00  0.00    +0.164 C 
ATOM     11  C   UNL     1     -10.026  -7.884  16.320  0.00  0.00    +0.164 C 
ATOM     13  C   UNL     1     -11.291  -8.598  14.492  0.00  0.00    +0.181 C 
ENDROOT
BRANCH  10   3
ATOM      3  O   UNL     1     -11.147  -5.766  16.748  0.00  0.00    -0.388 OA
ATOM     27  H   UNL     1     -11.861  -5.218  16.383  0.00  0.00    +0.210 HD
ENDBRANCH  10   3
BRANCH   9   7
ATOM      7  N   UNL     1     -13.096  -6.900  14.560  0.00  0.00    -0.306 NA
ATOM     26  H   UNL     1     -13.556  -6.561  15.405  0.00  0.00    +0.123 HD
BRANCH   7  12
ATOM      4  O   UNL     1     -13.633  -3.181  12.688  0.00  0.00    -0.380 OA
ATOM     12  C   UNL     1     -13.247  -5.919  13.488  0.00  0.00    +0.058 C 
ATOM     14  C   UNL     1     -14.603  -5.215  13.598  0.00  0.00    +0.047 C 
ATOM     15  C   UNL     1     -12.117  -4.887  13.521  0.00  0.00    +0.047 C 
ATOM     17  C   UNL     1     -14.711  -4.108  12.555  0.00  0.00    +0.161 C 
ATOM     18  C   UNL     1     -12.362  -3.798  12.483  0.00  0.00    +0.161 C 
ENDBRANCH   7  12
ENDBRANCH   9   7
BRANCH  11  16
ATOM     16  C   UNL     1      -9.715  -8.493  17.676  0.00  0.00    +0.140 C 
BRANCH  16   8
ATOM      8  N   UNL     1      -8.303  -8.921  17.713  0.00  0.00    -0.187 NA
ATOM     28  H   UNL     1      -7.659  -8.391  17.114  0.00  0.00    +0.148 HD
BRANCH   8   1
ATOM      1  S   UNL     1      -7.912 -10.532  18.096  0.00  0.00    +0.058 S 
ATOM      5  O   UNL     1      -8.719 -11.428  17.289  0.00  0.00    -0.153 OA
ATOM      6  O   UNL     1      -7.879 -10.680  19.539  0.00  0.00    -0.153 OA
BRANCH   1  19
ATOM     19  C   UNL     1      -6.241 -10.643  17.529  0.00  0.00    +0.105 A 
ATOM     20  C   UNL     1      -5.267 -11.226  18.339  0.00  0.00    +0.029 A 
ATOM     21  C   UNL     1      -5.897 -10.144  16.273  0.00  0.00    +0.029 A 
ATOM     22  C   UNL     1      -3.948 -11.311  17.892  0.00  0.00    +0.005 A 
ATOM     23  C   UNL     1      -4.578 -10.229  15.826  0.00  0.00    +0.005 A 
ATOM     24  C   UNL     1      -3.603 -10.812  16.636  0.00  0.00    -0.050 A 
ATOM     25  C   UNL     1      -2.193 -10.903  16.159  0.00  0.00    +0.044 C 
ENDBRANCH   1  19
ENDBRANCH   8   1
ENDBRANCH  16   8
ENDBRANCH  11  16
TORSDOF 7
ENDMDL
MODEL 9
REMARK VINA RESULT:      -6.0     32.252     33.992
REMARK  Name = 75536700
REMARK  8 active torsions:
REMARK  status: ('A' for Active; 'I' for Inactive)
REMARK    1  A    between atoms: S_1  and  N_8
REMARK    2  A    between atoms: S_1  and  C_19
REMARK    3  A    between atoms: O_3  and  C_10
REMARK    4  A    between atoms: N_7  and  C_9
REMARK    5  A    between atoms: N_7  and  C_12
REMARK    6  A    between atoms: N_8  and  C_16
REMARK    7  A    between atoms: C_11  and  C_16
REMARK    8  A    between atoms: C_24  and  C_25
REMARK                            x       y       z     vdW  Elec       q    Type
REMARK                         _______ _______ _______ _____ _____    ______ ____
ROOT
ATOM      2  O   UNL     1      16.435   7.146  18.957  0.00  0.00    -0.371 OA
ATOM      9  C   UNL     1      14.335   7.075  20.065  0.00  0.00    +0.111 C 
ATOM     10  C   UNL     1      15.394   6.477  20.972  0.00  0.00    +0.164 C 
ATOM     11  C   UNL     1      16.662   7.071  20.374  0.00  0.00    +0.164 C 
ATOM     13  C   UNL     1      15.025   7.006  18.711  0.00  0.00    +0.181 C 
ENDROOT
BRANCH  10   3
ATOM      3  O   UNL     1      15.226   6.850  22.326  0.00  0.00    -0.388 OA
ATOM     27  H   UNL     1      14.732   6.147  22.779  0.00  0.00    +0.210 HD
ENDBRANCH  10   3
BRANCH   9   7
ATOM      7  N   UNL     1      13.070   6.359  20.093  0.00  0.00    -0.306 NA
ATOM     26  H   UNL     1      13.137   5.554  20.716  0.00  0.00    +0.123 HD
BRANCH   7  12
ATOM      4  O   UNL     1      10.735   8.767  22.617  0.00  0.00    -0.380 OA
ATOM     12  C   UNL     1      11.981   7.231  20.525  0.00  0.00    +0.058 C 
ATOM     14  C   UNL     1      11.199   6.578  21.668  0.00  0.00    +0.047 C 
ATOM     15  C   UNL     1      12.511   8.598  20.967  0.00  0.00    +0.047 C 
ATOM     17  C   UNL     1      10.140   7.537  22.201  0.00  0.00    +0.161 C 
ATOM     18  C   UNL     1      11.381   9.446  21.539  0.00  0.00    +0.161 C 
ENDBRANCH   7  12
ENDBRANCH   9   7
BRANCH  11  16
ATOM     16  C   UNL     1      17.902   6.240  20.651  0.00  0.00    +0.140 C 
BRANCH  16   8
ATOM      8  N   UNL     1      18.478   6.628  21.954  0.00  0.00    -0.187 NA
ATOM     28  H   UNL     1      17.970   7.360  22.466  0.00  0.00    +0.148 HD
BRANCH   8   1
ATOM      1  S   UNL     1      20.146   6.452  22.235  0.00  0.00    +0.058 S 
ATOM      5  O   UNL     1      20.637   5.296  21.508  0.00  0.00    -0.153 OA
ATOM      6  O   UNL     1      20.402   6.582  23.656  0.00  0.00    -0.153 OA
BRANCH   1  19
ATOM     19  C   UNL     1      20.798   7.901  21.459  0.00  0.00    +0.105 A 
ATOM     20  C   UNL     1      20.225   9.147  21.714  0.00  0.00    +0.029 A 
ATOM     21  C   UNL     1      21.883   7.797  20.589  0.00  0.00    +0.029 A 
ATOM     22  C   UNL     1      20.738  10.289  21.101  0.00  0.00    +0.005 A 
ATOM     23  C   UNL     1      22.396   8.940  19.975  0.00  0.00    +0.005 A 
ATOM     24  C   UNL     1      21.823  10.186  20.230  0.00  0.00    -0.050 A 
ATOM     25  C   UNL     1      22.371  11.408  19.573  0.00  0.00    +0.044 C 
ENDBRANCH   1  19
ENDBRANCH   8   1
ENDBRANCH  16   8
ENDBRANCH  11  16
TORSDOF 7
ENDMDL
MODEL 10
REMARK VINA RESULT:      -5.9      3.345      5.221
REMARK  Name = 75536700
REMARK  8 active torsions:
REMARK  status: ('A' for Active; 'I' for Inactive)
REMARK    1  A    between atoms: S_1  and  N_8
REMARK    2  A    between atoms: S_1  and  C_19
REMARK    3  A    between atoms: O_3  and  C_10
REMARK    4  A    between atoms: N_7  and  C_9
REMARK    5  A    between atoms: N_7  and  C_12
REMARK    6  A    between atoms: N_8  and  C_16
REMARK    7  A    between atoms: C_11  and  C_16
REMARK    8  A    between atoms: C_24  and  C_25
REMARK                            x       y       z     vdW  Elec       q    Type
REMARK                         _______ _______ _______ _____ _____    ______ ____
ROOT
ATOM      2  O   UNL     1     -13.658   1.003  30.353  0.00  0.00    -0.371 OA
ATOM      9  C   UNL     1     -15.415   1.944  29.061  0.00  0.00    +0.111 C 
ATOM     10  C   UNL     1     -15.191   2.803  30.292  0.00  0.00    +0.164 C 
ATOM     11  C   UNL     1     -13.774   2.398  30.677  0.00  0.00    +0.164 C 
ATOM     13  C   UNL     1     -14.738   0.646  29.472  0.00  0.00    +0.181 C 
ENDROOT
BRANCH  10   3
ATOM      3  O   UNL     1     -15.286   4.187  30.015  0.00  0.00    -0.388 OA
ATOM     27  H   UNL     1     -14.387   4.542  29.911  0.00  0.00    +0.210 HD
ENDBRANCH  10   3
BRANCH   9   7
ATOM      7  N   UNL     1     -16.817   1.768  28.720  0.00  0.00    -0.306 NA
ATOM     26  H   UNL     1     -17.402   2.326  29.342  0.00  0.00    +0.123 HD
BRANCH   7  12
ATOM      4  O   UNL     1     -16.221   2.145  24.582  0.00  0.00    -0.380 OA
ATOM     12  C   UNL     1     -17.072   2.143  27.332  0.00  0.00    +0.058 C 
ATOM     14  C   UNL     1     -15.962   3.064  26.817  0.00  0.00    +0.047 C 
ATOM     15  C   UNL     1     -17.184   0.906  26.437  0.00  0.00    +0.047 C 
ATOM     17  C   UNL     1     -16.162   3.357  25.334  0.00  0.00    +0.161 C 
ATOM     18  C   UNL     1     -17.317   1.317  24.975  0.00  0.00    +0.161 C 
ENDBRANCH   7  12
ENDBRANCH   9   7
BRANCH  11  16
ATOM     16  C   UNL     1     -13.470   2.609  32.150  0.00  0.00    +0.140 C 
BRANCH  16   8
ATOM      8  N   UNL     1     -13.389   4.055  32.437  0.00  0.00    -0.187 NA
ATOM     28  H   UNL     1     -12.462   4.482  32.321  0.00  0.00    +0.148 HD
BRANCH   8   1
ATOM      1  S   UNL     1     -14.478   4.768  33.532  0.00  0.00    +0.058 S 
ATOM      5  O   UNL     1     -14.459   4.029  34.780  0.00  0.00    -0.153 OA
ATOM      6  O   UNL     1     -15.734   5.019  32.852  0.00  0.00    -0.153 OA
BRANCH   1  19
ATOM     19  C   UNL     1     -13.724   6.341  33.819  0.00  0.00    +0.105 A 
ATOM     20  C   UNL     1     -13.443   6.753  35.122  0.00  0.00    +0.029 A 
ATOM     21  C   UNL     1     -13.414   7.172  32.743  0.00  0.00    +0.029 A 
ATOM     22  C   UNL     1     -12.851   7.995  35.349  0.00  0.00    +0.005 A 
ATOM     23  C   UNL     1     -12.822   8.415  32.970  0.00  0.00    +0.005 A 
ATOM     24  C   UNL     1     -12.541   8.827  34.273  0.00  0.00    -0.050 A 
ATOM     25  C   UNL     1     -11.908  10.155  34.516  0.00  0.00    +0.044 C 
ENDBRANCH   1  19
ENDBRANCH   8   1
ENDBRANCH  16   8
ENDBRANCH  11  16
TORSDOF 7
ENDMDL
