MODEL 1
REMARK VINA RESULT:      -7.6      0.000      0.000
REMARK  Name = 56773986
REMARK  13 active torsions:
REMARK  status: ('A' for Active; 'I' for Inactive)
REMARK    1  A    between atoms: N_4  and  C_9
REMARK    2  A    between atoms: N_4  and  C_14
REMARK    3  A    between atoms: N_4  and  C_15
REMARK    4  A    between atoms: N_6  and  C_23
REMARK    5  A    between atoms: N_6  and  C_28
REMARK    6  A    between atoms: N_6  and  C_29
REMARK    7  A    between atoms: C_7  and  C_12
REMARK    8  A    between atoms: C_7  and  C_13
REMARK    9  A    between atoms: C_8  and  C_11
REMARK   10  A    between atoms: C_11  and  C_16
REMARK   11  A    between atoms: C_14  and  C_17
REMARK   12  A    between atoms: C_15  and  C_18
REMARK   13  A    between atoms: C_20  and  C_23
REMARK                            x       y       z     vdW  Elec       q    Type
REMARK                         _______ _______ _______ _____ _____    ______ ____
ROOT
ATOM      7  C   UNL     1      14.759   8.453  20.983  0.00  0.00    -0.016 C 
ATOM      8  C   UNL     1      15.640   7.209  20.737  0.00  0.00    +0.004 C 
ATOM      9  C   UNL     1      13.537   7.532  20.779  0.00  0.00    +0.064 C 
ATOM     10  C   UNL     1      14.457   6.627  19.935  0.00  0.00    +0.024 C 
ATOM     12  C   UNL     1      14.947   9.071  22.352  0.00  0.00    +0.013 C 
ATOM     13  C   UNL     1      14.842   9.536  19.922  0.00  0.00    +0.013 C 
ENDROOT
BRANCH   9   4
ATOM      4  N   UNL     1      12.541   8.159  19.894  0.00  0.00    -0.285 NA
BRANCH   4  14
ATOM     14  C   UNL     1      12.349   7.316  18.714  0.00  0.00    +0.159 C 
BRANCH  14  17
ATOM      2  O   UNL     1      10.792   8.035  16.987  0.00  0.00    -0.467 OA
ATOM     17  C   UNL     1      12.054   8.131  17.484  0.00  0.00    +0.119 A 
ATOM     21  C   UNL     1      12.810   8.989  16.719  0.00  0.00    +0.046 A 
ATOM     24  C   UNL     1      11.959   9.448  15.686  0.00  0.00    +0.041 A 
ATOM     26  C   UNL     1      10.742   8.840  15.893  0.00  0.00    +0.195 A 
ENDBRANCH  14  17
ENDBRANCH   4  14
BRANCH   4  15
ATOM     15  C   UNL     1      11.283   8.317  20.623  0.00  0.00    +0.159 C 
BRANCH  15  18
ATOM      3  O   UNL     1      10.821   9.392  22.758  0.00  0.00    -0.467 OA
ATOM     18  C   UNL     1      11.289   9.547  21.492  0.00  0.00    +0.119 A 
ATOM     22  C   UNL     1      11.682  10.848  21.277  0.00  0.00    +0.046 A 
ATOM     25  C   UNL     1      11.439  11.537  22.489  0.00  0.00    +0.041 A 
ATOM     27  C   UNL     1      10.915  10.608  23.359  0.00  0.00    +0.195 A 
ENDBRANCH  15  18
ENDBRANCH   4  15
ENDBRANCH   9   4
BRANCH   8  11
ATOM     11  C   UNL     1      16.905   7.410  19.936  0.00  0.00    +0.063 C 
BRANCH  11  16
ATOM      1  O   UNL     1      19.537   7.437  22.405  0.00  0.00    -0.358 OA
ATOM      5  N   UNL     1      18.371   7.946  21.843  0.00  0.00    -0.083 NA
ATOM     16  C   UNL     1      18.119   7.154  20.797  0.00  0.00    +0.084 A 
ATOM     19  C   UNL     1      19.080   6.138  20.652  0.00  0.00    +0.072 A 
ATOM     20  C   UNL     1      19.949   6.361  21.687  0.00  0.00    +0.155 A 
BRANCH  20  23
ATOM     23  C   UNL     1      21.174   5.697  22.147  0.00  0.00    +0.181 C 
BRANCH  23   6
ATOM      6  N   UNL     1      22.272   5.761  21.167  0.00  0.00    -0.326 N 
ATOM     28  C   UNL     1      22.521   7.035  20.521  0.00  0.00    +0.129 C 
BRANCH   6  29
ATOM     29  C   UNL     1      23.024   4.631  20.880  0.00  0.00    +0.030 A 
ATOM     30  C   UNL     1      22.563   3.371  21.260  0.00  0.00    +0.023 A 
ATOM     31  C   UNL     1      24.242   4.755  20.211  0.00  0.00    +0.023 A 
ATOM     32  C   UNL     1      23.319   2.235  20.972  0.00  0.00    +0.002 A 
ATOM     33  C   UNL     1      24.998   3.620  19.922  0.00  0.00    +0.002 A 
ATOM     34  C   UNL     1      24.536   2.359  20.302  0.00  0.00    +0.000 A 
ENDBRANCH   6  29
ENDBRANCH  23   6
ENDBRANCH  20  23
ENDBRANCH  11  16
ENDBRANCH   8  11
TORSDOF 10
ENDMDL
MODEL 2
REMARK VINA RESULT:      -7.3      1.597      2.093
REMARK  Name = 56773986
REMARK  13 active torsions:
REMARK  status: ('A' for Active; 'I' for Inactive)
REMARK    1  A    between atoms: N_4  and  C_9
REMARK    2  A    between atoms: N_4  and  C_14
REMARK    3  A    between atoms: N_4  and  C_15
REMARK    4  A    between atoms: N_6  and  C_23
REMARK    5  A    between atoms: N_6  and  C_28
REMARK    6  A    between atoms: N_6  and  C_29
REMARK    7  A    between atoms: C_7  and  C_12
REMARK    8  A    between atoms: C_7  and  C_13
REMARK    9  A    between atoms: C_8  and  C_11
REMARK   10  A    between atoms: C_11  and  C_16
REMARK   11  A    between atoms: C_14  and  C_17
REMARK   12  A    between atoms: C_15  and  C_18
REMARK   13  A    between atoms: C_20  and  C_23
REMARK                            x       y       z     vdW  Elec       q    Type
REMARK                         _______ _______ _______ _____ _____    ______ ____
ROOT
ATOM      7  C   UNL     1      15.322   7.654  20.880  0.00  0.00    -0.016 C 
ATOM      8  C   UNL     1      16.626   6.885  20.578  0.00  0.00    +0.004 C 
ATOM      9  C   UNL     1      14.657   6.804  19.777  0.00  0.00    +0.064 C 
ATOM     10  C   UNL     1      16.062   6.640  19.163  0.00  0.00    +0.024 C 
ATOM     12  C   UNL     1      14.823   7.474  22.298  0.00  0.00    +0.013 C 
ATOM     13  C   UNL     1      15.336   9.132  20.530  0.00  0.00    +0.013 C 
ENDROOT
BRANCH   9   4
ATOM      4  N   UNL     1      13.838   7.639  18.882  0.00  0.00    -0.285 NA
BRANCH   4  14
ATOM     14  C   UNL     1      14.348   7.521  17.516  0.00  0.00    +0.159 C 
BRANCH  14  17
ATOM      2  O   UNL     1      12.711   8.559  16.045  0.00  0.00    -0.467 OA
ATOM     17  C   UNL     1      13.920   8.679  16.655  0.00  0.00    +0.119 A 
ATOM     21  C   UNL     1      14.505   9.882  16.337  0.00  0.00    +0.046 A 
ATOM     24  C   UNL     1      13.599  10.545  15.475  0.00  0.00    +0.041 A 
ATOM     26  C   UNL     1      12.523   9.700  15.329  0.00  0.00    +0.195 A 
ENDBRANCH  14  17
ENDBRANCH   4  14
BRANCH   4  15
ATOM     15  C   UNL     1      12.446   7.196  18.952  0.00  0.00    +0.159 C 
BRANCH  15  18
ATOM      3  O   UNL     1      11.072   6.875  20.936  0.00  0.00    -0.467 OA
ATOM     18  C   UNL     1      11.736   7.765  20.151  0.00  0.00    +0.119 A 
ATOM     22  C   UNL     1      11.605   9.041  20.649  0.00  0.00    +0.046 A 
ATOM     25  C   UNL     1      10.811   8.928  21.815  0.00  0.00    +0.041 A 
ATOM     27  C   UNL     1      10.512   7.591  21.947  0.00  0.00    +0.195 A 
ENDBRANCH  15  18
ENDBRANCH   4  15
ENDBRANCH   9   4
BRANCH   8  11
ATOM     11  C   UNL     1      17.914   7.675  20.613  0.00  0.00    +0.063 C 
BRANCH  11  16
ATOM      1  O   UNL     1      20.511   5.195  20.971  0.00  0.00    -0.358 OA
ATOM      5  N   UNL     1      19.459   5.784  20.278  0.00  0.00    -0.083 NA
ATOM     16  C   UNL     1      19.058   6.795  21.055  0.00  0.00    +0.084 A 
ATOM     19  C   UNL     1      19.813   6.891  22.237  0.00  0.00    +0.072 A 
ATOM     20  C   UNL     1      20.712   5.863  22.135  0.00  0.00    +0.155 A 
BRANCH  20  23
ATOM     23  C   UNL     1      21.794   5.369  22.995  0.00  0.00    +0.181 C 
BRANCH  23   6
ATOM      6  N   UNL     1      23.046   5.111  22.263  0.00  0.00    -0.326 N 
ATOM     28  C   UNL     1      23.799   6.259  21.797  0.00  0.00    +0.129 C 
BRANCH   6  29
ATOM     29  C   UNL     1      23.469   3.810  22.031  0.00  0.00    +0.030 A 
ATOM     30  C   UNL     1      23.817   3.410  20.742  0.00  0.00    +0.023 A 
ATOM     31  C   UNL     1      23.545   2.903  23.088  0.00  0.00    +0.023 A 
ATOM     32  C   UNL     1      24.241   2.102  20.509  0.00  0.00    +0.002 A 
ATOM     33  C   UNL     1      23.969   1.595  22.856  0.00  0.00    +0.002 A 
ATOM     34  C   UNL     1      24.318   1.195  21.566  0.00  0.00    +0.000 A 
ENDBRANCH   6  29
ENDBRANCH  23   6
ENDBRANCH  20  23
ENDBRANCH  11  16
ENDBRANCH   8  11
TORSDOF 10
ENDMDL
MODEL 3
REMARK VINA RESULT:      -6.8      3.746     10.405
REMARK  Name = 56773986
REMARK  13 active torsions:
REMARK  status: ('A' for Active; 'I' for Inactive)
REMARK    1  A    between atoms: N_4  and  C_9
REMARK    2  A    between atoms: N_4  and  C_14
REMARK    3  A    between atoms: N_4  and  C_15
REMARK    4  A    between atoms: N_6  and  C_23
REMARK    5  A    between atoms: N_6  and  C_28
REMARK    6  A    between atoms: N_6  and  C_29
REMARK    7  A    between atoms: C_7  and  C_12
REMARK    8  A    between atoms: C_7  and  C_13
REMARK    9  A    between atoms: C_8  and  C_11
REMARK   10  A    between atoms: C_11  and  C_16
REMARK   11  A    between atoms: C_14  and  C_17
REMARK   12  A    between atoms: C_15  and  C_18
REMARK   13  A    between atoms: C_20  and  C_23
REMARK                            x       y       z     vdW  Elec       q    Type
REMARK                         _______ _______ _______ _____ _____    ______ ____
ROOT
ATOM      7  C   UNL     1      13.089   8.725  18.521  0.00  0.00    -0.016 C 
ATOM      8  C   UNL     1      13.657   9.718  17.484  0.00  0.00    +0.004 C 
ATOM      9  C   UNL     1      13.743   9.605  19.607  0.00  0.00    +0.064 C 
ATOM     10  C   UNL     1      14.743  10.064  18.526  0.00  0.00    +0.024 C 
ATOM     12  C   UNL     1      11.578   8.633  18.512  0.00  0.00    +0.013 C 
ATOM     13  C   UNL     1      13.683   7.328  18.485  0.00  0.00    +0.013 C 
ENDROOT
BRANCH   9   4
ATOM      4  N   UNL     1      14.457   8.783  20.599  0.00  0.00    -0.285 NA
BRANCH   4  14
ATOM     14  C   UNL     1      15.838   9.252  20.706  0.00  0.00    +0.159 C 
BRANCH  14  17
ATOM      2  O   UNL     1      17.815   8.189  21.649  0.00  0.00    -0.467 OA
ATOM     17  C   UNL     1      16.818   8.109  20.728  0.00  0.00    +0.119 A 
ATOM     21  C   UNL     1      16.932   6.953  19.992  0.00  0.00    +0.046 A 
ATOM     24  C   UNL     1      18.072   6.279  20.492  0.00  0.00    +0.041 A 
ATOM     26  C   UNL     1      18.573   7.071  21.499  0.00  0.00    +0.195 A 
ENDBRANCH  14  17
ENDBRANCH   4  14
BRANCH   4  15
ATOM     15  C   UNL     1      13.777   8.890  21.890  0.00  0.00    +0.159 C 
BRANCH  15  18
ATOM      3  O   UNL     1      12.521   6.838  21.510  0.00  0.00    -0.467 OA
ATOM     18  C   UNL     1      12.471   8.140  21.899  0.00  0.00    +0.119 A 
ATOM     22  C   UNL     1      11.184   8.497  22.229  0.00  0.00    +0.046 A 
ATOM     25  C   UNL     1      10.392   7.341  22.030  0.00  0.00    +0.041 A 
ATOM     27  C   UNL     1      11.251   6.359  21.592  0.00  0.00    +0.195 A 
ENDBRANCH  15  18
ENDBRANCH   4  15
ENDBRANCH   9   4
BRANCH   8  11
ATOM     11  C   UNL     1      14.186   9.137  16.194  0.00  0.00    +0.063 C 
BRANCH  11  16
ATOM      1  O   UNL     1      15.227  11.289  13.490  0.00  0.00    -0.358 OA
ATOM      5  N   UNL     1      15.361  10.153  14.280  0.00  0.00    -0.083 NA
ATOM     16  C   UNL     1      14.359  10.225  15.160  0.00  0.00    +0.084 A 
ATOM     19  C   UNL     1      13.567  11.371  14.975  0.00  0.00    +0.072 A 
ATOM     20  C   UNL     1      14.155  12.006  13.913  0.00  0.00    +0.155 A 
BRANCH  20  23
ATOM     23  C   UNL     1      13.867  13.246  13.183  0.00  0.00    +0.181 C 
BRANCH  23   6
ATOM      6  N   UNL     1      12.711  13.131  12.276  0.00  0.00    -0.326 N 
ATOM     28  C   UNL     1      12.978  12.804  10.889  0.00  0.00    +0.129 C 
BRANCH   6  29
ATOM     29  C   UNL     1      11.424  13.339  12.749  0.00  0.00    +0.030 A 
ATOM     30  C   UNL     1      11.058  14.588  13.248  0.00  0.00    +0.023 A 
ATOM     31  C   UNL     1      10.496  12.297  12.727  0.00  0.00    +0.023 A 
ATOM     32  C   UNL     1       9.763  14.797  13.724  0.00  0.00    +0.002 A 
ATOM     33  C   UNL     1       9.202  12.506  13.203  0.00  0.00    +0.002 A 
ATOM     34  C   UNL     1       8.835  13.756  13.701  0.00  0.00    +0.000 A 
ENDBRANCH   6  29
ENDBRANCH  23   6
ENDBRANCH  20  23
ENDBRANCH  11  16
ENDBRANCH   8  11
TORSDOF 10
ENDMDL
MODEL 4
REMARK VINA RESULT:      -6.8      2.252     10.794
REMARK  Name = 56773986
REMARK  13 active torsions:
REMARK  status: ('A' for Active; 'I' for Inactive)
REMARK    1  A    between atoms: N_4  and  C_9
REMARK    2  A    between atoms: N_4  and  C_14
REMARK    3  A    between atoms: N_4  and  C_15
REMARK    4  A    between atoms: N_6  and  C_23
REMARK    5  A    between atoms: N_6  and  C_28
REMARK    6  A    between atoms: N_6  and  C_29
REMARK    7  A    between atoms: C_7  and  C_12
REMARK    8  A    between atoms: C_7  and  C_13
REMARK    9  A    between atoms: C_8  and  C_11
REMARK   10  A    between atoms: C_11  and  C_16
REMARK   11  A    between atoms: C_14  and  C_17
REMARK   12  A    between atoms: C_15  and  C_18
REMARK   13  A    between atoms: C_20  and  C_23
REMARK                            x       y       z     vdW  Elec       q    Type
REMARK                         _______ _______ _______ _____ _____    ______ ____
ROOT
ATOM      7  C   UNL     1      19.937   7.186  21.442  0.00  0.00    -0.016 C 
ATOM      8  C   UNL     1      18.794   6.720  20.517  0.00  0.00    +0.004 C 
ATOM      9  C   UNL     1      20.858   6.225  20.661  0.00  0.00    +0.064 C 
ATOM     10  C   UNL     1      19.592   5.414  20.318  0.00  0.00    +0.024 C 
ATOM     12  C   UNL     1      20.231   8.668  21.348  0.00  0.00    +0.013 C 
ATOM     13  C   UNL     1      19.804   6.786  22.902  0.00  0.00    +0.013 C 
ENDROOT
BRANCH   9   4
ATOM      4  N   UNL     1      21.700   5.434  21.574  0.00  0.00    -0.285 NA
BRANCH   4  14
ATOM     14  C   UNL     1      21.687   4.035  21.146  0.00  0.00    +0.159 C 
BRANCH  14  17
ATOM      2  O   UNL     1      22.066   3.143  23.379  0.00  0.00    -0.467 OA
ATOM     17  C   UNL     1      22.472   3.156  22.082  0.00  0.00    +0.119 A 
ATOM     21  C   UNL     1      23.556   2.326  21.908  0.00  0.00    +0.046 A 
ATOM     24  C   UNL     1      23.833   1.769  23.178  0.00  0.00    +0.041 A 
ATOM     26  C   UNL     1      22.899   2.295  24.040  0.00  0.00    +0.195 A 
ENDBRANCH  14  17
ENDBRANCH   4  14
BRANCH   4  15
ATOM     15  C   UNL     1      23.062   5.966  21.553  0.00  0.00    +0.159 C 
BRANCH  15  18
ATOM      3  O   UNL     1      23.232   6.249  23.966  0.00  0.00    -0.467 OA
ATOM     18  C   UNL     1      23.341   6.840  22.747  0.00  0.00    +0.119 A 
ATOM     22  C   UNL     1      23.697   8.162  22.881  0.00  0.00    +0.046 A 
ATOM     25  C   UNL     1      23.814   8.398  24.272  0.00  0.00    +0.041 A 
ATOM     27  C   UNL     1      23.522   7.204  24.889  0.00  0.00    +0.195 A 
ENDBRANCH  15  18
ENDBRANCH   4  15
ENDBRANCH   9   4
BRANCH   8  11
ATOM     11  C   UNL     1      17.432   6.534  21.145  0.00  0.00    +0.063 C 
BRANCH  11  16
ATOM      1  O   UNL     1      14.850   7.059  18.679  0.00  0.00    -0.358 OA
ATOM      5  N   UNL     1      15.779   6.261  19.337  0.00  0.00    -0.083 NA
ATOM     16  C   UNL     1      16.355   7.069  20.233  0.00  0.00    +0.084 A 
ATOM     19  C   UNL     1      15.833   8.374  20.187  0.00  0.00    +0.072 A 
ATOM     20  C   UNL     1      14.891   8.314  19.194  0.00  0.00    +0.155 A 
BRANCH  20  23
ATOM     23  C   UNL     1      13.967   9.293  18.610  0.00  0.00    +0.181 C 
BRANCH  23   6
ATOM      6  N   UNL     1      12.551   8.914  18.757  0.00  0.00    -0.326 N 
ATOM     28  C   UNL     1      11.828   8.546  17.554  0.00  0.00    +0.129 C 
BRANCH   6  29
ATOM     29  C   UNL     1      11.947   8.922  20.005  0.00  0.00    +0.030 A 
ATOM     30  C   UNL     1      11.901  10.100  20.750  0.00  0.00    +0.023 A 
ATOM     31  C   UNL     1      11.386   7.751  20.516  0.00  0.00    +0.023 A 
ATOM     32  C   UNL     1      11.294  10.108  22.006  0.00  0.00    +0.002 A 
ATOM     33  C   UNL     1      10.779   7.759  21.772  0.00  0.00    +0.002 A 
ATOM     34  C   UNL     1      10.733   8.937  22.517  0.00  0.00    +0.000 A 
ENDBRANCH   6  29
ENDBRANCH  23   6
ENDBRANCH  20  23
ENDBRANCH  11  16
ENDBRANCH   8  11
TORSDOF 10
ENDMDL
MODEL 5
REMARK VINA RESULT:      -6.7      4.304      7.867
REMARK  Name = 56773986
REMARK  13 active torsions:
REMARK  status: ('A' for Active; 'I' for Inactive)
REMARK    1  A    between atoms: N_4  and  C_9
REMARK    2  A    between atoms: N_4  and  C_14
REMARK    3  A    between atoms: N_4  and  C_15
REMARK    4  A    between atoms: N_6  and  C_23
REMARK    5  A    between atoms: N_6  and  C_28
REMARK    6  A    between atoms: N_6  and  C_29
REMARK    7  A    between atoms: C_7  and  C_12
REMARK    8  A    between atoms: C_7  and  C_13
REMARK    9  A    between atoms: C_8  and  C_11
REMARK   10  A    between atoms: C_11  and  C_16
REMARK   11  A    between atoms: C_14  and  C_17
REMARK   12  A    between atoms: C_15  and  C_18
REMARK   13  A    between atoms: C_20  and  C_23
REMARK                            x       y       z     vdW  Elec       q    Type
REMARK                         _______ _______ _______ _____ _____    ______ ____
ROOT
ATOM      7  C   UNL     1      12.713   8.727  18.416  0.00  0.00    -0.016 C 
ATOM      8  C   UNL     1      13.203   9.714  17.336  0.00  0.00    +0.004 C 
ATOM      9  C   UNL     1      13.448   9.608  19.447  0.00  0.00    +0.064 C 
ATOM     10  C   UNL     1      14.365  10.060  18.292  0.00  0.00    +0.024 C 
ATOM     12  C   UNL     1      11.205   8.639  18.520  0.00  0.00    +0.013 C 
ATOM     13  C   UNL     1      13.298   7.327  18.340  0.00  0.00    +0.013 C 
ENDROOT
BRANCH   9   4
ATOM      4  N   UNL     1      14.232   8.788  20.386  0.00  0.00    -0.285 NA
BRANCH   4  14
ATOM     14  C   UNL     1      15.614   9.266  20.402  0.00  0.00    +0.159 C 
BRANCH  14  17
ATOM      2  O   UNL     1      17.565   8.257  21.451  0.00  0.00    -0.467 OA
ATOM     17  C   UNL     1      16.599   8.132  20.503  0.00  0.00    +0.119 A 
ATOM     21  C   UNL     1      16.743   6.946  19.820  0.00  0.00    +0.046 A 
ATOM     24  C   UNL     1      17.869   6.302  20.384  0.00  0.00    +0.041 A 
ATOM     26  C   UNL     1      18.334   7.138  21.373  0.00  0.00    +0.195 A 
ENDBRANCH  14  17
ENDBRANCH   4  14
BRANCH   4  15
ATOM     15  C   UNL     1      13.638   8.885  21.719  0.00  0.00    +0.159 C 
BRANCH  15  18
ATOM      3  O   UNL     1      12.444   6.778  21.470  0.00  0.00    -0.467 OA
ATOM     18  C   UNL     1      12.366   8.088  21.826  0.00  0.00    +0.119 A 
ATOM     22  C   UNL     1      11.087   8.406  22.222  0.00  0.00    +0.046 A 
ATOM     25  C   UNL     1      10.331   7.215  22.101  0.00  0.00    +0.041 A 
ATOM     27  C   UNL     1      11.201   6.254  21.640  0.00  0.00    +0.195 A 
ENDBRANCH  15  18
ENDBRANCH   4  15
ENDBRANCH   9   4
BRANCH   8  11
ATOM     11  C   UNL     1      13.633   9.127  16.011  0.00  0.00    +0.063 C 
BRANCH  11  16
ATOM      1  O   UNL     1      14.108  11.873  13.718  0.00  0.00    -0.358 OA
ATOM      5  N   UNL     1      13.305  11.002  14.446  0.00  0.00    -0.083 NA
ATOM     16  C   UNL     1      14.159  10.212  15.102  0.00  0.00    +0.084 A 
ATOM     19  C   UNL     1      15.500  10.534  14.831  0.00  0.00    +0.072 A 
ATOM     20  C   UNL     1      15.413  11.584  13.956  0.00  0.00    +0.155 A 
BRANCH  20  23
ATOM     23  C   UNL     1      16.404  12.415  13.262  0.00  0.00    +0.181 C 
BRANCH  23   6
ATOM      6  N   UNL     1      17.196  13.259  14.174  0.00  0.00    -0.326 N 
ATOM     28  C   UNL     1      16.711  14.599  14.437  0.00  0.00    +0.129 C 
BRANCH   6  29
ATOM     29  C   UNL     1      18.365  12.774  14.742  0.00  0.00    +0.030 A 
ATOM     30  C   UNL     1      19.167  11.880  14.033  0.00  0.00    +0.023 A 
ATOM     31  C   UNL     1      18.737  13.179  16.024  0.00  0.00    +0.023 A 
ATOM     32  C   UNL     1      20.342  11.393  14.605  0.00  0.00    +0.002 A 
ATOM     33  C   UNL     1      19.912  12.692  16.596  0.00  0.00    +0.002 A 
ATOM     34  C   UNL     1      20.715  11.799  15.887  0.00  0.00    +0.000 A 
ENDBRANCH   6  29
ENDBRANCH  23   6
ENDBRANCH  20  23
ENDBRANCH  11  16
ENDBRANCH   8  11
TORSDOF 10
ENDMDL
MODEL 6
REMARK VINA RESULT:      -6.5     27.357     30.022
REMARK  Name = 56773986
REMARK  13 active torsions:
REMARK  status: ('A' for Active; 'I' for Inactive)
REMARK    1  A    between atoms: N_4  and  C_9
REMARK    2  A    between atoms: N_4  and  C_14
REMARK    3  A    between atoms: N_4  and  C_15
REMARK    4  A    between atoms: N_6  and  C_23
REMARK    5  A    between atoms: N_6  and  C_28
REMARK    6  A    between atoms: N_6  and  C_29
REMARK    7  A    between atoms: C_7  and  C_12
REMARK    8  A    between atoms: C_7  and  C_13
REMARK    9  A    between atoms: C_8  and  C_11
REMARK   10  A    between atoms: C_11  and  C_16
REMARK   11  A    between atoms: C_14  and  C_17
REMARK   12  A    between atoms: C_15  and  C_18
REMARK   13  A    between atoms: C_20  and  C_23
REMARK                            x       y       z     vdW  Elec       q    Type
REMARK                         _______ _______ _______ _____ _____    ______ ____
ROOT
ATOM      7  C   UNL     1      -6.113 -10.632  16.998  0.00  0.00    -0.016 C 
ATOM      8  C   UNL     1      -4.775 -10.676  17.766  0.00  0.00    +0.004 C 
ATOM      9  C   UNL     1      -6.792 -10.336  18.352  0.00  0.00    +0.064 C 
ATOM     10  C   UNL     1      -5.596 -11.046  19.019  0.00  0.00    +0.024 C 
ATOM     12  C   UNL     1      -6.171  -9.554  15.936  0.00  0.00    +0.013 C 
ATOM     13  C   UNL     1      -6.573 -11.953  16.405  0.00  0.00    +0.013 C 
ENDROOT
BRANCH   9   4
ATOM      4  N   UNL     1      -7.998 -11.161  18.534  0.00  0.00    -0.285 NA
BRANCH   4  14
ATOM     14  C   UNL     1      -7.830 -12.003  19.717  0.00  0.00    +0.159 C 
BRANCH  14  17
ATOM      2  O   UNL     1      -8.558 -14.102  18.722  0.00  0.00    -0.467 OA
ATOM     17  C   UNL     1      -8.763 -13.184  19.703  0.00  0.00    +0.119 A 
ATOM     21  C   UNL     1      -9.823 -13.556  20.498  0.00  0.00    +0.046 A 
ATOM     24  C   UNL     1     -10.299 -14.779  19.971  0.00  0.00    +0.041 A 
ATOM     26  C   UNL     1      -9.497 -15.070  18.892  0.00  0.00    +0.195 A 
ENDBRANCH  14  17
ENDBRANCH   4  14
BRANCH   4  15
ATOM     15  C   UNL     1      -9.160 -10.285  18.686  0.00  0.00    +0.159 C 
BRANCH  15  18
ATOM      3  O   UNL     1      -9.437  -8.208  17.446  0.00  0.00    -0.467 OA
ATOM     18  C   UNL     1      -9.491  -9.565  17.406  0.00  0.00    +0.119 A 
ATOM     22  C   UNL     1      -9.852  -9.998  16.150  0.00  0.00    +0.046 A 
ATOM     25  C   UNL     1     -10.030  -8.831  15.369  0.00  0.00    +0.041 A 
ATOM     27  C   UNL     1      -9.767  -7.768  16.203  0.00  0.00    +0.195 A 
ENDBRANCH  15  18
ENDBRANCH   4  15
ENDBRANCH   9   4
BRANCH   8  11
ATOM     11  C   UNL     1      -3.771 -11.722  17.340  0.00  0.00    +0.063 C 
BRANCH  11  16
ATOM      1  O   UNL     1      -1.640 -10.148  14.890  0.00  0.00    -0.358 OA
ATOM      5  N   UNL     1      -2.111 -10.311  16.188  0.00  0.00    -0.083 NA
ATOM     16  C   UNL     1      -3.036 -11.272  16.101  0.00  0.00    +0.084 A 
ATOM     19  C   UNL     1      -3.189 -11.748  14.787  0.00  0.00    +0.072 A 
ATOM     20  C   UNL     1      -2.290 -11.009  14.065  0.00  0.00    +0.155 A 
BRANCH  20  23
ATOM     23  C   UNL     1      -1.911 -10.969  12.648  0.00  0.00    +0.181 C 
BRANCH  23   6
ATOM      6  N   UNL     1      -3.023 -11.305  11.740  0.00  0.00    -0.326 N 
ATOM     28  C   UNL     1      -3.250 -12.707  11.449  0.00  0.00    +0.129 C 
BRANCH   6  29
ATOM     29  C   UNL     1      -3.806 -10.302  11.188  0.00  0.00    +0.030 A 
ATOM     30  C   UNL     1      -4.943  -9.856  11.860  0.00  0.00    +0.023 A 
ATOM     31  C   UNL     1      -3.456  -9.742   9.959  0.00  0.00    +0.023 A 
ATOM     32  C   UNL     1      -5.730  -8.847  11.304  0.00  0.00    +0.002 A 
ATOM     33  C   UNL     1      -4.243  -8.734   9.403  0.00  0.00    +0.002 A 
ATOM     34  C   UNL     1      -5.380  -8.286  10.076  0.00  0.00    +0.000 A 
ENDBRANCH   6  29
ENDBRANCH  23   6
ENDBRANCH  20  23
ENDBRANCH  11  16
ENDBRANCH   8  11
TORSDOF 10
ENDMDL
MODEL 7
REMARK VINA RESULT:      -6.4     27.428     30.077
REMARK  Name = 56773986
REMARK  13 active torsions:
REMARK  status: ('A' for Active; 'I' for Inactive)
REMARK    1  A    between atoms: N_4  and  C_9
REMARK    2  A    between atoms: N_4  and  C_14
REMARK    3  A    between atoms: N_4  and  C_15
REMARK    4  A    between atoms: N_6  and  C_23
REMARK    5  A    between atoms: N_6  and  C_28
REMARK    6  A    between atoms: N_6  and  C_29
REMARK    7  A    between atoms: C_7  and  C_12
REMARK    8  A    between atoms: C_7  and  C_13
REMARK    9  A    between atoms: C_8  and  C_11
REMARK   10  A    between atoms: C_11  and  C_16
REMARK   11  A    between atoms: C_14  and  C_17
REMARK   12  A    between atoms: C_15  and  C_18
REMARK   13  A    between atoms: C_20  and  C_23
REMARK                            x       y       z     vdW  Elec       q    Type
REMARK                         _______ _______ _______ _____ _____    ______ ____
ROOT
ATOM      7  C   UNL     1      -7.112 -11.353  17.458  0.00  0.00    -0.016 C 
ATOM      8  C   UNL     1      -5.923 -11.328  16.475  0.00  0.00    +0.004 C 
ATOM      9  C   UNL     1      -8.034 -11.269  16.224  0.00  0.00    +0.064 C 
ATOM     10  C   UNL     1      -6.857 -10.601  15.485  0.00  0.00    +0.024 C 
ATOM     12  C   UNL     1      -7.181 -12.610  18.299  0.00  0.00    +0.013 C 
ATOM     13  C   UNL     1      -7.248 -10.134  18.355  0.00  0.00    +0.013 C 
ENDROOT
BRANCH   9   4
ATOM      4  N   UNL     1      -9.101 -10.273  16.422  0.00  0.00    -0.285 NA
BRANCH   4  14
ATOM     14  C   UNL     1      -9.237  -9.469  15.208  0.00  0.00    +0.159 C 
BRANCH  14  17
ATOM      2  O   UNL     1     -11.049  -8.002  14.509  0.00  0.00    -0.467 OA
ATOM     17  C   UNL     1     -10.087  -8.248  15.437  0.00  0.00    +0.119 A 
ATOM     21  C   UNL     1     -10.106  -7.285  16.420  0.00  0.00    +0.046 A 
ATOM     24  C   UNL     1     -11.147  -6.391  16.074  0.00  0.00    +0.041 A 
ATOM     26  C   UNL     1     -11.691  -6.870  14.905  0.00  0.00    +0.195 A 
ENDBRANCH  14  17
ENDBRANCH   4  14
BRANCH   4  15
ATOM     15  C   UNL     1     -10.354 -10.965  16.724  0.00  0.00    +0.159 C 
BRANCH  15  18
ATOM      3  O   UNL     1     -10.958 -11.961  18.862  0.00  0.00    -0.467 OA
ATOM     18  C   UNL     1     -10.744 -10.811  18.170  0.00  0.00    +0.119 A 
ATOM     22  C   UNL     1     -10.940  -9.716  18.980  0.00  0.00    +0.046 A 
ATOM     25  C   UNL     1     -11.297 -10.226  20.251  0.00  0.00    +0.041 A 
ATOM     27  C   UNL     1     -11.294 -11.597  20.128  0.00  0.00    +0.195 A 
ENDBRANCH  15  18
ENDBRANCH   4  15
ENDBRANCH   9   4
BRANCH   8  11
ATOM     11  C   UNL     1      -4.705 -10.534  16.888  0.00  0.00    +0.063 C 
BRANCH  11  16
ATOM      1  O   UNL     1      -1.612 -10.856  15.057  0.00  0.00    -0.358 OA
ATOM      5  N   UNL     1      -2.337 -10.737  16.237  0.00  0.00    -0.083 NA
ATOM     16  C   UNL     1      -3.614 -10.668  15.853  0.00  0.00    +0.084 A 
ATOM     19  C   UNL     1      -3.756 -10.738  14.456  0.00  0.00    +0.072 A 
ATOM     20  C   UNL     1      -2.468 -10.856  14.003  0.00  0.00    +0.155 A 
BRANCH  20  23
ATOM     23  C   UNL     1      -1.866 -10.975  12.670  0.00  0.00    +0.181 C 
BRANCH  23   6
ATOM      6  N   UNL     1      -2.716 -11.704  11.712  0.00  0.00    -0.326 N 
ATOM     28  C   UNL     1      -2.862 -13.134  11.899  0.00  0.00    +0.129 C 
BRANCH   6  29
ATOM     29  C   UNL     1      -3.338 -11.031  10.671  0.00  0.00    +0.030 A 
ATOM     30  C   UNL     1      -3.219  -9.645  10.567  0.00  0.00    +0.023 A 
ATOM     31  C   UNL     1      -4.083 -11.740   9.729  0.00  0.00    +0.023 A 
ATOM     32  C   UNL     1      -3.845  -8.968   9.520  0.00  0.00    +0.002 A 
ATOM     33  C   UNL     1      -4.708 -11.064   8.682  0.00  0.00    +0.002 A 
ATOM     34  C   UNL     1      -4.589  -9.677   8.577  0.00  0.00    +0.000 A 
ENDBRANCH   6  29
ENDBRANCH  23   6
ENDBRANCH  20  23
ENDBRANCH  11  16
ENDBRANCH   8  11
TORSDOF 10
ENDMDL
MODEL 8
REMARK VINA RESULT:      -6.2     14.479     19.248
REMARK  Name = 56773986
REMARK  13 active torsions:
REMARK  status: ('A' for Active; 'I' for Inactive)
REMARK    1  A    between atoms: N_4  and  C_9
REMARK    2  A    between atoms: N_4  and  C_14
REMARK    3  A    between atoms: N_4  and  C_15
REMARK    4  A    between atoms: N_6  and  C_23
REMARK    5  A    between atoms: N_6  and  C_28
REMARK    6  A    between atoms: N_6  and  C_29
REMARK    7  A    between atoms: C_7  and  C_12
REMARK    8  A    between atoms: C_7  and  C_13
REMARK    9  A    between atoms: C_8  and  C_11
REMARK   10  A    between atoms: C_11  and  C_16
REMARK   11  A    between atoms: C_14  and  C_17
REMARK   12  A    between atoms: C_15  and  C_18
REMARK   13  A    between atoms: C_20  and  C_23
REMARK                            x       y       z     vdW  Elec       q    Type
REMARK                         _______ _______ _______ _____ _____    ______ ____
ROOT
ATOM      7  C   UNL     1      11.514   6.601   3.660  0.00  0.00    -0.016 C 
ATOM      8  C   UNL     1      10.806   5.426   2.954  0.00  0.00    +0.004 C 
ATOM      9  C   UNL     1      11.201   5.889   4.992  0.00  0.00    +0.064 C 
ATOM     10  C   UNL     1      10.020   5.214   4.266  0.00  0.00    +0.024 C 
ATOM     12  C   UNL     1      12.970   6.754   3.274  0.00  0.00    +0.013 C 
ATOM     13  C   UNL     1      10.817   7.947   3.554  0.00  0.00    +0.013 C 
ENDROOT
BRANCH   9   4
ATOM      4  N   UNL     1      10.670   6.835   5.989  0.00  0.00    -0.285 NA
BRANCH   4  14
ATOM     14  C   UNL     1       9.339   6.395   6.406  0.00  0.00    +0.159 C 
BRANCH  14  17
ATOM      2  O   UNL     1       8.996   6.144   8.803  0.00  0.00    -0.467 OA
ATOM     17  C   UNL     1       9.392   5.547   7.648  0.00  0.00    +0.119 A 
ATOM     21  C   UNL     1       9.769   4.244   7.883  0.00  0.00    +0.046 A 
ATOM     24  C   UNL     1       9.592   4.028   9.271  0.00  0.00    +0.041 A 
ATOM     26  C   UNL     1       9.120   5.213   9.786  0.00  0.00    +0.195 A 
ENDBRANCH  14  17
ENDBRANCH   4  14
BRANCH   4  15
ATOM     15  C   UNL     1      11.579   6.884   7.135  0.00  0.00    +0.159 C 
BRANCH  15  18
ATOM      3  O   UNL     1      13.991   6.800   6.814  0.00  0.00    -0.467 OA
ATOM     18  C   UNL     1      12.873   7.574   6.795  0.00  0.00    +0.119 A 
ATOM     22  C   UNL     1      13.187   8.869   6.454  0.00  0.00    +0.046 A 
ATOM     25  C   UNL     1      14.588   8.893   6.250  0.00  0.00    +0.041 A 
ATOM     27  C   UNL     1      15.030   7.611   6.482  0.00  0.00    +0.195 A 
ENDBRANCH  15  18
ENDBRANCH   4  15
ENDBRANCH   9   4
BRANCH   8  11
ATOM     11  C   UNL     1       9.948   5.759   1.755  0.00  0.00    +0.063 C 
BRANCH  11  16
ATOM      1  O   UNL     1      10.349   4.112  -1.431  0.00  0.00    -0.358 OA
ATOM      5  N   UNL     1       9.611   4.847  -0.510  0.00  0.00    -0.083 NA
ATOM     16  C   UNL     1      10.422   4.996   0.542  0.00  0.00    +0.084 A 
ATOM     19  C   UNL     1      11.672   4.383   0.342  0.00  0.00    +0.072 A 
ATOM     20  C   UNL     1      11.574   3.843  -0.912  0.00  0.00    +0.155 A 
BRANCH  20  23
ATOM     23  C   UNL     1      12.489   3.069  -1.760  0.00  0.00    +0.181 C 
BRANCH  23   6
ATOM      6  N   UNL     1      13.428   3.911  -2.521  0.00  0.00    -0.326 N 
ATOM     28  C   UNL     1      13.339   3.876  -3.968  0.00  0.00    +0.129 C 
BRANCH   6  29
ATOM     29  C   UNL     1      14.362   4.695  -1.860  0.00  0.00    +0.030 A 
ATOM     30  C   UNL     1      15.246   4.112  -0.953  0.00  0.00    +0.023 A 
ATOM     31  C   UNL     1      14.416   6.068  -2.102  0.00  0.00    +0.023 A 
ATOM     32  C   UNL     1      16.185   4.900  -0.288  0.00  0.00    +0.002 A 
ATOM     33  C   UNL     1      15.355   6.857  -1.438  0.00  0.00    +0.002 A 
ATOM     34  C   UNL     1      16.240   6.273  -0.531  0.00  0.00    +0.000 A 
ENDBRANCH   6  29
ENDBRANCH  23   6
ENDBRANCH  20  23
ENDBRANCH  11  16
ENDBRANCH   8  11
TORSDOF 10
ENDMDL
MODEL 9
REMARK VINA RESULT:      -6.2     26.814     30.082
REMARK  Name = 56773986
REMARK  13 active torsions:
REMARK  status: ('A' for Active; 'I' for Inactive)
REMARK    1  A    between atoms: N_4  and  C_9
REMARK    2  A    between atoms: N_4  and  C_14
REMARK    3  A    between atoms: N_4  and  C_15
REMARK    4  A    between atoms: N_6  and  C_23
REMARK    5  A    between atoms: N_6  and  C_28
REMARK    6  A    between atoms: N_6  and  C_29
REMARK    7  A    between atoms: C_7  and  C_12
REMARK    8  A    between atoms: C_7  and  C_13
REMARK    9  A    between atoms: C_8  and  C_11
REMARK   10  A    between atoms: C_11  and  C_16
REMARK   11  A    between atoms: C_14  and  C_17
REMARK   12  A    between atoms: C_15  and  C_18
REMARK   13  A    between atoms: C_20  and  C_23
REMARK                            x       y       z     vdW  Elec       q    Type
REMARK                         _______ _______ _______ _____ _____    ______ ____
ROOT
ATOM      7  C   UNL     1      -8.065 -10.531  15.860  0.00  0.00    -0.016 C 
ATOM      8  C   UNL     1      -6.965  -9.842  16.696  0.00  0.00    +0.004 C 
ATOM      9  C   UNL     1      -8.948  -9.299  16.148  0.00  0.00    +0.064 C 
ATOM     10  C   UNL     1      -8.098  -9.081  17.417  0.00  0.00    +0.024 C 
ATOM     12  C   UNL     1      -7.667 -10.786  14.422  0.00  0.00    +0.013 C 
ATOM     13  C   UNL     1      -8.644 -11.801  16.459  0.00  0.00    +0.013 C 
ENDROOT
BRANCH   9   4
ATOM      4  N   UNL     1     -10.307  -9.699  16.546  0.00  0.00    -0.285 NA
BRANCH   4  14
ATOM     14  C   UNL     1     -10.725  -8.900  17.698  0.00  0.00    +0.159 C 
BRANCH  14  17
ATOM      2  O   UNL     1     -10.628 -10.772  19.250  0.00  0.00    -0.467 OA
ATOM     17  C   UNL     1     -11.373  -9.745  18.762  0.00  0.00    +0.119 A 
ATOM     21  C   UNL     1     -12.603  -9.705  19.377  0.00  0.00    +0.046 A 
ATOM     24  C   UNL     1     -12.616 -10.777  20.301  0.00  0.00    +0.041 A 
ATOM     26  C   UNL     1     -11.392 -11.395  20.187  0.00  0.00    +0.195 A 
ENDBRANCH  14  17
ENDBRANCH   4  14
BRANCH   4  15
ATOM     15  C   UNL     1     -11.218  -9.494  15.420  0.00  0.00    +0.159 C 
BRANCH  15  18
ATOM      3  O   UNL     1     -11.112  -7.101  14.986  0.00  0.00    -0.467 OA
ATOM     18  C   UNL     1     -11.860  -8.133  15.458  0.00  0.00    +0.119 A 
ATOM     22  C   UNL     1     -13.090  -7.685  15.883  0.00  0.00    +0.046 A 
ATOM     25  C   UNL     1     -13.098  -6.288  15.658  0.00  0.00    +0.041 A 
ATOM     27  C   UNL     1     -11.873  -5.981  15.112  0.00  0.00    +0.195 A 
ENDBRANCH  15  18
ENDBRANCH   4  15
ENDBRANCH   9   4
BRANCH   8  11
ATOM     11  C   UNL     1      -6.129 -10.723  17.594  0.00  0.00    +0.063 C 
BRANCH  11  16
ATOM      1  O   UNL     1      -2.590 -11.225  17.097  0.00  0.00    -0.358 OA
ATOM      5  N   UNL     1      -3.747 -11.298  17.864  0.00  0.00    -0.083 NA
ATOM     16  C   UNL     1      -4.710 -10.800  17.083  0.00  0.00    +0.084 A 
ATOM     19  C   UNL     1      -4.225 -10.403  15.825  0.00  0.00    +0.072 A 
ATOM     20  C   UNL     1      -2.887 -10.691  15.885  0.00  0.00    +0.155 A 
BRANCH  20  23
ATOM     23  C   UNL     1      -1.771 -10.543  14.943  0.00  0.00    +0.181 C 
BRANCH  23   6
ATOM      6  N   UNL     1      -1.971 -11.282  13.684  0.00  0.00    -0.326 N 
ATOM     28  C   UNL     1      -1.660 -12.698  13.682  0.00  0.00    +0.129 C 
BRANCH   6  29
ATOM     29  C   UNL     1      -2.433 -10.628  12.552  0.00  0.00    +0.030 A 
ATOM     30  C   UNL     1      -3.769 -10.749  12.172  0.00  0.00    +0.023 A 
ATOM     31  C   UNL     1      -1.560  -9.849  11.792  0.00  0.00    +0.023 A 
ATOM     32  C   UNL     1      -4.233 -10.091  11.033  0.00  0.00    +0.002 A 
ATOM     33  C   UNL     1      -2.023  -9.191  10.653  0.00  0.00    +0.002 A 
ATOM     34  C   UNL     1      -3.360  -9.312  10.274  0.00  0.00    +0.000 A 
ENDBRANCH   6  29
ENDBRANCH  23   6
ENDBRANCH  20  23
ENDBRANCH  11  16
ENDBRANCH   8  11
TORSDOF 10
ENDMDL
MODEL 10
REMARK VINA RESULT:      -6.2     14.005     15.875
REMARK  Name = 56773986
REMARK  13 active torsions:
REMARK  status: ('A' for Active; 'I' for Inactive)
REMARK    1  A    between atoms: N_4  and  C_9
REMARK    2  A    between atoms: N_4  and  C_14
REMARK    3  A    between atoms: N_4  and  C_15
REMARK    4  A    between atoms: N_6  and  C_23
REMARK    5  A    between atoms: N_6  and  C_28
REMARK    6  A    between atoms: N_6  and  C_29
REMARK    7  A    between atoms: C_7  and  C_12
REMARK    8  A    between atoms: C_7  and  C_13
REMARK    9  A    between atoms: C_8  and  C_11
REMARK   10  A    between atoms: C_11  and  C_16
REMARK   11  A    between atoms: C_14  and  C_17
REMARK   12  A    between atoms: C_15  and  C_18
REMARK   13  A    between atoms: C_20  and  C_23
REMARK                            x       y       z     vdW  Elec       q    Type
REMARK                         _______ _______ _______ _____ _____    ______ ____
ROOT
ATOM      7  C   UNL     1      12.300   7.258   5.737  0.00  0.00    -0.016 C 
ATOM      8  C   UNL     1      13.296   7.494   4.581  0.00  0.00    +0.004 C 
ATOM      9  C   UNL     1      11.604   6.228   4.825  0.00  0.00    +0.064 C 
ATOM     10  C   UNL     1      12.182   7.009   3.628  0.00  0.00    +0.024 C 
ATOM     12  C   UNL     1      12.950   6.745   7.004  0.00  0.00    +0.013 C 
ATOM     13  C   UNL     1      11.394   8.431   6.071  0.00  0.00    +0.013 C 
ENDROOT
BRANCH   9   4
ATOM      4  N   UNL     1      10.141   6.401   4.846  0.00  0.00    -0.285 NA
BRANCH   4  14
ATOM     14  C   UNL     1       9.664   6.617   3.480  0.00  0.00    +0.159 C 
BRANCH  14  17
ATOM      2  O   UNL     1       8.444   8.270   2.175  0.00  0.00    -0.467 OA
ATOM     17  C   UNL     1       8.662   7.738   3.407  0.00  0.00    +0.119 A 
ATOM     21  C   UNL     1       7.885   8.369   4.351  0.00  0.00    +0.046 A 
ATOM     24  C   UNL     1       7.142   9.352   3.655  0.00  0.00    +0.041 A 
ATOM     26  C   UNL     1       7.516   9.251   2.335  0.00  0.00    +0.195 A 
ENDBRANCH  14  17
ENDBRANCH   4  14
BRANCH   4  15
ATOM     15  C   UNL     1       9.525   5.207   5.424  0.00  0.00    +0.159 C 
BRANCH  15  18
ATOM      3  O   UNL     1       9.034   6.408   7.484  0.00  0.00    -0.467 OA
ATOM     18  C   UNL     1       9.503   5.259   6.928  0.00  0.00    +0.119 A 
ATOM     22  C   UNL     1       9.867   4.363   7.906  0.00  0.00    +0.046 A 
ATOM     25  C   UNL     1       9.606   5.001   9.142  0.00  0.00    +0.041 A 
ATOM     27  C   UNL     1       9.101   6.243   8.832  0.00  0.00    +0.195 A 
ENDBRANCH  15  18
ENDBRANCH   4  15
ENDBRANCH   9   4
BRANCH   8  11
ATOM     11  C   UNL     1      13.752   8.915   4.344  0.00  0.00    +0.063 C 
BRANCH  11  16
ATOM      1  O   UNL     1      16.379  10.101   6.515  0.00  0.00    -0.358 OA
ATOM      5  N   UNL     1      15.069  10.112   6.048  0.00  0.00    -0.083 NA
ATOM     16  C   UNL     1      15.038   9.185   5.086  0.00  0.00    +0.084 A 
ATOM     19  C   UNL     1      16.285   8.562   4.905  0.00  0.00    +0.072 A 
ATOM     20  C   UNL     1      17.093   9.174   5.827  0.00  0.00    +0.155 A 
BRANCH  20  23
ATOM     23  C   UNL     1      18.506   9.030   6.195  0.00  0.00    +0.181 C 
BRANCH  23   6
ATOM      6  N   UNL     1      19.431   9.391   5.106  0.00  0.00    -0.326 N 
ATOM     28  C   UNL     1      19.478  10.782   4.701  0.00  0.00    +0.129 C 
BRANCH   6  29
ATOM     29  C   UNL     1      20.212   8.420   4.498  0.00  0.00    +0.030 A 
ATOM     30  C   UNL     1      20.873   7.469   5.275  0.00  0.00    +0.023 A 
ATOM     31  C   UNL     1      20.338   8.395   3.109  0.00  0.00    +0.023 A 
ATOM     32  C   UNL     1      21.659   6.492   4.663  0.00  0.00    +0.002 A 
ATOM     33  C   UNL     1      21.124   7.420   2.497  0.00  0.00    +0.002 A 
ATOM     34  C   UNL     1      21.784   6.468   3.274  0.00  0.00    +0.000 A 
ENDBRANCH   6  29
ENDBRANCH  23   6
ENDBRANCH  20  23
ENDBRANCH  11  16
ENDBRANCH   8  11
TORSDOF 10
ENDMDL
