MODEL 1
REMARK VINA RESULT:      -7.7      0.000      0.000
REMARK  Name = 75536637
REMARK  6 active torsions:
REMARK  status: ('A' for Active; 'I' for Inactive)
REMARK    1  A    between atoms: O_5  and  C_11
REMARK    2  A    between atoms: N_7  and  C_9
REMARK    3  A    between atoms: N_7  and  C_10
REMARK    4  A    between atoms: N_8  and  C_19
REMARK    5  A    between atoms: C_14  and  C_19
REMARK    6  A    between atoms: C_20  and  C_21
REMARK                            x       y       z     vdW  Elec       q    Type
REMARK                         _______ _______ _______ _____ _____    ______ ____
ROOT
ATOM      4  O   UNL     1      10.675   7.130  21.148  0.00  0.00    -0.371 OA
ATOM     10  C   UNL     1      11.339   9.235  22.025  0.00  0.00    +0.111 C 
ATOM     11  C   UNL     1      12.408   8.737  21.071  0.00  0.00    +0.164 C 
ATOM     14  C   UNL     1      11.618   7.730  20.245  0.00  0.00    +0.165 C 
ATOM     15  C   UNL     1      10.582   7.950  22.326  0.00  0.00    +0.181 C 
ENDROOT
BRANCH  11   5
ATOM      5  O   UNL     1      12.946   9.770  20.267  0.00  0.00    -0.388 OA
ATOM     28  H   UNL     1      13.198  10.509  20.848  0.00  0.00    +0.210 HD
ENDBRANCH  11   5
BRANCH  10   7
ATOM      7  N   UNL     1      11.873   9.869  23.220  0.00  0.00    -0.306 NA
ATOM     27  H   UNL     1      12.834  10.165  23.060  0.00  0.00    +0.123 HD
BRANCH   7   9
ATOM      1  F   UNL     1      10.009  14.892  24.723  0.00  0.00    -0.206 F 
ATOM      2  F   UNL     1      12.070  14.312  24.345  0.00  0.00    -0.206 F 
ATOM      9  C   UNL     1      11.054  11.017  23.607  0.00  0.00    +0.054 C 
ATOM     12  C   UNL     1      11.467  11.503  25.002  0.00  0.00    +0.024 C 
ATOM     13  C   UNL     1      11.197  12.132  22.564  0.00  0.00    +0.024 C 
ATOM     16  C   UNL     1      10.681  12.747  25.410  0.00  0.00    +0.077 C 
ATOM     17  C   UNL     1      10.411  13.377  22.972  0.00  0.00    +0.077 C 
ATOM     18  C   UNL     1      10.794  13.845  24.365  0.00  0.00    +0.249 C 
ENDBRANCH   7   9
ENDBRANCH  10   7
BRANCH  14  19
ATOM     19  C   UNL     1      12.487   6.653  19.619  0.00  0.00    +0.138 C 
BRANCH  19   8
ATOM      6  O   UNL     1      14.791   7.297  18.031  0.00  0.00    -0.270 OA
ATOM      8  N   UNL     1      13.843   6.746  20.076  0.00  0.00    -0.309 N 
ATOM     20  C   UNL     1      14.902   7.064  19.232  0.00  0.00    +0.244 C 
ATOM     29  H   UNL     1      14.015   6.496  21.044  0.00  0.00    +0.149 HD
BRANCH  20  21
ATOM      3  F   UNL     1      19.999   7.178  21.583  0.00  0.00    -0.205 F 
ATOM     21  C   UNL     1      16.251   7.095  19.854  0.00  0.00    +0.037 A 
ATOM     22  C   UNL     1      16.574   8.095  20.770  0.00  0.00    +0.016 A 
ATOM     23  C   UNL     1      17.195   6.122  19.521  0.00  0.00    +0.016 A 
ATOM     24  C   UNL     1      17.840   8.125  21.354  0.00  0.00    +0.039 A 
ATOM     25  C   UNL     1      18.461   6.151  20.105  0.00  0.00    +0.039 A 
ATOM     26  C   UNL     1      18.783   7.152  21.022  0.00  0.00    +0.123 A 
ENDBRANCH  20  21
ENDBRANCH  19   8
ENDBRANCH  14  19
TORSDOF 6
ENDMDL
MODEL 2
REMARK VINA RESULT:      -7.1      4.786      7.099
REMARK  Name = 75536637
REMARK  6 active torsions:
REMARK  status: ('A' for Active; 'I' for Inactive)
REMARK    1  A    between atoms: O_5  and  C_11
REMARK    2  A    between atoms: N_7  and  C_9
REMARK    3  A    between atoms: N_7  and  C_10
REMARK    4  A    between atoms: N_8  and  C_19
REMARK    5  A    between atoms: C_14  and  C_19
REMARK    6  A    between atoms: C_20  and  C_21
REMARK                            x       y       z     vdW  Elec       q    Type
REMARK                         _______ _______ _______ _____ _____    ______ ____
ROOT
ATOM      4  O   UNL     1      17.764   6.481  21.624  0.00  0.00    -0.371 OA
ATOM     10  C   UNL     1      16.239   6.257  19.816  0.00  0.00    +0.111 C 
ATOM     11  C   UNL     1      17.656   6.219  19.276  0.00  0.00    +0.164 C 
ATOM     14  C   UNL     1      18.438   5.841  20.527  0.00  0.00    +0.165 C 
ATOM     15  C   UNL     1      16.456   6.886  21.184  0.00  0.00    +0.181 C 
ENDROOT
BRANCH  11   5
ATOM      5  O   UNL     1      17.822   5.265  18.244  0.00  0.00    -0.388 OA
ATOM     28  H   UNL     1      18.182   5.720  17.463  0.00  0.00    +0.210 HD
ENDBRANCH  11   5
BRANCH  10   7
ATOM      7  N   UNL     1      15.318   7.015  18.985  0.00  0.00    -0.306 NA
ATOM     27  H   UNL     1      14.922   6.415  18.263  0.00  0.00    +0.123 HD
BRANCH   7   9
ATOM      1  F   UNL     1      10.545   9.198  20.837  0.00  0.00    -0.206 F 
ATOM      2  F   UNL     1      11.004   8.567  18.807  0.00  0.00    -0.206 F 
ATOM      9  C   UNL     1      14.246   7.594  19.795  0.00  0.00    +0.054 C 
ATOM     12  C   UNL     1      13.886   8.985  19.260  0.00  0.00    +0.024 C 
ATOM     13  C   UNL     1      13.028   6.662  19.788  0.00  0.00    +0.024 C 
ATOM     16  C   UNL     1      12.720   9.593  20.038  0.00  0.00    +0.077 C 
ATOM     17  C   UNL     1      11.862   7.270  20.565  0.00  0.00    +0.077 C 
ATOM     18  C   UNL     1      11.520   8.661  20.060  0.00  0.00    +0.249 C 
ENDBRANCH   7   9
ENDBRANCH  10   7
BRANCH  14  19
ATOM     19  C   UNL     1      19.889   6.286  20.487  0.00  0.00    +0.138 C 
BRANCH  19   8
ATOM      6  O   UNL     1      21.058   5.510  22.992  0.00  0.00    -0.270 OA
ATOM      8  N   UNL     1      20.779   5.185  20.712  0.00  0.00    -0.309 N 
ATOM     20  C   UNL     1      21.301   4.881  21.965  0.00  0.00    +0.244 C 
ATOM     29  H   UNL     1      21.077   4.667  19.892  0.00  0.00    +0.149 HD
BRANCH  20  21
ATOM      3  F   UNL     1      24.813   0.507  22.197  0.00  0.00    -0.205 F 
ATOM     21  C   UNL     1      22.230   3.723  22.026  0.00  0.00    +0.037 A 
ATOM     22  C   UNL     1      22.754   3.187  20.851  0.00  0.00    +0.016 A 
ATOM     23  C   UNL     1      22.579   3.173  23.260  0.00  0.00    +0.016 A 
ATOM     24  C   UNL     1      23.626   2.100  20.907  0.00  0.00    +0.039 A 
ATOM     25  C   UNL     1      23.451   2.085  23.317  0.00  0.00    +0.039 A 
ATOM     26  C   UNL     1      23.974   1.550  22.141  0.00  0.00    +0.123 A 
ENDBRANCH  20  21
ENDBRANCH  19   8
ENDBRANCH  14  19
TORSDOF 6
ENDMDL
MODEL 3
REMARK VINA RESULT:      -7.1      1.785      2.551
REMARK  Name = 75536637
REMARK  6 active torsions:
REMARK  status: ('A' for Active; 'I' for Inactive)
REMARK    1  A    between atoms: O_5  and  C_11
REMARK    2  A    between atoms: N_7  and  C_9
REMARK    3  A    between atoms: N_7  and  C_10
REMARK    4  A    between atoms: N_8  and  C_19
REMARK    5  A    between atoms: C_14  and  C_19
REMARK    6  A    between atoms: C_20  and  C_21
REMARK                            x       y       z     vdW  Elec       q    Type
REMARK                         _______ _______ _______ _____ _____    ______ ____
ROOT
ATOM      4  O   UNL     1      13.877   6.836  20.846  0.00  0.00    -0.371 OA
ATOM     10  C   UNL     1      11.636   7.592  20.633  0.00  0.00    +0.111 C 
ATOM     11  C   UNL     1      12.385   7.897  19.350  0.00  0.00    +0.164 C 
ATOM     14  C   UNL     1      13.548   6.919  19.450  0.00  0.00    +0.165 C 
ATOM     15  C   UNL     1      12.783   7.376  21.607  0.00  0.00    +0.181 C 
ENDROOT
BRANCH  11   5
ATOM      5  O   UNL     1      11.603   7.669  18.193  0.00  0.00    -0.388 OA
ATOM     28  H   UNL     1      12.166   7.805  17.412  0.00  0.00    +0.210 HD
ENDBRANCH  11   5
BRANCH  10   7
ATOM      7  N   UNL     1      10.733   8.653  21.049  0.00  0.00    -0.306 NA
ATOM     27  H   UNL     1       9.944   8.263  21.562  0.00  0.00    +0.123 HD
BRANCH   7   9
ATOM      1  F   UNL     1      12.273  13.178  23.899  0.00  0.00    -0.206 F 
ATOM      2  F   UNL     1      10.458  12.913  22.731  0.00  0.00    -0.206 F 
ATOM      9  C   UNL     1      11.433   9.633  21.879  0.00  0.00    +0.054 C 
ATOM     12  C   UNL     1      11.764  10.877  21.046  0.00  0.00    +0.024 C 
ATOM     13  C   UNL     1      10.574   9.991  23.098  0.00  0.00    +0.024 C 
ATOM     16  C   UNL     1      12.433  11.953  21.900  0.00  0.00    +0.077 C 
ATOM     17  C   UNL     1      11.242  11.067  23.951  0.00  0.00    +0.077 C 
ATOM     18  C   UNL     1      11.600  12.290  23.125  0.00  0.00    +0.249 C 
ENDBRANCH   7   9
ENDBRANCH  10   7
BRANCH  14  19
ATOM     19  C   UNL     1      14.770   7.357  18.660  0.00  0.00    +0.138 C 
BRANCH  19   8
ATOM      6  O   UNL     1      16.842   5.388  18.384  0.00  0.00    -0.270 OA
ATOM      8  N   UNL     1      15.964   7.254  19.447  0.00  0.00    -0.309 N 
ATOM     20  C   UNL     1      16.919   6.262  19.243  0.00  0.00    +0.244 C 
ATOM     29  H   UNL     1      16.056   7.903  20.221  0.00  0.00    +0.149 HD
BRANCH  20  21
ATOM      3  F   UNL     1      21.336   6.318  22.709  0.00  0.00    -0.205 F 
ATOM     21  C   UNL     1      18.088   6.277  20.160  0.00  0.00    +0.037 A 
ATOM     22  C   UNL     1      18.127   7.177  21.224  0.00  0.00    +0.016 A 
ATOM     23  C   UNL     1      19.146   5.391  19.956  0.00  0.00    +0.016 A 
ATOM     24  C   UNL     1      19.224   7.193  22.085  0.00  0.00    +0.039 A 
ATOM     25  C   UNL     1      20.243   5.406  20.817  0.00  0.00    +0.039 A 
ATOM     26  C   UNL     1      20.282   6.306  21.882  0.00  0.00    +0.123 A 
ENDBRANCH  20  21
ENDBRANCH  19   8
ENDBRANCH  14  19
TORSDOF 6
ENDMDL
MODEL 4
REMARK VINA RESULT:      -7.0      3.539      4.650
REMARK  Name = 75536637
REMARK  6 active torsions:
REMARK  status: ('A' for Active; 'I' for Inactive)
REMARK    1  A    between atoms: O_5  and  C_11
REMARK    2  A    between atoms: N_7  and  C_9
REMARK    3  A    between atoms: N_7  and  C_10
REMARK    4  A    between atoms: N_8  and  C_19
REMARK    5  A    between atoms: C_14  and  C_19
REMARK    6  A    between atoms: C_20  and  C_21
REMARK                            x       y       z     vdW  Elec       q    Type
REMARK                         _______ _______ _______ _____ _____    ______ ____
ROOT
ATOM      4  O   UNL     1      13.151   7.906  21.938  0.00  0.00    -0.371 OA
ATOM     10  C   UNL     1      11.224   9.052  22.723  0.00  0.00    +0.111 C 
ATOM     11  C   UNL     1      10.795   7.971  21.749  0.00  0.00    +0.164 C 
ATOM     14  C   UNL     1      12.007   7.050  21.779  0.00  0.00    +0.165 C 
ATOM     15  C   UNL     1      12.698   9.198  22.379  0.00  0.00    +0.181 C 
ENDROOT
BRANCH  11   5
ATOM      5  O   UNL     1       9.616   7.304  22.159  0.00  0.00    -0.388 OA
ATOM     28  H   UNL     1       9.817   6.356  22.250  0.00  0.00    +0.210 HD
ENDBRANCH  11   5
BRANCH  10   7
ATOM      7  N   UNL     1      10.484  10.296  22.578  0.00  0.00    -0.306 NA
ATOM     27  H   UNL     1       9.568  10.212  23.015  0.00  0.00    +0.123 HD
BRANCH   7   9
ATOM      1  F   UNL     1      11.989  15.001  25.140  0.00  0.00    -0.206 F 
ATOM      2  F   UNL     1       9.967  14.278  24.797  0.00  0.00    -0.206 F 
ATOM      9  C   UNL     1      11.221  11.409  23.174  0.00  0.00    +0.054 C 
ATOM     12  C   UNL     1      10.854  12.716  22.460  0.00  0.00    +0.024 C 
ATOM     13  C   UNL     1      10.917  11.491  24.675  0.00  0.00    +0.024 C 
ATOM     16  C   UNL     1      11.551  13.914  23.103  0.00  0.00    +0.077 C 
ATOM     17  C   UNL     1      11.613  12.688  25.318  0.00  0.00    +0.077 C 
ATOM     18  C   UNL     1      11.277  13.982  24.596  0.00  0.00    +0.249 C 
ENDBRANCH   7   9
ENDBRANCH  10   7
BRANCH  14  19
ATOM     19  C   UNL     1      12.161   6.218  20.519  0.00  0.00    +0.138 C 
BRANCH  19   8
ATOM      6  O   UNL     1      14.147   7.384  18.803  0.00  0.00    -0.270 OA
ATOM      8  N   UNL     1      11.923   7.003  19.342  0.00  0.00    -0.309 N 
ATOM     20  C   UNL     1      12.951   7.532  18.568  0.00  0.00    +0.244 C 
ATOM     29  H   UNL     1      10.955   7.222  19.131  0.00  0.00    +0.149 HD
BRANCH  20  21
ATOM      3  F   UNL     1      11.390  10.604  14.135  0.00  0.00    -0.205 F 
ATOM     21  C   UNL     1      12.538   8.344  17.395  0.00  0.00    +0.037 A 
ATOM     22  C   UNL     1      11.198   8.384  17.012  0.00  0.00    +0.016 A 
ATOM     23  C   UNL     1      13.490   9.068  16.677  0.00  0.00    +0.016 A 
ATOM     24  C   UNL     1      10.809   9.147  15.910  0.00  0.00    +0.039 A 
ATOM     25  C   UNL     1      13.102   9.830  15.575  0.00  0.00    +0.039 A 
ATOM     26  C   UNL     1      11.762   9.870  15.192  0.00  0.00    +0.123 A 
ENDBRANCH  20  21
ENDBRANCH  19   8
ENDBRANCH  14  19
TORSDOF 6
ENDMDL
MODEL 5
REMARK VINA RESULT:      -7.0     26.715     28.510
REMARK  Name = 75536637
REMARK  6 active torsions:
REMARK  status: ('A' for Active; 'I' for Inactive)
REMARK    1  A    between atoms: O_5  and  C_11
REMARK    2  A    between atoms: N_7  and  C_9
REMARK    3  A    between atoms: N_7  and  C_10
REMARK    4  A    between atoms: N_8  and  C_19
REMARK    5  A    between atoms: C_14  and  C_19
REMARK    6  A    between atoms: C_20  and  C_21
REMARK                            x       y       z     vdW  Elec       q    Type
REMARK                         _______ _______ _______ _____ _____    ______ ____
ROOT
ATOM      4  O   UNL     1      -1.096 -11.412  15.155  0.00  0.00    -0.371 OA
ATOM     10  C   UNL     1      -3.246 -11.001  16.078  0.00  0.00    +0.111 C 
ATOM     11  C   UNL     1      -3.404 -11.763  14.775  0.00  0.00    +0.164 C 
ATOM     14  C   UNL     1      -2.019 -12.378  14.626  0.00  0.00    +0.165 C 
ATOM     15  C   UNL     1      -1.833 -10.457  15.938  0.00  0.00    +0.181 C 
ENDROOT
BRANCH  11   5
ATOM      5  O   UNL     1      -4.415 -12.750  14.839  0.00  0.00    -0.388 OA
ATOM     28  H   UNL     1      -4.907 -12.631  15.670  0.00  0.00    +0.210 HD
ENDBRANCH  11   5
BRANCH  10   7
ATOM      7  N   UNL     1      -4.239  -9.955  16.266  0.00  0.00    -0.306 NA
ATOM     27  H   UNL     1      -4.821  -9.870  15.435  0.00  0.00    +0.123 HD
BRANCH   7   9
ATOM      1  F   UNL     1      -7.476 -12.318  20.127  0.00  0.00    -0.206 F 
ATOM      2  F   UNL     1      -6.655 -13.255  18.344  0.00  0.00    -0.206 F 
ATOM      9  C   UNL     1      -5.073 -10.238  17.433  0.00  0.00    +0.054 C 
ATOM     12  C   UNL     1      -6.479 -10.649  16.979  0.00  0.00    +0.024 C 
ATOM     13  C   UNL     1      -4.421 -11.334  18.286  0.00  0.00    +0.024 C 
ATOM     16  C   UNL     1      -7.360 -11.022  18.170  0.00  0.00    +0.077 C 
ATOM     17  C   UNL     1      -5.301 -11.707  19.477  0.00  0.00    +0.077 C 
ATOM     18  C   UNL     1      -6.705 -12.086  19.035  0.00  0.00    +0.249 C 
ENDBRANCH   7   9
ENDBRANCH  10   7
BRANCH  14  19
ATOM     19  C   UNL     1      -1.656 -12.699  13.186  0.00  0.00    +0.138 C 
BRANCH  19   8
ATOM      6  O   UNL     1      -1.434 -10.119  11.944  0.00  0.00    -0.270 OA
ATOM      8  N   UNL     1      -2.586 -12.106  12.269  0.00  0.00    -0.309 N 
ATOM     20  C   UNL     1      -2.398 -10.845  11.714  0.00  0.00    +0.244 C 
ATOM     29  H   UNL     1      -3.440 -12.624  12.090  0.00  0.00    +0.149 HD
BRANCH  20  21
ATOM      3  F   UNL     1      -6.436  -9.023   8.265  0.00  0.00    -0.205 F 
ATOM     21  C   UNL     1      -3.467 -10.363  10.801  0.00  0.00    +0.037 A 
ATOM     22  C   UNL     1      -4.685 -11.038  10.737  0.00  0.00    +0.016 A 
ATOM     23  C   UNL     1      -3.251  -9.235  10.008  0.00  0.00    +0.016 A 
ATOM     24  C   UNL     1      -5.688 -10.587   9.880  0.00  0.00    +0.039 A 
ATOM     25  C   UNL     1      -4.254  -8.783   9.151  0.00  0.00    +0.039 A 
ATOM     26  C   UNL     1      -5.473  -9.459   9.087  0.00  0.00    +0.123 A 
ENDBRANCH  20  21
ENDBRANCH  19   8
ENDBRANCH  14  19
TORSDOF 6
ENDMDL
MODEL 6
REMARK VINA RESULT:      -6.8      5.038      6.832
REMARK  Name = 75536637
REMARK  6 active torsions:
REMARK  status: ('A' for Active; 'I' for Inactive)
REMARK    1  A    between atoms: O_5  and  C_11
REMARK    2  A    between atoms: N_7  and  C_9
REMARK    3  A    between atoms: N_7  and  C_10
REMARK    4  A    between atoms: N_8  and  C_19
REMARK    5  A    between atoms: C_14  and  C_19
REMARK    6  A    between atoms: C_20  and  C_21
REMARK                            x       y       z     vdW  Elec       q    Type
REMARK                         _______ _______ _______ _____ _____    ______ ____
ROOT
ATOM      4  O   UNL     1      12.757   9.691  19.055  0.00  0.00    -0.371 OA
ATOM     10  C   UNL     1      12.368   9.624  16.713  0.00  0.00    +0.111 C 
ATOM     11  C   UNL     1      12.099   8.251  17.299  0.00  0.00    +0.164 C 
ATOM     14  C   UNL     1      11.872   8.596  18.764  0.00  0.00    +0.165 C 
ATOM     15  C   UNL     1      13.203  10.261  17.812  0.00  0.00    +0.181 C 
ENDROOT
BRANCH  11   5
ATOM      5  O   UNL     1      10.967   7.624  16.725  0.00  0.00    -0.388 OA
ATOM     28  H   UNL     1      10.460   7.197  17.436  0.00  0.00    +0.210 HD
ENDBRANCH  11   5
BRANCH  10   7
ATOM      7  N   UNL     1      13.054   9.587  15.431  0.00  0.00    -0.306 NA
ATOM     27  H   UNL     1      12.377   9.606  14.670  0.00  0.00    +0.123 HD
BRANCH   7   9
ATOM      1  F   UNL     1      16.624  13.448  13.609  0.00  0.00    -0.206 F 
ATOM      2  F   UNL     1      15.704  11.853  12.450  0.00  0.00    -0.206 F 
ATOM      9  C   UNL     1      13.977  10.714  15.306  0.00  0.00    +0.054 C 
ATOM     12  C   UNL     1      15.358  10.208  14.871  0.00  0.00    +0.024 C 
ATOM     13  C   UNL     1      13.419  11.736  14.307  0.00  0.00    +0.024 C 
ATOM     16  C   UNL     1      16.332  11.366  14.660  0.00  0.00    +0.077 C 
ATOM     17  C   UNL     1      14.392  12.894  14.096  0.00  0.00    +0.077 C 
ATOM     18  C   UNL     1      15.770  12.396  13.694  0.00  0.00    +0.249 C 
ENDBRANCH   7   9
ENDBRANCH  10   7
BRANCH  14  19
ATOM     19  C   UNL     1      12.161   7.440  19.706  0.00  0.00    +0.138 C 
BRANCH  19   8
ATOM      6  O   UNL     1      14.078   7.659  21.833  0.00  0.00    -0.270 OA
ATOM      8  N   UNL     1      13.543   7.059  19.656  0.00  0.00    -0.309 N 
ATOM     20  C   UNL     1      14.403   7.201  20.740  0.00  0.00    +0.244 C 
ATOM     29  H   UNL     1      13.894   6.739  18.760  0.00  0.00    +0.149 HD
BRANCH  20  21
ATOM      3  F   UNL     1      19.727   5.623  19.906  0.00  0.00    -0.205 F 
ATOM     21  C   UNL     1      15.812   6.783  20.520  0.00  0.00    +0.037 A 
ATOM     22  C   UNL     1      16.189   6.222  19.301  0.00  0.00    +0.016 A 
ATOM     23  C   UNL     1      16.757   6.953  21.532  0.00  0.00    +0.016 A 
ATOM     24  C   UNL     1      17.511   5.829  19.093  0.00  0.00    +0.039 A 
ATOM     25  C   UNL     1      18.079   6.560  21.325  0.00  0.00    +0.039 A 
ATOM     26  C   UNL     1      18.456   5.998  20.105  0.00  0.00    +0.123 A 
ENDBRANCH  20  21
ENDBRANCH  19   8
ENDBRANCH  14  19
TORSDOF 6
ENDMDL
MODEL 7
REMARK VINA RESULT:      -6.8      3.523      5.285
REMARK  Name = 75536637
REMARK  6 active torsions:
REMARK  status: ('A' for Active; 'I' for Inactive)
REMARK    1  A    between atoms: O_5  and  C_11
REMARK    2  A    between atoms: N_7  and  C_9
REMARK    3  A    between atoms: N_7  and  C_10
REMARK    4  A    between atoms: N_8  and  C_19
REMARK    5  A    between atoms: C_14  and  C_19
REMARK    6  A    between atoms: C_20  and  C_21
REMARK                            x       y       z     vdW  Elec       q    Type
REMARK                         _______ _______ _______ _____ _____    ______ ____
ROOT
ATOM      4  O   UNL     1      13.736  13.847  23.353  0.00  0.00    -0.371 OA
ATOM     10  C   UNL     1      11.717  12.609  23.533  0.00  0.00    +0.111 C 
ATOM     11  C   UNL     1      12.844  11.812  24.161  0.00  0.00    +0.164 C 
ATOM     14  C   UNL     1      13.863  12.909  24.435  0.00  0.00    +0.165 C 
ATOM     15  C   UNL     1      12.490  13.600  22.677  0.00  0.00    +0.181 C 
ENDROOT
BRANCH  11   5
ATOM      5  O   UNL     1      12.450  11.151  25.349  0.00  0.00    -0.388 OA
ATOM     28  H   UNL     1      12.583  11.760  26.096  0.00  0.00    +0.210 HD
ENDBRANCH  11   5
BRANCH  10   7
ATOM      7  N   UNL     1      10.789  11.798  22.760  0.00  0.00    -0.306 NA
ATOM     27  H   UNL     1      10.382  12.352  22.007  0.00  0.00    +0.123 HD
BRANCH   7   9
ATOM      1  F   UNL     1      12.231   7.309  19.805  0.00  0.00    -0.206 F 
ATOM      2  F   UNL     1      10.446   8.527  19.562  0.00  0.00    -0.206 F 
ATOM      9  C   UNL     1      11.463  10.624  22.208  0.00  0.00    +0.054 C 
ATOM     12  C   UNL     1      10.572   9.387  22.378  0.00  0.00    +0.024 C 
ATOM     13  C   UNL     1      11.805  10.865  20.733  0.00  0.00    +0.024 C 
ATOM     16  C   UNL     1      11.214   8.151  21.748  0.00  0.00    +0.077 C 
ATOM     17  C   UNL     1      12.446   9.630  20.103  0.00  0.00    +0.077 C 
ATOM     18  C   UNL     1      11.582   8.396  20.295  0.00  0.00    +0.249 C 
ENDBRANCH   7   9
ENDBRANCH  10   7
BRANCH  14  19
ATOM     19  C   UNL     1      15.292  12.399  24.505  0.00  0.00    +0.138 C 
BRANCH  19   8
ATOM      6  O   UNL     1      15.925  11.999  21.733  0.00  0.00    -0.270 OA
ATOM      8  N   UNL     1      15.431  11.141  23.831  0.00  0.00    -0.309 N 
ATOM     20  C   UNL     1      15.740  11.040  22.479  0.00  0.00    +0.244 C 
ATOM     29  H   UNL     1      15.222  10.310  24.374  0.00  0.00    +0.149 HD
BRANCH  20  21
ATOM      3  F   UNL     1      16.053   5.839  20.387  0.00  0.00    -0.205 F 
ATOM     21  C   UNL     1      15.823   9.664  21.925  0.00  0.00    +0.037 A 
ATOM     22  C   UNL     1      16.810   9.346  20.993  0.00  0.00    +0.016 A 
ATOM     23  C   UNL     1      14.913   8.690  22.337  0.00  0.00    +0.016 A 
ATOM     24  C   UNL     1      16.889   8.054  20.473  0.00  0.00    +0.039 A 
ATOM     25  C   UNL     1      14.990   7.399  21.817  0.00  0.00    +0.039 A 
ATOM     26  C   UNL     1      15.978   7.081  20.885  0.00  0.00    +0.123 A 
ENDBRANCH  20  21
ENDBRANCH  19   8
ENDBRANCH  14  19
TORSDOF 6
ENDMDL
MODEL 8
REMARK VINA RESULT:      -6.7     26.548     29.704
REMARK  Name = 75536637
REMARK  6 active torsions:
REMARK  status: ('A' for Active; 'I' for Inactive)
REMARK    1  A    between atoms: O_5  and  C_11
REMARK    2  A    between atoms: N_7  and  C_9
REMARK    3  A    between atoms: N_7  and  C_10
REMARK    4  A    between atoms: N_8  and  C_19
REMARK    5  A    between atoms: C_14  and  C_19
REMARK    6  A    between atoms: C_20  and  C_21
REMARK                            x       y       z     vdW  Elec       q    Type
REMARK                         _______ _______ _______ _____ _____    ______ ____
ROOT
ATOM      4  O   UNL     1     -17.293   3.413  22.383  0.00  0.00    -0.371 OA
ATOM     10  C   UNL     1     -15.687   5.155  22.557  0.00  0.00    +0.111 C 
ATOM     11  C   UNL     1     -15.852   4.497  23.913  0.00  0.00    +0.164 C 
ATOM     14  C   UNL     1     -16.449   3.153  23.518  0.00  0.00    +0.165 C 
ATOM     15  C   UNL     1     -16.955   4.704  21.848  0.00  0.00    +0.181 C 
ENDROOT
BRANCH  11   5
ATOM      5  O   UNL     1     -14.624   4.345  24.600  0.00  0.00    -0.388 OA
ATOM     28  H   UNL     1     -13.929   4.156  23.945  0.00  0.00    +0.210 HD
ENDBRANCH  11   5
BRANCH  10   7
ATOM      7  N   UNL     1     -15.559   6.602  22.621  0.00  0.00    -0.306 NA
ATOM     27  H   UNL     1     -15.836   6.938  23.542  0.00  0.00    +0.123 HD
BRANCH   7   9
ATOM      1  F   UNL     1     -10.750   7.984  20.186  0.00  0.00    -0.206 F 
ATOM      2  F   UNL     1     -12.595   7.380  19.207  0.00  0.00    -0.206 F 
ATOM      9  C   UNL     1     -14.185   7.013  22.333  0.00  0.00    +0.054 C 
ATOM     12  C   UNL     1     -13.449   5.885  21.599  0.00  0.00    +0.024 C 
ATOM     13  C   UNL     1     -14.192   8.304  21.505  0.00  0.00    +0.024 C 
ATOM     16  C   UNL     1     -12.031   6.306  21.217  0.00  0.00    +0.077 C 
ATOM     17  C   UNL     1     -12.774   8.725  21.123  0.00  0.00    +0.077 C 
ATOM     18  C   UNL     1     -12.030   7.601  20.422  0.00  0.00    +0.249 C 
ENDBRANCH   7   9
ENDBRANCH  10   7
BRANCH  14  19
ATOM     19  C   UNL     1     -17.264   2.508  24.625  0.00  0.00    +0.138 C 
BRANCH  19   8
ATOM      6  O   UNL     1     -18.285   2.382  27.307  0.00  0.00    -0.270 OA
ATOM      8  N   UNL     1     -16.496   2.375  25.829  0.00  0.00    -0.309 N 
ATOM     20  C   UNL     1     -17.077   2.322  27.092  0.00  0.00    +0.244 C 
ATOM     29  H   UNL     1     -15.486   2.391  25.728  0.00  0.00    +0.149 HD
BRANCH  20  21
ATOM      3  F   UNL     1     -13.541   1.894  31.433  0.00  0.00    -0.205 F 
ATOM     21  C   UNL     1     -16.141   2.209  28.241  0.00  0.00    +0.037 A 
ATOM     22  C   UNL     1     -15.511   3.347  28.742  0.00  0.00    +0.016 A 
ATOM     23  C   UNL     1     -15.892   0.963  28.818  0.00  0.00    +0.016 A 
ATOM     24  C   UNL     1     -14.632   3.242  29.819  0.00  0.00    +0.039 A 
ATOM     25  C   UNL     1     -15.013   0.857  29.896  0.00  0.00    +0.039 A 
ATOM     26  C   UNL     1     -14.384   1.997  30.396  0.00  0.00    +0.123 A 
ENDBRANCH  20  21
ENDBRANCH  19   8
ENDBRANCH  14  19
TORSDOF 6
ENDMDL
MODEL 9
REMARK VINA RESULT:      -6.6     27.198     28.819
REMARK  Name = 75536637
REMARK  6 active torsions:
REMARK  status: ('A' for Active; 'I' for Inactive)
REMARK    1  A    between atoms: O_5  and  C_11
REMARK    2  A    between atoms: N_7  and  C_9
REMARK    3  A    between atoms: N_7  and  C_10
REMARK    4  A    between atoms: N_8  and  C_19
REMARK    5  A    between atoms: C_14  and  C_19
REMARK    6  A    between atoms: C_20  and  C_21
REMARK                            x       y       z     vdW  Elec       q    Type
REMARK                         _______ _______ _______ _____ _____    ______ ____
ROOT
ATOM      4  O   UNL     1      -5.044 -10.996  18.844  0.00  0.00    -0.371 OA
ATOM     10  C   UNL     1      -7.099 -10.203  17.954  0.00  0.00    +0.111 C 
ATOM     11  C   UNL     1      -6.026 -10.107  16.885  0.00  0.00    +0.164 C 
ATOM     14  C   UNL     1      -4.998 -11.099  17.411  0.00  0.00    +0.165 C 
ATOM     15  C   UNL     1      -6.256 -10.317  19.215  0.00  0.00    +0.181 C 
ENDROOT
BRANCH  11   5
ATOM      5  O   UNL     1      -6.500 -10.471  15.602  0.00  0.00    -0.388 OA
ATOM     28  H   UNL     1      -6.140 -11.347  15.380  0.00  0.00    +0.210 HD
ENDBRANCH  11   5
BRANCH  10   7
ATOM      7  N   UNL     1      -8.002  -9.064  17.978  0.00  0.00    -0.306 NA
ATOM     27  H   UNL     1      -7.644  -8.319  17.382  0.00  0.00    +0.123 HD
BRANCH   7   9
ATOM      1  F   UNL     1     -13.456 -10.098  17.597  0.00  0.00    -0.206 F 
ATOM      2  F   UNL     1     -12.393  -9.247  19.293  0.00  0.00    -0.206 F 
ATOM      9  C   UNL     1      -9.341  -9.455  17.539  0.00  0.00    +0.054 C 
ATOM     12  C   UNL     1      -9.887 -10.555  18.459  0.00  0.00    +0.024 C 
ATOM     13  C   UNL     1     -10.263  -8.230  17.528  0.00  0.00    +0.024 C 
ATOM     16  C   UNL     1     -11.315 -10.940  18.074  0.00  0.00    +0.077 C 
ATOM     17  C   UNL     1     -11.691  -8.614  17.144  0.00  0.00    +0.077 C 
ATOM     18  C   UNL     1     -12.226  -9.725  18.032  0.00  0.00    +0.249 C 
ENDBRANCH   7   9
ENDBRANCH  10   7
BRANCH  14  19
ATOM     19  C   UNL     1      -3.588 -10.819  16.922  0.00  0.00    +0.138 C 
BRANCH  19   8
ATOM      6  O   UNL     1      -2.596 -12.299  14.670  0.00  0.00    -0.270 OA
ATOM      8  N   UNL     1      -3.585 -10.395  15.552  0.00  0.00    -0.309 N 
ATOM     20  C   UNL     1      -3.081 -11.180  14.520  0.00  0.00    +0.244 C 
ATOM     29  H   UNL     1      -3.907  -9.450  15.369  0.00  0.00    +0.149 HD
BRANCH  20  21
ATOM      3  F   UNL     1      -3.257  -8.933   9.378  0.00  0.00    -0.205 F 
ATOM     21  C   UNL     1      -3.127 -10.585  13.160  0.00  0.00    +0.037 A 
ATOM     22  C   UNL     1      -1.943 -10.333  12.469  0.00  0.00    +0.016 A 
ATOM     23  C   UNL     1      -4.356 -10.279  12.574  0.00  0.00    +0.016 A 
ATOM     24  C   UNL     1      -1.985  -9.774  11.192  0.00  0.00    +0.039 A 
ATOM     25  C   UNL     1      -4.399  -9.720  11.297  0.00  0.00    +0.039 A 
ATOM     26  C   UNL     1      -3.214  -9.468  10.606  0.00  0.00    +0.123 A 
ENDBRANCH  20  21
ENDBRANCH  19   8
ENDBRANCH  14  19
TORSDOF 6
ENDMDL
MODEL 10
REMARK VINA RESULT:      -6.5      3.803      5.424
REMARK  Name = 75536637
REMARK  6 active torsions:
REMARK  status: ('A' for Active; 'I' for Inactive)
REMARK    1  A    between atoms: O_5  and  C_11
REMARK    2  A    between atoms: N_7  and  C_9
REMARK    3  A    between atoms: N_7  and  C_10
REMARK    4  A    between atoms: N_8  and  C_19
REMARK    5  A    between atoms: C_14  and  C_19
REMARK    6  A    between atoms: C_20  and  C_21
REMARK                            x       y       z     vdW  Elec       q    Type
REMARK                         _______ _______ _______ _____ _____    ______ ____
ROOT
ATOM      4  O   UNL     1      14.673  12.637  22.050  0.00  0.00    -0.371 OA
ATOM     10  C   UNL     1      13.164  11.237  23.235  0.00  0.00    +0.111 C 
ATOM     11  C   UNL     1      14.580  10.937  23.691  0.00  0.00    +0.164 C 
ATOM     14  C   UNL     1      15.300  12.211  23.271  0.00  0.00    +0.165 C 
ATOM     15  C   UNL     1      13.418  11.949  21.915  0.00  0.00    +0.181 C 
ENDROOT
BRANCH  11   5
ATOM      5  O   UNL     1      14.670  10.716  25.085  0.00  0.00    -0.388 OA
ATOM     28  H   UNL     1      15.549  10.348  25.281  0.00  0.00    +0.210 HD
ENDBRANCH  11   5
BRANCH  10   7
ATOM      7  N   UNL     1      12.334  10.052  23.089  0.00  0.00    -0.306 NA
ATOM     27  H   UNL     1      11.352  10.294  23.210  0.00  0.00    +0.123 HD
BRANCH   7   9
ATOM      1  F   UNL     1      12.419   6.631  18.700  0.00  0.00    -0.206 F 
ATOM      2  F   UNL     1      11.538   6.248  20.652  0.00  0.00    -0.206 F 
ATOM      9  C   UNL     1      12.539   9.436  21.778  0.00  0.00    +0.054 C 
ATOM     12  C   UNL     1      13.380   8.163  21.929  0.00  0.00    +0.024 C 
ATOM     13  C   UNL     1      11.183   9.135  21.129  0.00  0.00    +0.024 C 
ATOM     16  C   UNL     1      13.553   7.452  20.588  0.00  0.00    +0.077 C 
ATOM     17  C   UNL     1      11.356   8.423  19.788  0.00  0.00    +0.077 C 
ATOM     18  C   UNL     1      12.214   7.177  19.926  0.00  0.00    +0.249 C 
ENDBRANCH   7   9
ENDBRANCH  10   7
BRANCH  14  19
ATOM     19  C   UNL     1      16.788  12.013  23.042  0.00  0.00    +0.138 C 
BRANCH  19   8
ATOM      6  O   UNL     1      18.949  11.246  21.313  0.00  0.00    -0.270 OA
ATOM      8  N   UNL     1      17.070  10.693  22.558  0.00  0.00    -0.309 N 
ATOM     20  C   UNL     1      18.144  10.411  21.719  0.00  0.00    +0.244 C 
ATOM     29  H   UNL     1      16.403   9.968  22.799  0.00  0.00    +0.149 HD
BRANCH  20  21
ATOM      3  F   UNL     1      18.673   5.067  20.079  0.00  0.00    -0.205 F 
ATOM     21  C   UNL     1      18.284   8.997  21.284  0.00  0.00    +0.037 A 
ATOM     22  C   UNL     1      19.524   8.364  21.363  0.00  0.00    +0.016 A 
ATOM     23  C   UNL     1      17.176   8.303  20.798  0.00  0.00    +0.016 A 
ATOM     24  C   UNL     1      19.657   7.036  20.955  0.00  0.00    +0.039 A 
ATOM     25  C   UNL     1      17.308   6.976  20.390  0.00  0.00    +0.039 A 
ATOM     26  C   UNL     1      18.548   6.343  20.469  0.00  0.00    +0.123 A 
ENDBRANCH  20  21
ENDBRANCH  19   8
ENDBRANCH  14  19
TORSDOF 6
ENDMDL
