MODEL 1
REMARK VINA RESULT:      -7.6      0.000      0.000
REMARK  Name = 45784432
REMARK  10 active torsions:
REMARK  status: ('A' for Active; 'I' for Inactive)
REMARK    1  A    between atoms: O_3  and  C_12
REMARK    2  A    between atoms: N_6  and  C_16
REMARK    3  A    between atoms: N_7  and  C_25
REMARK    4  A    between atoms: N_8  and  C_26
REMARK    5  A    between atoms: C_9  and  C_19
REMARK    6  A    between atoms: C_11  and  C_21
REMARK    7  A    between atoms: C_15  and  C_20
REMARK    8  A    between atoms: C_20  and  C_22
REMARK    9  A    between atoms: C_20  and  C_23
REMARK   10  A    between atoms: C_25  and  C_27
REMARK                            x       y       z     vdW  Elec       q    Type
REMARK                         _______ _______ _______ _____ _____    ______ ____
ROOT
ATOM      9  C   UNL     1      15.491  10.239  21.145  0.00  0.00    -0.027 C 
ATOM     10  C   UNL     1      15.163   8.769  21.571  0.00  0.00    +0.028 C 
ATOM     11  C   UNL     1      16.168   7.757  20.911  0.00  0.00    +0.012 C 
ATOM     12  C   UNL     1      13.656   8.445  21.363  0.00  0.00    +0.122 C 
ATOM     13  C   UNL     1      14.558  11.216  21.898  0.00  0.00    +0.007 C 
ATOM     14  C   UNL     1      16.945  10.568  21.551  0.00  0.00    +0.009 C 
ATOM     15  C   UNL     1      12.727   9.485  22.032  0.00  0.00    +0.029 C 
ATOM     16  C   UNL     1      17.631   8.144  21.266  0.00  0.00    +0.078 C 
ATOM     17  C   UNL     1      13.082  10.925  21.665  0.00  0.00    +0.007 C 
ATOM     18  C   UNL     1      17.965   9.604  20.961  0.00  0.00    +0.023 C 
ATOM     19  C   UNL     1      15.324  10.466  19.621  0.00  0.00    +0.011 C 
ATOM     21  C   UNL     1      15.919   6.294  21.312  0.00  0.00    +0.010 C 
ENDROOT
BRANCH  16   6
ATOM      5  O   UNL     1      19.836   6.746  22.445  0.00  0.00    -0.253 OA
ATOM      6  N   UNL     1      18.589   7.302  20.580  0.00  0.00    -0.296 N 
ATOM      8  N   UNL     1      20.396   5.917  20.322  0.00  0.00    -0.269 N 
ATOM     24  C   UNL     1      19.639   6.655  21.235  0.00  0.00    +0.304 C 
ATOM     36  H   UNL     1      18.541   7.243  19.567  0.00  0.00    +0.151 HD
ATOM     39  H   UNL     1      20.096   5.946  19.351  0.00  0.00    +0.156 HD
BRANCH   8  26
ATOM      2  F   UNL     1      25.166   5.392  20.490  0.00  0.00    -0.205 F 
ATOM     26  C   UNL     1      21.539   5.124  20.581  0.00  0.00    +0.037 A 
ATOM     28  C   UNL     1      22.815   5.660  20.405  0.00  0.00    +0.061 A 
ATOM     29  C   UNL     1      21.390   3.806  21.013  0.00  0.00    +0.023 A 
ATOM     31  C   UNL     1      23.941   4.878  20.660  0.00  0.00    +0.125 A 
ATOM     32  C   UNL     1      22.516   3.024  21.268  0.00  0.00    +0.005 A 
ATOM     35  C   UNL     1      23.792   3.560  21.092  0.00  0.00    +0.038 A 
ENDBRANCH   8  26
ENDBRANCH  16   6
BRANCH  12   3
ATOM      3  O   UNL     1      13.352   7.184  21.960  0.00  0.00    -0.391 OA
ATOM     37  H   UNL     1      12.483   7.255  22.392  0.00  0.00    +0.210 HD
ENDBRANCH  12   3
BRANCH  15  20
ATOM     20  C   UNL     1      11.251   9.222  21.706  0.00  0.00    +0.077 C 
ATOM     22  C   UNL     1      10.553   8.590  22.905  0.00  0.00    +0.017 C 
BRANCH  20  23
ATOM      4  O   UNL     1      11.049   7.113  20.533  0.00  0.00    -0.276 OA
ATOM      7  N   UNL     1      11.160   9.068  19.289  0.00  0.00    -0.310 N 
ATOM     23  C   UNL     1      11.141   8.337  20.468  0.00  0.00    +0.216 C 
ATOM     38  H   UNL     1      11.265  10.078  19.329  0.00  0.00    +0.149 HD
BRANCH   7  25
ATOM     25  C   UNL     1      11.072   8.451  17.986  0.00  0.00    +0.146 C 
BRANCH  25  27
ATOM      1  S   UNL     1      12.560   9.440  15.860  0.00  0.00    -0.100 S 
ATOM     27  C   UNL     1      12.387   8.474  17.263  0.00  0.00    +0.007 A 
ATOM     30  C   UNL     1      13.547   7.796  17.570  0.00  0.00    +0.013 A 
ATOM     33  C   UNL     1      14.591   8.075  16.642  0.00  0.00    +0.008 A 
ATOM     34  C   UNL     1      14.190   8.954  15.661  0.00  0.00    +0.045 A 
ENDBRANCH  25  27
ENDBRANCH   7  25
ENDBRANCH  20  23
ENDBRANCH  15  20
TORSDOF 7
ENDMDL
MODEL 2
REMARK VINA RESULT:      -7.5     27.719     31.148
REMARK  Name = 45784432
REMARK  10 active torsions:
REMARK  status: ('A' for Active; 'I' for Inactive)
REMARK    1  A    between atoms: O_3  and  C_12
REMARK    2  A    between atoms: N_6  and  C_16
REMARK    3  A    between atoms: N_7  and  C_25
REMARK    4  A    between atoms: N_8  and  C_26
REMARK    5  A    between atoms: C_9  and  C_19
REMARK    6  A    between atoms: C_11  and  C_21
REMARK    7  A    between atoms: C_15  and  C_20
REMARK    8  A    between atoms: C_20  and  C_22
REMARK    9  A    between atoms: C_20  and  C_23
REMARK   10  A    between atoms: C_25  and  C_27
REMARK                            x       y       z     vdW  Elec       q    Type
REMARK                         _______ _______ _______ _____ _____    ______ ____
ROOT
ATOM      9  C   UNL     1      -3.244 -11.116  11.649  0.00  0.00    -0.027 C 
ATOM     10  C   UNL     1      -4.560 -10.546  12.276  0.00  0.00    +0.028 C 
ATOM     11  C   UNL     1      -5.190  -9.445  11.350  0.00  0.00    +0.012 C 
ATOM     12  C   UNL     1      -4.343 -10.129  13.759  0.00  0.00    +0.122 C 
ATOM     13  C   UNL     1      -2.712 -12.273  12.526  0.00  0.00    +0.007 C 
ATOM     14  C   UNL     1      -3.561 -11.692  10.250  0.00  0.00    +0.009 C 
ATOM     15  C   UNL     1      -3.713 -11.258  14.608  0.00  0.00    +0.029 C 
ATOM     16  C   UNL     1      -5.435 -10.015   9.925  0.00  0.00    +0.078 C 
ATOM     17  C   UNL     1      -2.461 -11.858  13.969  0.00  0.00    +0.007 C 
ATOM     18  C   UNL     1      -4.199 -10.676   9.314  0.00  0.00    +0.023 C 
ATOM     19  C   UNL     1      -2.136 -10.041  11.517  0.00  0.00    +0.011 C 
ATOM     21  C   UNL     1      -6.505  -8.862  11.895  0.00  0.00    +0.010 C 
ENDROOT
BRANCH  16   6
ATOM      5  O   UNL     1      -7.142 -10.402   7.657  0.00  0.00    -0.253 OA
ATOM      6  N   UNL     1      -5.907  -8.995   9.012  0.00  0.00    -0.296 N 
ATOM      8  N   UNL     1      -7.031  -8.097   7.229  0.00  0.00    -0.269 N 
ATOM     24  C   UNL     1      -6.741  -9.272   7.927  0.00  0.00    +0.304 C 
ATOM     36  H   UNL     1      -5.553  -8.049   9.122  0.00  0.00    +0.151 HD
ATOM     39  H   UNL     1      -6.619  -7.239   7.587  0.00  0.00    +0.156 HD
BRANCH   8  26
ATOM      2  F   UNL     1      -7.658  -8.530   2.489  0.00  0.00    -0.205 F 
ATOM     26  C   UNL     1      -7.836  -7.948   6.076  0.00  0.00    +0.037 A 
ATOM     28  C   UNL     1      -7.341  -8.321   4.826  0.00  0.00    +0.061 A 
ATOM     29  C   UNL     1      -9.127  -7.429   6.187  0.00  0.00    +0.023 A 
ATOM     31  C   UNL     1      -8.135  -8.174   3.688  0.00  0.00    +0.125 A 
ATOM     32  C   UNL     1      -9.920  -7.282   5.051  0.00  0.00    +0.005 A 
ATOM     35  C   UNL     1      -9.424  -7.655   3.801  0.00  0.00    +0.038 A 
ENDBRANCH   8  26
ENDBRANCH  16   6
BRANCH  12   3
ATOM      3  O   UNL     1      -5.602  -9.822  14.358  0.00  0.00    -0.391 OA
ATOM     37  H   UNL     1      -5.479  -9.058  14.947  0.00  0.00    +0.210 HD
ENDBRANCH  12   3
BRANCH  15  20
ATOM     20  C   UNL     1      -3.386 -10.785  16.030  0.00  0.00    +0.077 C 
ATOM     22  C   UNL     1      -1.888 -10.890  16.287  0.00  0.00    +0.017 C 
BRANCH  20  23
ATOM      4  O   UNL     1      -3.831 -11.729  18.216  0.00  0.00    -0.276 OA
ATOM      7  N   UNL     1      -5.325 -12.164  16.495  0.00  0.00    -0.310 N 
ATOM     23  C   UNL     1      -4.183 -11.599  17.045  0.00  0.00    +0.216 C 
ATOM     38  H   UNL     1      -5.526 -12.025  15.509  0.00  0.00    +0.149 HD
BRANCH   7  25
ATOM     25  C   UNL     1      -6.239 -12.980  17.260  0.00  0.00    +0.146 C 
BRANCH  25  27
ATOM      1  S   UNL     1      -7.923 -12.653  19.444  0.00  0.00    -0.100 S 
ATOM     27  C   UNL     1      -7.302 -12.158  17.928  0.00  0.00    +0.007 A 
ATOM     30  C   UNL     1      -7.894 -10.994  17.483  0.00  0.00    +0.013 A 
ATOM     33  C   UNL     1      -8.868 -10.505  18.400  0.00  0.00    +0.008 A 
ATOM     34  C   UNL     1      -8.985 -11.312  19.510  0.00  0.00    +0.045 A 
ENDBRANCH  25  27
ENDBRANCH   7  25
ENDBRANCH  20  23
ENDBRANCH  15  20
TORSDOF 7
ENDMDL
MODEL 3
REMARK VINA RESULT:      -7.2      2.917      4.485
REMARK  Name = 45784432
REMARK  10 active torsions:
REMARK  status: ('A' for Active; 'I' for Inactive)
REMARK    1  A    between atoms: O_3  and  C_12
REMARK    2  A    between atoms: N_6  and  C_16
REMARK    3  A    between atoms: N_7  and  C_25
REMARK    4  A    between atoms: N_8  and  C_26
REMARK    5  A    between atoms: C_9  and  C_19
REMARK    6  A    between atoms: C_11  and  C_21
REMARK    7  A    between atoms: C_15  and  C_20
REMARK    8  A    between atoms: C_20  and  C_22
REMARK    9  A    between atoms: C_20  and  C_23
REMARK   10  A    between atoms: C_25  and  C_27
REMARK                            x       y       z     vdW  Elec       q    Type
REMARK                         _______ _______ _______ _____ _____    ______ ____
ROOT
ATOM      9  C   UNL     1      16.625  10.173  21.555  0.00  0.00    -0.027 C 
ATOM     10  C   UNL     1      16.078   8.727  21.794  0.00  0.00    +0.028 C 
ATOM     11  C   UNL     1      16.963   7.663  21.052  0.00  0.00    +0.012 C 
ATOM     12  C   UNL     1      14.551   8.646  21.504  0.00  0.00    +0.122 C 
ATOM     13  C   UNL     1      15.801  11.182  22.389  0.00  0.00    +0.007 C 
ATOM     14  C   UNL     1      18.090  10.244  22.042  0.00  0.00    +0.009 C 
ATOM     15  C   UNL     1      13.744   9.727  22.261  0.00  0.00    +0.029 C 
ATOM     16  C   UNL     1      18.447   7.795  21.495  0.00  0.00    +0.078 C 
ATOM     17  C   UNL     1      14.311  11.133  22.078  0.00  0.00    +0.007 C 
ATOM     18  C   UNL     1      18.994   9.217  21.375  0.00  0.00    +0.023 C 
ATOM     19  C   UNL     1      16.563  10.591  20.064  0.00  0.00    +0.011 C 
ATOM     21  C   UNL     1      16.497   6.214  21.270  0.00  0.00    +0.010 C 
ENDROOT
BRANCH  16   6
ATOM      5  O   UNL     1      20.607   6.225  22.533  0.00  0.00    -0.253 OA
ATOM      6  N   UNL     1      19.312   6.907  20.744  0.00  0.00    -0.296 N 
ATOM      8  N   UNL     1      21.006   5.411  20.368  0.00  0.00    -0.269 N 
ATOM     24  C   UNL     1      20.346   6.176  21.333  0.00  0.00    +0.304 C 
ATOM     36  H   UNL     1      19.210   6.876  19.734  0.00  0.00    +0.151 HD
ATOM     39  H   UNL     1      20.662   5.483  19.414  0.00  0.00    +0.156 HD
BRANCH   8  26
ATOM      2  F   UNL     1      25.663   4.382  19.824  0.00  0.00    -0.205 F 
ATOM     26  C   UNL     1      22.103   4.537  20.553  0.00  0.00    +0.037 A 
ATOM     28  C   UNL     1      23.368   4.898  20.089  0.00  0.00    +0.061 A 
ATOM     29  C   UNL     1      21.920   3.314  21.200  0.00  0.00    +0.023 A 
ATOM     31  C   UNL     1      24.449   4.036  20.271  0.00  0.00    +0.125 A 
ATOM     32  C   UNL     1      23.001   2.453  21.383  0.00  0.00    +0.005 A 
ATOM     35  C   UNL     1      24.266   2.814  20.918  0.00  0.00    +0.038 A 
ENDBRANCH   8  26
ENDBRANCH  16   6
BRANCH  12   3
ATOM      3  O   UNL     1      14.049   7.383  21.937  0.00  0.00    -0.391 OA
ATOM     37  H   UNL     1      13.244   7.186  21.428  0.00  0.00    +0.210 HD
ENDBRANCH  12   3
BRANCH  15  20
ATOM     20  C   UNL     1      12.263   9.715  21.861  0.00  0.00    +0.077 C 
ATOM     22  C   UNL     1      12.124   9.925  20.357  0.00  0.00    +0.017 C 
BRANCH  20  23
ATOM      4  O   UNL     1      10.918  11.715  22.099  0.00  0.00    -0.276 OA
ATOM      7  N   UNL     1      11.560  10.574  24.015  0.00  0.00    -0.310 N 
ATOM     23  C   UNL     1      11.504  10.782  22.644  0.00  0.00    +0.216 C 
ATOM     38  H   UNL     1      12.090   9.789  24.381  0.00  0.00    +0.149 HD
BRANCH   7  25
ATOM     25  C   UNL     1      10.918  11.454  24.964  0.00  0.00    +0.146 C 
BRANCH  25  27
ATOM      1  S   UNL     1      11.122  14.184  25.437  0.00  0.00    -0.100 S 
ATOM     27  C   UNL     1      11.795  12.612  25.339  0.00  0.00    +0.007 A 
ATOM     30  C   UNL     1      13.142  12.609  25.634  0.00  0.00    +0.013 A 
ATOM     33  C   UNL     1      13.625  13.912  25.945  0.00  0.00    +0.008 A 
ATOM     34  C   UNL     1      12.631  14.863  25.875  0.00  0.00    +0.045 A 
ENDBRANCH  25  27
ENDBRANCH   7  25
ENDBRANCH  20  23
ENDBRANCH  15  20
TORSDOF 7
ENDMDL
MODEL 4
REMARK VINA RESULT:      -7.2     17.638     22.085
REMARK  Name = 45784432
REMARK  10 active torsions:
REMARK  status: ('A' for Active; 'I' for Inactive)
REMARK    1  A    between atoms: O_3  and  C_12
REMARK    2  A    between atoms: N_6  and  C_16
REMARK    3  A    between atoms: N_7  and  C_25
REMARK    4  A    between atoms: N_8  and  C_26
REMARK    5  A    between atoms: C_9  and  C_19
REMARK    6  A    between atoms: C_11  and  C_21
REMARK    7  A    between atoms: C_15  and  C_20
REMARK    8  A    between atoms: C_20  and  C_22
REMARK    9  A    between atoms: C_20  and  C_23
REMARK   10  A    between atoms: C_25  and  C_27
REMARK                            x       y       z     vdW  Elec       q    Type
REMARK                         _______ _______ _______ _____ _____    ______ ____
ROOT
ATOM      9  C   UNL     1      13.608   4.733  -1.506  0.00  0.00    -0.027 C 
ATOM     10  C   UNL     1      14.601   4.043  -0.513  0.00  0.00    +0.028 C 
ATOM     11  C   UNL     1      14.032   4.061   0.951  0.00  0.00    +0.012 C 
ATOM     12  C   UNL     1      16.043   4.604  -0.676  0.00  0.00    +0.122 C 
ATOM     13  C   UNL     1      14.145   4.599  -2.951  0.00  0.00    +0.007 C 
ATOM     14  C   UNL     1      12.245   4.008  -1.441  0.00  0.00    +0.009 C 
ATOM     15  C   UNL     1      16.535   4.563  -2.142  0.00  0.00    +0.029 C 
ATOM     16  C   UNL     1      12.627   3.396   0.990  0.00  0.00    +0.078 C 
ATOM     17  C   UNL     1      15.541   5.183  -3.123  0.00  0.00    +0.007 C 
ATOM     18  C   UNL     1      11.653   3.971  -0.038  0.00  0.00    +0.023 C 
ATOM     19  C   UNL     1      13.402   6.236  -1.190  0.00  0.00    +0.011 C 
ATOM     21  C   UNL     1      14.947   3.371   1.976  0.00  0.00    +0.010 C 
ENDROOT
BRANCH  16   6
ATOM      5  O   UNL     1      11.632   5.776   2.236  0.00  0.00    -0.253 OA
ATOM      6  N   UNL     1      12.022   3.498   2.302  0.00  0.00    -0.296 N 
ATOM      8  N   UNL     1      11.030   4.497   4.110  0.00  0.00    -0.269 N 
ATOM     24  C   UNL     1      11.562   4.704   2.835  0.00  0.00    +0.304 C 
ATOM     36  H   UNL     1      12.003   2.670   2.889  0.00  0.00    +0.151 HD
ATOM     39  H   UNL     1      11.046   3.543   4.461  0.00  0.00    +0.156 HD
BRANCH   8  26
ATOM      2  F   UNL     1      11.527   8.055   7.293  0.00  0.00    -0.205 F 
ATOM     26  C   UNL     1      10.464   5.456   4.981  0.00  0.00    +0.037 A 
ATOM     28  C   UNL     1      11.291   6.300   5.722  0.00  0.00    +0.061 A 
ATOM     29  C   UNL     1       9.077   5.558   5.101  0.00  0.00    +0.023 A 
ATOM     31  C   UNL     1      10.732   7.246   6.582  0.00  0.00    +0.125 A 
ATOM     32  C   UNL     1       8.519   6.504   5.960  0.00  0.00    +0.005 A 
ATOM     35  C   UNL     1       9.347   7.348   6.701  0.00  0.00    +0.038 A 
ENDBRANCH   8  26
ENDBRANCH  16   6
BRANCH  12   3
ATOM      3  O   UNL     1      16.954   3.808   0.082  0.00  0.00    -0.391 OA
ATOM     37  H   UNL     1      16.459   3.064   0.466  0.00  0.00    +0.210 HD
ENDBRANCH  12   3
BRANCH  15  20
ATOM     20  C   UNL     1      17.902   5.239  -2.303  0.00  0.00    +0.077 C 
ATOM     22  C   UNL     1      17.810   6.378  -3.311  0.00  0.00    +0.017 C 
BRANCH  20  23
ATOM      4  O   UNL     1      19.327   4.083  -3.884  0.00  0.00    -0.276 OA
ATOM      7  N   UNL     1      19.399   3.446  -1.655  0.00  0.00    -0.310 N 
ATOM     23  C   UNL     1      18.946   4.208  -2.722  0.00  0.00    +0.216 C 
ATOM     38  H   UNL     1      19.010   3.601  -0.729  0.00  0.00    +0.149 HD
BRANCH   7  25
ATOM     25  C   UNL     1      20.388   2.404  -1.804  0.00  0.00    +0.146 C 
BRANCH  25  27
ATOM      1  S   UNL     1      22.995   3.064  -2.502  0.00  0.00    -0.100 S 
ATOM     27  C   UNL     1      21.747   2.850  -1.348  0.00  0.00    +0.007 A 
ATOM     30  C   UNL     1      22.174   3.131  -0.068  0.00  0.00    +0.013 A 
ATOM     33  C   UNL     1      23.542   3.527  -0.035  0.00  0.00    +0.008 A 
ATOM     34  C   UNL     1      24.109   3.534  -1.290  0.00  0.00    +0.045 A 
ENDBRANCH  25  27
ENDBRANCH   7  25
ENDBRANCH  20  23
ENDBRANCH  15  20
TORSDOF 7
ENDMDL
MODEL 5
REMARK VINA RESULT:      -7.1     28.487     31.944
REMARK  Name = 45784432
REMARK  10 active torsions:
REMARK  status: ('A' for Active; 'I' for Inactive)
REMARK    1  A    between atoms: O_3  and  C_12
REMARK    2  A    between atoms: N_6  and  C_16
REMARK    3  A    between atoms: N_7  and  C_25
REMARK    4  A    between atoms: N_8  and  C_26
REMARK    5  A    between atoms: C_9  and  C_19
REMARK    6  A    between atoms: C_11  and  C_21
REMARK    7  A    between atoms: C_15  and  C_20
REMARK    8  A    between atoms: C_20  and  C_22
REMARK    9  A    between atoms: C_20  and  C_23
REMARK   10  A    between atoms: C_25  and  C_27
REMARK                            x       y       z     vdW  Elec       q    Type
REMARK                         _______ _______ _______ _____ _____    ______ ____
ROOT
ATOM      9  C   UNL     1      -4.081 -10.442   9.971  0.00  0.00    -0.027 C 
ATOM     10  C   UNL     1      -5.458 -10.178  10.666  0.00  0.00    +0.028 C 
ATOM     11  C   UNL     1      -6.273  -9.080   9.893  0.00  0.00    +0.012 C 
ATOM     12  C   UNL     1      -5.282  -9.930  12.192  0.00  0.00    +0.122 C 
ATOM     13  C   UNL     1      -3.355 -11.605  10.689  0.00  0.00    +0.007 C 
ATOM     14  C   UNL     1      -4.329 -10.874   8.508  0.00  0.00    +0.009 C 
ATOM     15  C   UNL     1      -4.464 -11.045  12.885  0.00  0.00    +0.029 C 
ATOM     16  C   UNL     1      -6.451  -9.490   8.404  0.00  0.00    +0.078 C 
ATOM     17  C   UNL     1      -3.145 -11.347  12.175  0.00  0.00    +0.007 C 
ATOM     18  C   UNL     1      -5.139  -9.858   7.713  0.00  0.00    +0.023 C 
ATOM     19  C   UNL     1      -3.160  -9.196   9.986  0.00  0.00    +0.011 C 
ATOM     21  C   UNL     1      -7.653  -8.791  10.508  0.00  0.00    +0.010 C 
ENDROOT
BRANCH  16   6
ATOM      5  O   UNL     1      -8.398  -9.846   6.333  0.00  0.00    -0.253 OA
ATOM      6  N   UNL     1      -7.097  -8.447   7.635  0.00  0.00    -0.296 N 
ATOM      8  N   UNL     1      -8.488  -7.515   6.070  0.00  0.00    -0.269 N 
ATOM     24  C   UNL     1      -8.040  -8.710   6.638  0.00  0.00    +0.304 C 
ATOM     36  H   UNL     1      -6.793  -7.488   7.773  0.00  0.00    +0.151 HD
ATOM     39  H   UNL     1      -8.091  -6.656   6.441  0.00  0.00    +0.156 HD
BRANCH   8  26
ATOM      2  F   UNL     1      -9.547  -7.013   1.415  0.00  0.00    -0.205 F 
ATOM     26  C   UNL     1      -9.438  -7.348   5.035  0.00  0.00    +0.037 A 
ATOM     28  C   UNL     1      -9.016  -7.262   3.708  0.00  0.00    +0.061 A 
ATOM     29  C   UNL     1     -10.797  -7.269   5.341  0.00  0.00    +0.023 A 
ATOM     31  C   UNL     1      -9.953  -7.097   2.688  0.00  0.00    +0.125 A 
ATOM     32  C   UNL     1     -11.733  -7.105   4.321  0.00  0.00    +0.005 A 
ATOM     35  C   UNL     1     -11.311  -7.018   2.994  0.00  0.00    +0.038 A 
ENDBRANCH   8  26
ENDBRANCH  16   6
BRANCH  12   3
ATOM      3  O   UNL     1      -6.562  -9.910  12.823  0.00  0.00    -0.391 OA
ATOM     37  H   UNL     1      -7.200 -10.338  12.227  0.00  0.00    +0.210 HD
ENDBRANCH  12   3
BRANCH  15  20
ATOM     20  C   UNL     1      -4.189 -10.717  14.358  0.00  0.00    +0.077 C 
ATOM     22  C   UNL     1      -2.698 -10.834  14.653  0.00  0.00    +0.017 C 
BRANCH  20  23
ATOM      4  O   UNL     1      -6.232 -11.732  15.174  0.00  0.00    -0.276 OA
ATOM      7  N   UNL     1      -4.221 -12.334  16.163  0.00  0.00    -0.310 N 
ATOM     23  C   UNL     1      -5.009 -11.637  15.258  0.00  0.00    +0.216 C 
ATOM     38  H   UNL     1      -3.218 -12.175  16.179  0.00  0.00    +0.149 HD
BRANCH   7  25
ATOM     25  C   UNL     1      -4.771 -13.266  17.120  0.00  0.00    +0.146 C 
BRANCH  25  27
ATOM      1  S   UNL     1      -7.184 -12.936  18.456  0.00  0.00    -0.100 S 
ATOM     27  C   UNL     1      -5.530 -12.567  18.211  0.00  0.00    +0.007 A 
ATOM     30  C   UNL     1      -5.075 -11.617  19.100  0.00  0.00    +0.013 A 
ATOM     33  C   UNL     1      -6.099 -11.187  19.993  0.00  0.00    +0.008 A 
ATOM     34  C   UNL     1      -7.296 -11.824  19.753  0.00  0.00    +0.045 A 
ENDBRANCH  25  27
ENDBRANCH   7  25
ENDBRANCH  20  23
ENDBRANCH  15  20
TORSDOF 7
ENDMDL
MODEL 6
REMARK VINA RESULT:      -7.0     27.996     32.389
REMARK  Name = 45784432
REMARK  10 active torsions:
REMARK  status: ('A' for Active; 'I' for Inactive)
REMARK    1  A    between atoms: O_3  and  C_12
REMARK    2  A    between atoms: N_6  and  C_16
REMARK    3  A    between atoms: N_7  and  C_25
REMARK    4  A    between atoms: N_8  and  C_26
REMARK    5  A    between atoms: C_9  and  C_19
REMARK    6  A    between atoms: C_11  and  C_21
REMARK    7  A    between atoms: C_15  and  C_20
REMARK    8  A    between atoms: C_20  and  C_22
REMARK    9  A    between atoms: C_20  and  C_23
REMARK   10  A    between atoms: C_25  and  C_27
REMARK                            x       y       z     vdW  Elec       q    Type
REMARK                         _______ _______ _______ _____ _____    ______ ____
ROOT
ATOM      9  C   UNL     1     -11.158 -10.762  18.580  0.00  0.00    -0.027 C 
ATOM     10  C   UNL     1     -10.007  -9.872  18.004  0.00  0.00    +0.028 C 
ATOM     11  C   UNL     1     -10.397  -9.296  16.595  0.00  0.00    +0.012 C 
ATOM     12  C   UNL     1      -8.638 -10.608  18.070  0.00  0.00    +0.122 C 
ATOM     13  C   UNL     1     -10.790 -11.219  20.012  0.00  0.00    +0.007 C 
ATOM     14  C   UNL     1     -12.449  -9.919  18.672  0.00  0.00    +0.009 C 
ATOM     15  C   UNL     1      -8.324 -11.154  19.483  0.00  0.00    +0.029 C 
ATOM     16  C   UNL     1     -11.737  -8.514  16.686  0.00  0.00    +0.078 C 
ATOM     17  C   UNL     1      -9.469 -11.974  20.073  0.00  0.00    +0.007 C 
ATOM     18  C   UNL     1     -12.864  -9.312  17.339  0.00  0.00    +0.023 C 
ATOM     19  C   UNL     1     -11.429 -12.017  17.711  0.00  0.00    +0.011 C 
ATOM     21  C   UNL     1      -9.319  -8.386  15.983  0.00  0.00    +0.010 C 
ENDROOT
BRANCH  16   6
ATOM      5  O   UNL     1     -12.239  -5.811  15.880  0.00  0.00    -0.253 OA
ATOM      6  N   UNL     1     -12.186  -8.067  15.383  0.00  0.00    -0.296 N 
ATOM      8  N   UNL     1     -12.833  -6.597  13.750  0.00  0.00    -0.269 N 
ATOM     24  C   UNL     1     -12.407  -6.723  15.074  0.00  0.00    +0.304 C 
ATOM     36  H   UNL     1     -12.425  -8.770  14.690  0.00  0.00    +0.151 HD
ATOM     39  H   UNL     1     -12.920  -7.456  13.214  0.00  0.00    +0.156 HD
BRANCH   8  26
ATOM      2  F   UNL     1     -11.669  -3.106  10.666  0.00  0.00    -0.205 F 
ATOM     26  C   UNL     1     -13.162  -5.410  13.053  0.00  0.00    +0.037 A 
ATOM     28  C   UNL     1     -12.235  -4.832  12.185  0.00  0.00    +0.061 A 
ATOM     29  C   UNL     1     -14.412  -4.817  13.234  0.00  0.00    +0.023 A 
ATOM     31  C   UNL     1     -12.559  -3.662  11.498  0.00  0.00    +0.125 A 
ATOM     32  C   UNL     1     -14.735  -3.648  12.548  0.00  0.00    +0.005 A 
ATOM     35  C   UNL     1     -13.809  -3.069  11.680  0.00  0.00    +0.038 A 
ENDBRANCH   8  26
ENDBRANCH  16   6
BRANCH  12   3
ATOM      3  O   UNL     1      -7.589  -9.695  17.743  0.00  0.00    -0.391 OA
ATOM     37  H   UNL     1      -7.046  -9.561  18.539  0.00  0.00    +0.210 HD
ENDBRANCH  12   3
BRANCH  15  20
ATOM     20  C   UNL     1      -7.036 -11.987  19.497  0.00  0.00    +0.077 C 
ATOM     22  C   UNL     1      -5.864 -11.134  19.971  0.00  0.00    +0.017 C 
BRANCH  20  23
ATOM      4  O   UNL     1      -7.490 -13.434  17.609  0.00  0.00    -0.276 OA
ATOM      7  N   UNL     1      -5.659 -12.014  17.502  0.00  0.00    -0.310 N 
ATOM     23  C   UNL     1      -6.776 -12.568  18.110  0.00  0.00    +0.216 C 
ATOM     38  H   UNL     1      -5.111 -11.319  18.003  0.00  0.00    +0.149 HD
BRANCH   7  25
ATOM     25  C   UNL     1      -5.211 -12.406  16.186  0.00  0.00    +0.146 C 
BRANCH  25  27
ATOM      1  S   UNL     1      -3.013 -12.419  14.489  0.00  0.00    -0.100 S 
ATOM     27  C   UNL     1      -3.857 -11.845  15.864  0.00  0.00    +0.007 A 
ATOM     30  C   UNL     1      -3.142 -10.883  16.544  0.00  0.00    +0.013 A 
ATOM     33  C   UNL     1      -1.886 -10.614  15.927  0.00  0.00    +0.008 A 
ATOM     34  C   UNL     1      -1.689 -11.380  14.800  0.00  0.00    +0.045 A 
ENDBRANCH  25  27
ENDBRANCH   7  25
ENDBRANCH  20  23
ENDBRANCH  15  20
TORSDOF 7
ENDMDL
MODEL 7
REMARK VINA RESULT:      -7.0     27.822     31.369
REMARK  Name = 45784432
REMARK  10 active torsions:
REMARK  status: ('A' for Active; 'I' for Inactive)
REMARK    1  A    between atoms: O_3  and  C_12
REMARK    2  A    between atoms: N_6  and  C_16
REMARK    3  A    between atoms: N_7  and  C_25
REMARK    4  A    between atoms: N_8  and  C_26
REMARK    5  A    between atoms: C_9  and  C_19
REMARK    6  A    between atoms: C_11  and  C_21
REMARK    7  A    between atoms: C_15  and  C_20
REMARK    8  A    between atoms: C_20  and  C_22
REMARK    9  A    between atoms: C_20  and  C_23
REMARK   10  A    between atoms: C_25  and  C_27
REMARK                            x       y       z     vdW  Elec       q    Type
REMARK                         _______ _______ _______ _____ _____    ______ ____
ROOT
ATOM      9  C   UNL     1      -6.160 -10.646  17.463  0.00  0.00    -0.027 C 
ATOM     10  C   UNL     1      -6.110 -12.054  16.781  0.00  0.00    +0.028 C 
ATOM     11  C   UNL     1      -6.915 -13.111  17.620  0.00  0.00    +0.012 C 
ATOM     12  C   UNL     1      -4.651 -12.456  16.423  0.00  0.00    +0.122 C 
ATOM     13  C   UNL     1      -5.457  -9.608  16.557  0.00  0.00    +0.007 C 
ATOM     14  C   UNL     1      -7.636 -10.213  17.619  0.00  0.00    +0.009 C 
ATOM     15  C   UNL     1      -3.919 -11.366  15.604  0.00  0.00    +0.029 C 
ATOM     16  C   UNL     1      -8.377 -12.629  17.834  0.00  0.00    +0.078 C 
ATOM     17  C   UNL     1      -4.015  -9.979  16.236  0.00  0.00    +0.007 C 
ATOM     18  C   UNL     1      -8.474 -11.214  18.403  0.00  0.00    +0.023 C 
ATOM     19  C   UNL     1      -5.477 -10.636  18.854  0.00  0.00    +0.011 C 
ATOM     21  C   UNL     1      -6.931 -14.513  16.990  0.00  0.00    +0.010 C 
ENDROOT
BRANCH  16   6
ATOM      5  O   UNL     1      -8.002 -12.977  20.653  0.00  0.00    -0.253 OA
ATOM      6  N   UNL     1      -9.115 -13.523  18.702  0.00  0.00    -0.296 N 
ATOM      8  N   UNL     1      -9.728 -14.568  20.646  0.00  0.00    -0.269 N 
ATOM     24  C   UNL     1      -8.866 -13.631  20.072  0.00  0.00    +0.304 C 
ATOM     36  H   UNL     1      -9.789 -14.155  18.281  0.00  0.00    +0.151 HD
ATOM     39  H   UNL     1     -10.390 -15.022  20.023  0.00  0.00    +0.156 HD
BRANCH   8  26
ATOM      2  F   UNL     1     -11.979 -14.574  24.887  0.00  0.00    -0.205 F 
ATOM     26  C   UNL     1      -9.798 -14.966  22.002  0.00  0.00    +0.037 A 
ATOM     28  C   UNL     1     -10.876 -14.566  22.792  0.00  0.00    +0.061 A 
ATOM     29  C   UNL     1      -8.789 -15.760  22.549  0.00  0.00    +0.023 A 
ATOM     31  C   UNL     1     -10.945 -14.959  24.129  0.00  0.00    +0.125 A 
ATOM     32  C   UNL     1      -8.858 -16.152  23.885  0.00  0.00    +0.005 A 
ATOM     35  C   UNL     1      -9.936 -15.752  24.675  0.00  0.00    +0.038 A 
ENDBRANCH   8  26
ENDBRANCH  16   6
BRANCH  12   3
ATOM      3  O   UNL     1      -4.664 -13.633  15.615  0.00  0.00    -0.391 OA
ATOM     37  H   UNL     1      -4.917 -14.384  16.179  0.00  0.00    +0.210 HD
ENDBRANCH  12   3
BRANCH  15  20
ATOM     20  C   UNL     1      -2.444 -11.723  15.374  0.00  0.00    +0.077 C 
ATOM     22  C   UNL     1      -1.544 -10.669  16.009  0.00  0.00    +0.017 C 
BRANCH  20  23
ATOM      4  O   UNL     1      -1.848 -12.928  13.360  0.00  0.00    -0.276 OA
ATOM      7  N   UNL     1      -2.321 -10.663  13.198  0.00  0.00    -0.310 N 
ATOM     23  C   UNL     1      -2.170 -11.862  13.880  0.00  0.00    +0.216 C 
ATOM     38  H   UNL     1      -2.565  -9.822  13.713  0.00  0.00    +0.149 HD
BRANCH   7  25
ATOM     25  C   UNL     1      -2.112 -10.543  11.773  0.00  0.00    +0.146 C 
BRANCH  25  27
ATOM      1  S   UNL     1      -4.826  -9.951  11.803  0.00  0.00    -0.100 S 
ATOM     27  C   UNL     1      -3.271  -9.877  11.090  0.00  0.00    +0.007 A 
ATOM     30  C   UNL     1      -3.279  -9.173   9.905  0.00  0.00    +0.013 A 
ATOM     33  C   UNL     1      -4.578  -8.688   9.580  0.00  0.00    +0.008 A 
ATOM     34  C   UNL     1      -5.514  -9.040  10.527  0.00  0.00    +0.045 A 
ENDBRANCH  25  27
ENDBRANCH   7  25
ENDBRANCH  20  23
ENDBRANCH  15  20
TORSDOF 7
ENDMDL
MODEL 8
REMARK VINA RESULT:      -6.9     17.818     22.070
REMARK  Name = 45784432
REMARK  10 active torsions:
REMARK  status: ('A' for Active; 'I' for Inactive)
REMARK    1  A    between atoms: O_3  and  C_12
REMARK    2  A    between atoms: N_6  and  C_16
REMARK    3  A    between atoms: N_7  and  C_25
REMARK    4  A    between atoms: N_8  and  C_26
REMARK    5  A    between atoms: C_9  and  C_19
REMARK    6  A    between atoms: C_11  and  C_21
REMARK    7  A    between atoms: C_15  and  C_20
REMARK    8  A    between atoms: C_20  and  C_22
REMARK    9  A    between atoms: C_20  and  C_23
REMARK   10  A    between atoms: C_25  and  C_27
REMARK                            x       y       z     vdW  Elec       q    Type
REMARK                         _______ _______ _______ _____ _____    ______ ____
ROOT
ATOM      9  C   UNL     1      13.462   5.410  -0.889  0.00  0.00    -0.027 C 
ATOM     10  C   UNL     1      12.004   4.902  -0.638  0.00  0.00    +0.028 C 
ATOM     11  C   UNL     1      11.783   4.562   0.880  0.00  0.00    +0.012 C 
ATOM     12  C   UNL     1      11.619   3.774  -1.638  0.00  0.00    +0.122 C 
ATOM     13  C   UNL     1      13.612   5.841  -2.367  0.00  0.00    +0.007 C 
ATOM     14  C   UNL     1      13.722   6.652  -0.007  0.00  0.00    +0.009 C 
ATOM     15  C   UNL     1      11.870   4.175  -3.111  0.00  0.00    +0.029 C 
ATOM     16  C   UNL     1      12.119   5.797   1.762  0.00  0.00    +0.078 C 
ATOM     17  C   UNL     1      13.275   4.727  -3.348  0.00  0.00    +0.007 C 
ATOM     18  C   UNL     1      13.498   6.391   1.476  0.00  0.00    +0.023 C 
ATOM     19  C   UNL     1      14.529   4.330  -0.575  0.00  0.00    +0.011 C 
ATOM     21  C   UNL     1      10.357   4.083   1.202  0.00  0.00    +0.010 C 
ENDROOT
BRANCH  16   6
ATOM      5  O   UNL     1      10.232   6.848   3.643  0.00  0.00    -0.253 OA
ATOM      6  N   UNL     1      12.039   5.485   3.174  0.00  0.00    -0.296 N 
ATOM      8  N   UNL     1      11.248   5.561   5.323  0.00  0.00    -0.269 N 
ATOM     24  C   UNL     1      11.082   6.046   4.023  0.00  0.00    +0.304 C 
ATOM     36  H   UNL     1      12.758   4.893   3.578  0.00  0.00    +0.151 HD
ATOM     39  H   UNL     1      12.003   4.896   5.470  0.00  0.00    +0.156 HD
BRANCH   8  26
ATOM      2  F   UNL     1       8.984   4.219   9.339  0.00  0.00    -0.205 F 
ATOM     26  C   UNL     1      10.487   5.880   6.472  0.00  0.00    +0.037 A 
ATOM     28  C   UNL     1      10.103   4.872   7.357  0.00  0.00    +0.061 A 
ATOM     29  C   UNL     1      10.119   7.203   6.720  0.00  0.00    +0.023 A 
ATOM     31  C   UNL     1       9.353   5.187   8.490  0.00  0.00    +0.125 A 
ATOM     32  C   UNL     1       9.369   7.517   7.853  0.00  0.00    +0.005 A 
ATOM     35  C   UNL     1       8.986   6.509   8.738  0.00  0.00    +0.038 A 
ENDBRANCH   8  26
ENDBRANCH  16   6
BRANCH  12   3
ATOM      3  O   UNL     1      10.225   3.489  -1.525  0.00  0.00    -0.391 OA
ATOM     37  H   UNL     1      10.104   2.528  -1.613  0.00  0.00    +0.210 HD
ENDBRANCH  12   3
BRANCH  15  20
ATOM     20  C   UNL     1      11.610   3.006  -4.071  0.00  0.00    +0.077 C 
ATOM     22  C   UNL     1      12.820   2.789  -4.973  0.00  0.00    +0.017 C 
BRANCH  20  23
ATOM      4  O   UNL     1       9.918   2.481  -5.721  0.00  0.00    -0.276 OA
ATOM      7  N   UNL     1       9.765   4.494  -4.578  0.00  0.00    -0.310 N 
ATOM     23  C   UNL     1      10.349   3.273  -4.886  0.00  0.00    +0.216 C 
ATOM     38  H   UNL     1      10.205   5.099  -3.891  0.00  0.00    +0.149 HD
BRANCH   7  25
ATOM     25  C   UNL     1       8.562   4.968  -5.222  0.00  0.00    +0.146 C 
BRANCH  25  27
ATOM      1  S   UNL     1       6.077   6.076  -4.664  0.00  0.00    -0.100 S 
ATOM     27  C   UNL     1       7.730   5.814  -4.303  0.00  0.00    +0.007 A 
ATOM     30  C   UNL     1       8.113   6.453  -3.143  0.00  0.00    +0.013 A 
ATOM     33  C   UNL     1       7.034   7.165  -2.544  0.00  0.00    +0.008 A 
ATOM     34  C   UNL     1       5.869   7.045  -3.268  0.00  0.00    +0.045 A 
ENDBRANCH  25  27
ENDBRANCH   7  25
ENDBRANCH  20  23
ENDBRANCH  15  20
TORSDOF 7
ENDMDL
MODEL 9
REMARK VINA RESULT:      -6.9     28.948     33.290
REMARK  Name = 45784432
REMARK  10 active torsions:
REMARK  status: ('A' for Active; 'I' for Inactive)
REMARK    1  A    between atoms: O_3  and  C_12
REMARK    2  A    between atoms: N_6  and  C_16
REMARK    3  A    between atoms: N_7  and  C_25
REMARK    4  A    between atoms: N_8  and  C_26
REMARK    5  A    between atoms: C_9  and  C_19
REMARK    6  A    between atoms: C_11  and  C_21
REMARK    7  A    between atoms: C_15  and  C_20
REMARK    8  A    between atoms: C_20  and  C_22
REMARK    9  A    between atoms: C_20  and  C_23
REMARK   10  A    between atoms: C_25  and  C_27
REMARK                            x       y       z     vdW  Elec       q    Type
REMARK                         _______ _______ _______ _____ _____    ______ ____
ROOT
ATOM      9  C   UNL     1      -7.755  -8.408   7.440  0.00  0.00    -0.027 C 
ATOM     10  C   UNL     1      -6.708  -9.243   6.631  0.00  0.00    +0.028 C 
ATOM     11  C   UNL     1      -7.350  -9.829   5.323  0.00  0.00    +0.012 C 
ATOM     12  C   UNL     1      -5.985 -10.276   7.542  0.00  0.00    +0.122 C 
ATOM     13  C   UNL     1      -7.063  -7.752   8.659  0.00  0.00    +0.007 C 
ATOM     14  C   UNL     1      -8.298  -7.274   6.540  0.00  0.00    +0.009 C 
ATOM     15  C   UNL     1      -5.385  -9.630   8.813  0.00  0.00    +0.029 C 
ATOM     16  C   UNL     1      -7.959  -8.687   4.463  0.00  0.00    +0.078 C 
ATOM     17  C   UNL     1      -6.389  -8.765   9.574  0.00  0.00    +0.007 C 
ATOM     18  C   UNL     1      -8.911  -7.781   5.242  0.00  0.00    +0.023 C 
ATOM     19  C   UNL     1      -8.940  -9.270   7.944  0.00  0.00    +0.011 C 
ATOM     21  C   UNL     1      -6.365 -10.640   4.464  0.00  0.00    +0.010 C 
ENDROOT
BRANCH  16   6
ATOM      5  O   UNL     1      -7.502  -7.978   1.725  0.00  0.00    -0.253 OA
ATOM      6  N   UNL     1      -8.661  -9.202   3.306  0.00  0.00    -0.296 N 
ATOM      8  N   UNL     1      -9.207  -9.463   1.096  0.00  0.00    -0.269 N 
ATOM     24  C   UNL     1      -8.373  -8.800   2.000  0.00  0.00    +0.304 C 
ATOM     36  H   UNL     1      -9.450  -9.824   3.459  0.00  0.00    +0.151 HD
ATOM     39  H   UNL     1      -9.878 -10.118   1.489  0.00  0.00    +0.156 HD
BRANCH   8  26
ATOM      2  F   UNL     1     -11.028  -7.495  -2.887  0.00  0.00    -0.205 F 
ATOM     26  C   UNL     1      -9.235  -9.337  -0.312  0.00  0.00    +0.037 A 
ATOM     28  C   UNL     1     -10.135  -8.459  -0.917  0.00  0.00    +0.061 A 
ATOM     29  C   UNL     1      -8.363 -10.092  -1.098  0.00  0.00    +0.023 A 
ATOM     31  C   UNL     1     -10.163  -8.336  -2.306  0.00  0.00    +0.125 A 
ATOM     32  C   UNL     1      -8.390  -9.968  -2.486  0.00  0.00    +0.005 A 
ATOM     35  C   UNL     1      -9.290  -9.090  -3.091  0.00  0.00    +0.038 A 
ENDBRANCH   8  26
ENDBRANCH  16   6
BRANCH  12   3
ATOM      3  O   UNL     1      -4.896 -10.862   6.830  0.00  0.00    -0.391 OA
ATOM     37  H   UNL     1      -5.012 -11.828   6.841  0.00  0.00    +0.210 HD
ENDBRANCH  12   3
BRANCH  15  20
ATOM     20  C   UNL     1      -4.794 -10.682   9.761  0.00  0.00    +0.077 C 
ATOM     22  C   UNL     1      -5.836 -11.108  10.789  0.00  0.00    +0.017 C 
BRANCH  20  23
ATOM      4  O   UNL     1      -2.921  -9.163   9.994  0.00  0.00    -0.276 OA
ATOM      7  N   UNL     1      -3.195 -10.838  11.576  0.00  0.00    -0.310 N 
ATOM     23  C   UNL     1      -3.541 -10.129  10.434  0.00  0.00    +0.216 C 
ATOM     38  H   UNL     1      -3.752 -11.642  11.853  0.00  0.00    +0.149 HD
BRANCH   7  25
ATOM     25  C   UNL     1      -2.044 -10.505  12.383  0.00  0.00    +0.146 C 
BRANCH  25  27
ATOM      1  S   UNL     1      -3.953 -10.878  14.366  0.00  0.00    -0.100 S 
ATOM     27  C   UNL     1      -2.348 -10.578  13.851  0.00  0.00    +0.007 A 
ATOM     30  C   UNL     1      -1.483 -10.433  14.915  0.00  0.00    +0.013 A 
ATOM     33  C   UNL     1      -2.148 -10.570  16.167  0.00  0.00    +0.008 A 
ATOM     34  C   UNL     1      -3.495 -10.814  16.014  0.00  0.00    +0.045 A 
ENDBRANCH  25  27
ENDBRANCH   7  25
ENDBRANCH  20  23
ENDBRANCH  15  20
TORSDOF 7
ENDMDL
MODEL 10
REMARK VINA RESULT:      -6.9      3.065      4.875
REMARK  Name = 45784432
REMARK  10 active torsions:
REMARK  status: ('A' for Active; 'I' for Inactive)
REMARK    1  A    between atoms: O_3  and  C_12
REMARK    2  A    between atoms: N_6  and  C_16
REMARK    3  A    between atoms: N_7  and  C_25
REMARK    4  A    between atoms: N_8  and  C_26
REMARK    5  A    between atoms: C_9  and  C_19
REMARK    6  A    between atoms: C_11  and  C_21
REMARK    7  A    between atoms: C_15  and  C_20
REMARK    8  A    between atoms: C_20  and  C_22
REMARK    9  A    between atoms: C_20  and  C_23
REMARK   10  A    between atoms: C_25  and  C_27
REMARK                            x       y       z     vdW  Elec       q    Type
REMARK                         _______ _______ _______ _____ _____    ______ ____
ROOT
ATOM      9  C   UNL     1      16.377   7.178  19.994  0.00  0.00    -0.027 C 
ATOM     10  C   UNL     1      17.497   7.958  20.760  0.00  0.00    +0.028 C 
ATOM     11  C   UNL     1      18.497   6.964  21.454  0.00  0.00    +0.012 C 
ATOM     12  C   UNL     1      16.890   9.051  21.686  0.00  0.00    +0.122 C 
ATOM     13  C   UNL     1      15.479   8.180  19.232  0.00  0.00    +0.007 C 
ATOM     14  C   UNL     1      17.035   6.247  18.951  0.00  0.00    +0.009 C 
ATOM     15  C   UNL     1      15.911   9.986  20.939  0.00  0.00    +0.029 C 
ATOM     16  C   UNL     1      19.095   5.984  20.406  0.00  0.00    +0.078 C 
ATOM     17  C   UNL     1      14.852   9.227  20.142  0.00  0.00    +0.007 C 
ATOM     18  C   UNL     1      18.036   5.276  19.562  0.00  0.00    +0.023 C 
ATOM     19  C   UNL     1      15.488   6.333  20.942  0.00  0.00    +0.011 C 
ATOM     21  C   UNL     1      19.642   7.666  22.202  0.00  0.00    +0.010 C 
ENDROOT
BRANCH  16   6
ATOM      5  O   UNL     1      21.912   5.629  20.028  0.00  0.00    -0.253 OA
ATOM      6  N   UNL     1      19.932   4.980  21.028  0.00  0.00    -0.296 N 
ATOM      8  N   UNL     1      21.846   3.820  21.522  0.00  0.00    -0.269 N 
ATOM     24  C   UNL     1      21.304   4.877  20.787  0.00  0.00    +0.304 C 
ATOM     36  H   UNL     1      19.488   4.271  21.604  0.00  0.00    +0.151 HD
ATOM     39  H   UNL     1      21.202   3.294  22.107  0.00  0.00    +0.156 HD
BRANCH   8  26
ATOM      2  F   UNL     1      26.388   4.410  22.959  0.00  0.00    -0.205 F 
ATOM     26  C   UNL     1      23.191   3.386  21.557  0.00  0.00    +0.037 A 
ATOM     28  C   UNL     1      24.145   4.127  22.256  0.00  0.00    +0.061 A 
ATOM     29  C   UNL     1      23.566   2.218  20.892  0.00  0.00    +0.023 A 
ATOM     31  C   UNL     1      25.473   3.699  22.289  0.00  0.00    +0.125 A 
ATOM     32  C   UNL     1      24.892   1.790  20.926  0.00  0.00    +0.005 A 
ATOM     35  C   UNL     1      25.846   2.531  21.625  0.00  0.00    +0.038 A 
ENDBRANCH   8  26
ENDBRANCH  16   6
BRANCH  12   3
ATOM      3  O   UNL     1      17.936   9.878  22.197  0.00  0.00    -0.391 OA
ATOM     37  H   UNL     1      18.746   9.343  22.253  0.00  0.00    +0.210 HD
ENDBRANCH  12   3
BRANCH  15  20
ATOM     20  C   UNL     1      15.225  10.971  21.895  0.00  0.00    +0.077 C 
ATOM     22  C   UNL     1      14.485  10.212  22.989  0.00  0.00    +0.017 C 
BRANCH  20  23
ATOM      4  O   UNL     1      14.668  12.620  20.210  0.00  0.00    -0.276 OA
ATOM      7  N   UNL     1      12.967  11.780  21.545  0.00  0.00    -0.310 N 
ATOM     23  C   UNL     1      14.282  11.882  21.114  0.00  0.00    +0.216 C 
ATOM     38  H   UNL     1      12.741  11.161  22.319  0.00  0.00    +0.149 HD
BRANCH   7  25
ATOM     25  C   UNL     1      11.892  12.546  20.959  0.00  0.00    +0.146 C 
BRANCH  25  27
ATOM      1  S   UNL     1      11.236  12.778  23.648  0.00  0.00    -0.100 S 
ATOM     27  C   UNL     1      11.042  13.210  22.002  0.00  0.00    +0.007 A 
ATOM     30  C   UNL     1      10.069  14.172  21.832  0.00  0.00    +0.013 A 
ATOM     33  C   UNL     1       9.477  14.558  23.069  0.00  0.00    +0.008 A 
ATOM     34  C   UNL     1      10.018  13.877  24.137  0.00  0.00    +0.045 A 
ENDBRANCH  25  27
ENDBRANCH   7  25
ENDBRANCH  20  23
ENDBRANCH  15  20
TORSDOF 7
ENDMDL
