MODEL 1
REMARK VINA RESULT:      -7.0      0.000      0.000
REMARK  Name = 40779908
REMARK  9 active torsions:
REMARK  status: ('A' for Active; 'I' for Inactive)
REMARK    1  A    between atoms: O_4  and  C_22
REMARK    2  A    between atoms: O_4  and  C_25
REMARK    3  A    between atoms: N_7  and  C_16
REMARK    4  A    between atoms: N_8  and  C_17
REMARK    5  A    between atoms: C_10  and  C_16
REMARK    6  A    between atoms: C_12  and  C_17
REMARK    7  A    between atoms: C_18  and  C_22
REMARK    8  A    between atoms: C_23  and  C_24
REMARK    9  A    between atoms: C_30  and  C_31
REMARK                            x       y       z     vdW  Elec       q    Type
REMARK                         _______ _______ _______ _____ _____    ______ ____
ROOT
ATOM      6  N   UNL     1      21.196   7.076  20.461  0.00  0.00    -0.298 NA
ATOM      9  C   UNL     1      21.319   6.199  22.906  0.00  0.00    -0.003 C 
ATOM     10  C   UNL     1      22.174   5.323  21.962  0.00  0.00    +0.020 C 
ATOM     11  C   UNL     1      19.866   6.226  22.399  0.00  0.00    +0.024 C 
ATOM     12  C   UNL     1      19.823   6.888  21.004  0.00  0.00    +0.074 C 
ATOM     13  C   UNL     1      21.949   5.800  20.510  0.00  0.00    +0.089 C 
ATOM     14  C   UNL     1      21.866   7.635  22.802  0.00  0.00    +0.019 C 
ATOM     15  C   UNL     1      21.896   8.060  21.322  0.00  0.00    +0.085 C 
ENDROOT
BRANCH  10  16
ATOM     16  C   UNL     1      21.898   3.829  22.113  0.00  0.00    +0.089 C 
BRANCH  16   7
ATOM      7  N   UNL     1      23.104   3.117  22.520  0.00  0.00    -0.297 NA
ATOM     18  C   UNL     1      23.555   2.125  21.533  0.00  0.00    +0.082 C 
ATOM     19  C   UNL     1      22.887   2.353  23.751  0.00  0.00    +0.085 C 
ATOM     20  C   UNL     1      24.524   1.262  22.344  0.00  0.00    +0.022 C 
ATOM     21  C   UNL     1      24.080   1.412  23.794  0.00  0.00    +0.017 C 
BRANCH  18  22
ATOM     22  C   UNL     1      24.232   2.746  20.318  0.00  0.00    +0.178 C 
BRANCH  22   4
ATOM      4  O   UNL     1      25.222   3.654  20.767  0.00  0.00    -0.381 OA
ATOM     25  C   UNL     1      26.425   3.534  20.015  0.00  0.00    +0.194 C 
ENDBRANCH  22   4
ENDBRANCH  18  22
ENDBRANCH  16   7
ENDBRANCH  10  16
BRANCH  12  17
ATOM     17  C   UNL     1      18.915   6.123  20.039  0.00  0.00    +0.123 C 
BRANCH  17   8
ATOM      5  O   UNL     1      16.743   5.511  18.264  0.00  0.00    -0.270 OA
ATOM      8  N   UNL     1      17.537   6.566  20.168  0.00  0.00    -0.310 N 
ATOM     23  C   UNL     1      16.563   6.214  19.254  0.00  0.00    +0.244 C 
ATOM     32  H   UNL     1      17.335   7.207  20.929  0.00  0.00    +0.149 HD
BRANCH  23  24
ATOM     24  C   UNL     1      15.210   6.771  19.513  0.00  0.00    +0.037 A 
ATOM     26  C   UNL     1      14.669   6.719  20.798  0.00  0.00    +0.013 A 
ATOM     27  C   UNL     1      14.482   7.344  18.471  0.00  0.00    +0.013 A 
ATOM     28  C   UNL     1      13.398   7.242  21.040  0.00  0.00    +0.013 A 
ATOM     29  C   UNL     1      13.211   7.867  18.714  0.00  0.00    +0.013 A 
ATOM     30  C   UNL     1      12.670   7.815  19.998  0.00  0.00    +0.055 A 
BRANCH  30  31
ATOM      1  F   UNL     1      10.608   8.653  19.119  0.00  0.00    -0.166 F 
ATOM      2  F   UNL     1      11.351   9.544  20.959  0.00  0.00    -0.166 F 
ATOM      3  F   UNL     1      10.505   7.540  20.978  0.00  0.00    -0.166 F 
ATOM     31  C   UNL     1      11.311   8.374  20.257  0.00  0.00    +0.417 C 
ENDBRANCH  30  31
ENDBRANCH  23  24
ENDBRANCH  17   8
ENDBRANCH  12  17
TORSDOF 8
ENDMDL
MODEL 2
REMARK VINA RESULT:      -6.5     17.261     21.101
REMARK  Name = 40779908
REMARK  9 active torsions:
REMARK  status: ('A' for Active; 'I' for Inactive)
REMARK    1  A    between atoms: O_4  and  C_22
REMARK    2  A    between atoms: O_4  and  C_25
REMARK    3  A    between atoms: N_7  and  C_16
REMARK    4  A    between atoms: N_8  and  C_17
REMARK    5  A    between atoms: C_10  and  C_16
REMARK    6  A    between atoms: C_12  and  C_17
REMARK    7  A    between atoms: C_18  and  C_22
REMARK    8  A    between atoms: C_23  and  C_24
REMARK    9  A    between atoms: C_30  and  C_31
REMARK                            x       y       z     vdW  Elec       q    Type
REMARK                         _______ _______ _______ _____ _____    ______ ____
ROOT
ATOM      6  N   UNL     1       9.585   8.603  -0.523  0.00  0.00    -0.298 NA
ATOM      9  C   UNL     1      11.629   7.207   0.274  0.00  0.00    -0.003 C 
ATOM     10  C   UNL     1      10.663   6.340  -0.566  0.00  0.00    +0.020 C 
ATOM     11  C   UNL     1      10.866   7.807   1.470  0.00  0.00    +0.024 C 
ATOM     12  C   UNL     1       9.753   8.743   0.948  0.00  0.00    +0.074 C 
ATOM     13  C   UNL     1       9.404   7.177  -0.888  0.00  0.00    +0.089 C 
ATOM     14  C   UNL     1      12.071   8.380  -0.621  0.00  0.00    +0.019 C 
ATOM     15  C   UNL     1      10.824   9.093  -1.174  0.00  0.00    +0.085 C 
ENDROOT
BRANCH  10  16
ATOM     16  C   UNL     1      10.303   5.017   0.106  0.00  0.00    +0.089 C 
BRANCH  16   7
ATOM      7  N   UNL     1      10.839   3.889  -0.648  0.00  0.00    -0.297 NA
ATOM     18  C   UNL     1      12.303   3.779  -0.565  0.00  0.00    +0.082 C 
ATOM     19  C   UNL     1      10.550   4.013  -2.078  0.00  0.00    +0.085 C 
ATOM     20  C   UNL     1      12.633   2.836  -1.725  0.00  0.00    +0.022 C 
ATOM     21  C   UNL     1      11.484   2.997  -2.714  0.00  0.00    +0.017 C 
BRANCH  18  22
ATOM     22  C   UNL     1      12.794   3.229   0.767  0.00  0.00    +0.178 C 
BRANCH  22   4
ATOM      4  O   UNL     1      13.702   4.157   1.333  0.00  0.00    -0.381 OA
ATOM     25  C   UNL     1      14.936   3.540   1.683  0.00  0.00    +0.194 C 
ENDBRANCH  22   4
ENDBRANCH  18  22
ENDBRANCH  16   7
ENDBRANCH  10  16
BRANCH  12  17
ATOM     17  C   UNL     1       8.440   8.542   1.707  0.00  0.00    +0.123 C 
BRANCH  17   8
ATOM      5  O   UNL     1       7.575   9.377   4.314  0.00  0.00    -0.270 OA
ATOM      8  N   UNL     1       8.672   7.848   2.963  0.00  0.00    -0.310 N 
ATOM     23  C   UNL     1       8.211   8.337   4.169  0.00  0.00    +0.244 C 
ATOM     32  H   UNL     1       9.250   7.014   2.922  0.00  0.00    +0.149 HD
BRANCH  23  24
ATOM     24  C   UNL     1       8.554   7.524   5.364  0.00  0.00    +0.037 A 
ATOM     26  C   UNL     1       8.348   8.042   6.643  0.00  0.00    +0.013 A 
ATOM     27  C   UNL     1       9.082   6.242   5.207  0.00  0.00    +0.013 A 
ATOM     28  C   UNL     1       8.671   7.278   7.765  0.00  0.00    +0.013 A 
ATOM     29  C   UNL     1       9.404   5.478   6.330  0.00  0.00    +0.013 A 
ATOM     30  C   UNL     1       9.199   5.997   7.608  0.00  0.00    +0.055 A 
BRANCH  30  31
ATOM      1  F   UNL     1      10.738   5.521   9.377  0.00  0.00    -0.166 F 
ATOM      2  F   UNL     1       9.640   3.848   8.524  0.00  0.00    -0.166 F 
ATOM      3  F   UNL     1       8.628   5.275   9.816  0.00  0.00    -0.166 F 
ATOM     31  C   UNL     1       9.544   5.180   8.807  0.00  0.00    +0.417 C 
ENDBRANCH  30  31
ENDBRANCH  23  24
ENDBRANCH  17   8
ENDBRANCH  12  17
TORSDOF 8
ENDMDL
MODEL 3
REMARK VINA RESULT:      -6.5     29.342     31.621
REMARK  Name = 40779908
REMARK  9 active torsions:
REMARK  status: ('A' for Active; 'I' for Inactive)
REMARK    1  A    between atoms: O_4  and  C_22
REMARK    2  A    between atoms: O_4  and  C_25
REMARK    3  A    between atoms: N_7  and  C_16
REMARK    4  A    between atoms: N_8  and  C_17
REMARK    5  A    between atoms: C_10  and  C_16
REMARK    6  A    between atoms: C_12  and  C_17
REMARK    7  A    between atoms: C_18  and  C_22
REMARK    8  A    between atoms: C_23  and  C_24
REMARK    9  A    between atoms: C_30  and  C_31
REMARK                            x       y       z     vdW  Elec       q    Type
REMARK                         _______ _______ _______ _____ _____    ______ ____
ROOT
ATOM      6  N   UNL     1      -5.754 -12.536  18.592  0.00  0.00    -0.298 NA
ATOM      9  C   UNL     1      -6.580 -10.122  18.091  0.00  0.00    -0.003 C 
ATOM     10  C   UNL     1      -7.725 -11.145  17.912  0.00  0.00    +0.020 C 
ATOM     11  C   UNL     1      -5.405 -10.507  17.175  0.00  0.00    +0.024 C 
ATOM     12  C   UNL     1      -4.853 -11.885  17.603  0.00  0.00    +0.074 C 
ATOM     13  C   UNL     1      -7.144 -12.568  18.079  0.00  0.00    +0.089 C 
ATOM     14  C   UNL     1      -6.088 -10.252  19.545  0.00  0.00    +0.019 C 
ATOM     15  C   UNL     1      -5.735 -11.723  19.831  0.00  0.00    +0.085 C 
ENDROOT
BRANCH  10  16
ATOM     16  C   UNL     1      -8.467 -10.992  16.586  0.00  0.00    +0.089 C 
BRANCH  16   7
ATOM      7  N   UNL     1      -9.842 -10.559  16.808  0.00  0.00    -0.297 NA
ATOM     18  C   UNL     1      -9.943  -9.328  17.604  0.00  0.00    +0.082 C 
ATOM     19  C   UNL     1     -10.605 -11.558  17.560  0.00  0.00    +0.085 C 
ATOM     20  C   UNL     1     -11.410  -9.328  18.039  0.00  0.00    +0.022 C 
ATOM     21  C   UNL     1     -11.837 -10.792  18.012  0.00  0.00    +0.017 C 
BRANCH  18  22
ATOM     22  C   UNL     1      -9.586  -8.071  16.822  0.00  0.00    +0.178 C 
BRANCH  22   4
ATOM      4  O   UNL     1     -10.774  -7.341  16.571  0.00  0.00    -0.381 OA
ATOM     25  C   UNL     1     -10.565  -6.305  15.618  0.00  0.00    +0.194 C 
ENDBRANCH  22   4
ENDBRANCH  18  22
ENDBRANCH  16   7
ENDBRANCH  10  16
BRANCH  12  17
ATOM     17  C   UNL     1      -4.566 -12.782  16.397  0.00  0.00    +0.123 C 
BRANCH  17   8
ATOM      5  O   UNL     1      -2.451 -11.998  14.620  0.00  0.00    -0.270 OA
ATOM      8  N   UNL     1      -4.705 -12.037  15.156  0.00  0.00    -0.310 N 
ATOM     23  C   UNL     1      -3.619 -11.708  14.370  0.00  0.00    +0.244 C 
ATOM     32  H   UNL     1      -5.638 -11.708  14.926  0.00  0.00    +0.149 HD
BRANCH  23  24
ATOM     24  C   UNL     1      -3.926 -10.922  13.148  0.00  0.00    +0.037 A 
ATOM     26  C   UNL     1      -5.184 -10.340  12.991  0.00  0.00    +0.013 A 
ATOM     27  C   UNL     1      -2.957 -10.765  12.157  0.00  0.00    +0.013 A 
ATOM     28  C   UNL     1      -5.473  -9.602  11.843  0.00  0.00    +0.013 A 
ATOM     29  C   UNL     1      -3.246 -10.026  11.010  0.00  0.00    +0.013 A 
ATOM     30  C   UNL     1      -4.504  -9.445  10.853  0.00  0.00    +0.055 A 
BRANCH  30  31
ATOM      1  F   UNL     1      -5.798  -9.203   8.856  0.00  0.00    -0.166 F 
ATOM      2  F   UNL     1      -3.731  -8.527   8.800  0.00  0.00    -0.166 F 
ATOM      3  F   UNL     1      -5.228  -7.381   9.885  0.00  0.00    -0.166 F 
ATOM     31  C   UNL     1      -4.812  -8.655   9.625  0.00  0.00    +0.417 C 
ENDBRANCH  30  31
ENDBRANCH  23  24
ENDBRANCH  17   8
ENDBRANCH  12  17
TORSDOF 8
ENDMDL
MODEL 4
REMARK VINA RESULT:      -6.4     28.989     31.342
REMARK  Name = 40779908
REMARK  9 active torsions:
REMARK  status: ('A' for Active; 'I' for Inactive)
REMARK    1  A    between atoms: O_4  and  C_22
REMARK    2  A    between atoms: O_4  and  C_25
REMARK    3  A    between atoms: N_7  and  C_16
REMARK    4  A    between atoms: N_8  and  C_17
REMARK    5  A    between atoms: C_10  and  C_16
REMARK    6  A    between atoms: C_12  and  C_17
REMARK    7  A    between atoms: C_18  and  C_22
REMARK    8  A    between atoms: C_23  and  C_24
REMARK    9  A    between atoms: C_30  and  C_31
REMARK                            x       y       z     vdW  Elec       q    Type
REMARK                         _______ _______ _______ _____ _____    ______ ____
ROOT
ATOM      6  N   UNL     1      -5.837 -10.040  10.866  0.00  0.00    -0.298 NA
ATOM      9  C   UNL     1      -4.511  -9.219   8.785  0.00  0.00    -0.003 C 
ATOM     10  C   UNL     1      -5.269 -10.530   8.475  0.00  0.00    +0.020 C 
ATOM     11  C   UNL     1      -3.575  -9.443   9.986  0.00  0.00    +0.024 C 
ATOM     12  C   UNL     1      -4.418  -9.787  11.234  0.00  0.00    +0.074 C 
ATOM     13  C   UNL     1      -5.917 -11.045   9.780  0.00  0.00    +0.089 C 
ATOM     14  C   UNL     1      -5.567  -8.184   9.217  0.00  0.00    +0.019 C 
ATOM     15  C   UNL     1      -6.412  -8.768  10.364  0.00  0.00    +0.085 C 
ENDROOT
BRANCH  10  16
ATOM     16  C   UNL     1      -4.388 -11.594   7.824  0.00  0.00    +0.089 C 
BRANCH  16   7
ATOM      7  N   UNL     1      -4.929 -11.998   6.532  0.00  0.00    -0.297 NA
ATOM     18  C   UNL     1      -3.902 -12.143   5.491  0.00  0.00    +0.082 C 
ATOM     19  C   UNL     1      -5.862 -10.999   6.005  0.00  0.00    +0.085 C 
ATOM     20  C   UNL     1      -4.728 -12.146   4.202  0.00  0.00    +0.022 C 
ATOM     21  C   UNL     1      -6.008 -11.391   4.544  0.00  0.00    +0.017 C 
BRANCH  18  22
ATOM     22  C   UNL     1      -3.073 -13.413   5.633  0.00  0.00    +0.178 C 
BRANCH  22   4
ATOM      4  O   UNL     1      -2.869 -13.966   4.345  0.00  0.00    -0.381 OA
ATOM     25  C   UNL     1      -1.484 -14.075   4.032  0.00  0.00    +0.194 C 
ENDBRANCH  22   4
ENDBRANCH  18  22
ENDBRANCH  16   7
ENDBRANCH  10  16
BRANCH  12  17
ATOM     17  C   UNL     1      -3.808 -10.943  12.032  0.00  0.00    +0.123 C 
BRANCH  17   8
ATOM      5  O   UNL     1      -2.313 -10.354  14.411  0.00  0.00    -0.270 OA
ATOM      8  N   UNL     1      -4.309 -10.947  13.397  0.00  0.00    -0.310 N 
ATOM     23  C   UNL     1      -3.503 -10.648  14.477  0.00  0.00    +0.244 C 
ATOM     32  H   UNL     1      -5.270 -11.248  13.527  0.00  0.00    +0.149 HD
BRANCH  23  24
ATOM     24  C   UNL     1      -4.160 -10.723  15.807  0.00  0.00    +0.037 A 
ATOM     26  C   UNL     1      -5.424 -10.162  15.994  0.00  0.00    +0.013 A 
ATOM     27  C   UNL     1      -3.513 -11.354  16.869  0.00  0.00    +0.013 A 
ATOM     28  C   UNL     1      -6.040 -10.233  17.243  0.00  0.00    +0.013 A 
ATOM     29  C   UNL     1      -4.130 -11.425  18.119  0.00  0.00    +0.013 A 
ATOM     30  C   UNL     1      -5.393 -10.864  18.305  0.00  0.00    +0.055 A 
BRANCH  30  31
ATOM      1  F   UNL     1      -5.294 -11.568  20.590  0.00  0.00    -0.166 F 
ATOM      2  F   UNL     1      -7.234 -11.622  19.605  0.00  0.00    -0.166 F 
ATOM      3  F   UNL     1      -6.349  -9.718  20.175  0.00  0.00    -0.166 F 
ATOM     31  C   UNL     1      -6.051 -10.940  19.642  0.00  0.00    +0.417 C 
ENDBRANCH  30  31
ENDBRANCH  23  24
ENDBRANCH  17   8
ENDBRANCH  12  17
TORSDOF 8
ENDMDL
MODEL 5
REMARK VINA RESULT:      -6.4     17.882     21.607
REMARK  Name = 40779908
REMARK  9 active torsions:
REMARK  status: ('A' for Active; 'I' for Inactive)
REMARK    1  A    between atoms: O_4  and  C_22
REMARK    2  A    between atoms: O_4  and  C_25
REMARK    3  A    between atoms: N_7  and  C_16
REMARK    4  A    between atoms: N_8  and  C_17
REMARK    5  A    between atoms: C_10  and  C_16
REMARK    6  A    between atoms: C_12  and  C_17
REMARK    7  A    between atoms: C_18  and  C_22
REMARK    8  A    between atoms: C_23  and  C_24
REMARK    9  A    between atoms: C_30  and  C_31
REMARK                            x       y       z     vdW  Elec       q    Type
REMARK                         _______ _______ _______ _____ _____    ______ ____
ROOT
ATOM      6  N   UNL     1      13.461   5.901   0.788  0.00  0.00    -0.298 NA
ATOM      9  C   UNL     1      13.640   3.362   0.256  0.00  0.00    -0.003 C 
ATOM     10  C   UNL     1      13.090   4.143  -0.960  0.00  0.00    +0.020 C 
ATOM     11  C   UNL     1      12.732   3.611   1.474  0.00  0.00    +0.024 C 
ATOM     12  C   UNL     1      12.772   5.111   1.843  0.00  0.00    +0.074 C 
ATOM     13  C   UNL     1      12.870   5.614  -0.541  0.00  0.00    +0.089 C 
ATOM     14  C   UNL     1      15.021   3.960   0.585  0.00  0.00    +0.019 C 
ATOM     15  C   UNL     1      14.884   5.484   0.761  0.00  0.00    +0.085 C 
ENDROOT
BRANCH  10  16
ATOM     16  C   UNL     1      11.822   3.528  -1.547  0.00  0.00    +0.089 C 
BRANCH  16   7
ATOM      7  N   UNL     1      11.764   3.734  -2.989  0.00  0.00    -0.297 NA
ATOM     18  C   UNL     1      10.533   3.214  -3.602  0.00  0.00    +0.082 C 
ATOM     19  C   UNL     1      12.852   3.034  -3.676  0.00  0.00    +0.085 C 
ATOM     20  C   UNL     1      10.893   3.165  -5.088  0.00  0.00    +0.022 C 
ATOM     21  C   UNL     1      12.412   3.043  -5.130  0.00  0.00    +0.017 C 
BRANCH  18  22
ATOM     22  C   UNL     1       9.313   4.088  -3.345  0.00  0.00    +0.178 C 
BRANCH  22   4
ATOM      4  O   UNL     1       9.638   5.427  -3.675  0.00  0.00    -0.381 OA
ATOM     25  C   UNL     1       8.690   6.346  -3.143  0.00  0.00    +0.194 C 
ENDBRANCH  22   4
ENDBRANCH  18  22
ENDBRANCH  16   7
ENDBRANCH  10  16
BRANCH  12  17
ATOM     17  C   UNL     1      11.377   5.655   2.160  0.00  0.00    +0.123 C 
BRANCH  17   8
ATOM      5  O   UNL     1       9.424   7.073   3.715  0.00  0.00    -0.270 OA
ATOM      8  N   UNL     1      11.037   5.418   3.554  0.00  0.00    -0.310 N 
ATOM     23  C   UNL     1      10.077   6.160   4.213  0.00  0.00    +0.244 C 
ATOM     32  H   UNL     1      11.589   4.721   4.044  0.00  0.00    +0.149 HD
BRANCH  23  24
ATOM     24  C   UNL     1       9.867   5.813   5.641  0.00  0.00    +0.037 A 
ATOM     26  C   UNL     1       9.987   4.488   6.062  0.00  0.00    +0.013 A 
ATOM     27  C   UNL     1       9.547   6.810   6.562  0.00  0.00    +0.013 A 
ATOM     28  C   UNL     1       9.789   4.162   7.404  0.00  0.00    +0.013 A 
ATOM     29  C   UNL     1       9.349   6.484   7.904  0.00  0.00    +0.013 A 
ATOM     30  C   UNL     1       9.470   5.159   8.324  0.00  0.00    +0.055 A 
BRANCH  30  31
ATOM      1  F   UNL     1      10.334   5.087  10.554  0.00  0.00    -0.166 F 
ATOM      2  F   UNL     1       8.997   3.483   9.943  0.00  0.00    -0.166 F 
ATOM      3  F   UNL     1       8.211   5.473  10.334  0.00  0.00    -0.166 F 
ATOM     31  C   UNL     1       9.258   4.811   9.759  0.00  0.00    +0.417 C 
ENDBRANCH  30  31
ENDBRANCH  23  24
ENDBRANCH  17   8
ENDBRANCH  12  17
TORSDOF 8
ENDMDL
MODEL 6
REMARK VINA RESULT:      -6.4     29.555     31.626
REMARK  Name = 40779908
REMARK  9 active torsions:
REMARK  status: ('A' for Active; 'I' for Inactive)
REMARK    1  A    between atoms: O_4  and  C_22
REMARK    2  A    between atoms: O_4  and  C_25
REMARK    3  A    between atoms: N_7  and  C_16
REMARK    4  A    between atoms: N_8  and  C_17
REMARK    5  A    between atoms: C_10  and  C_16
REMARK    6  A    between atoms: C_12  and  C_17
REMARK    7  A    between atoms: C_18  and  C_22
REMARK    8  A    between atoms: C_23  and  C_24
REMARK    9  A    between atoms: C_30  and  C_31
REMARK                            x       y       z     vdW  Elec       q    Type
REMARK                         _______ _______ _______ _____ _____    ______ ____
ROOT
ATOM      6  N   UNL     1      -6.840 -12.745  18.615  0.00  0.00    -0.298 NA
ATOM      9  C   UNL     1      -6.370 -10.205  18.309  0.00  0.00    -0.003 C 
ATOM     10  C   UNL     1      -7.765 -10.578  17.759  0.00  0.00    +0.020 C 
ATOM     11  C   UNL     1      -5.299 -11.057  17.602  0.00  0.00    +0.024 C 
ATOM     12  C   UNL     1      -5.534 -12.548  17.931  0.00  0.00    +0.074 C 
ATOM     13  C   UNL     1      -7.931 -12.112  17.834  0.00  0.00    +0.089 C 
ATOM     14  C   UNL     1      -6.356 -10.599  19.798  0.00  0.00    +0.019 C 
ATOM     15  C   UNL     1      -6.769 -12.075  19.936  0.00  0.00    +0.085 C 
ENDROOT
BRANCH  10  16
ATOM     16  C   UNL     1      -8.015 -10.052  16.347  0.00  0.00    +0.089 C 
BRANCH  16   7
ATOM      7  N   UNL     1      -9.307  -9.381  16.264  0.00  0.00    -0.297 NA
ATOM     18  C   UNL     1      -9.547  -8.741  14.962  0.00  0.00    +0.082 C 
ATOM     19  C   UNL     1      -9.412  -8.296  17.242  0.00  0.00    +0.085 C 
ATOM     20  C   UNL     1     -10.709  -7.792  15.264  0.00  0.00    +0.022 C 
ATOM     21  C   UNL     1     -10.613  -7.501  16.758  0.00  0.00    +0.017 C 
BRANCH  18  22
ATOM     22  C   UNL     1      -9.897  -9.729  13.858  0.00  0.00    +0.178 C 
BRANCH  22   4
ATOM      4  O   UNL     1      -8.884  -9.681  12.869  0.00  0.00    -0.381 OA
ATOM     25  C   UNL     1      -8.453 -10.984  12.492  0.00  0.00    +0.194 C 
ENDBRANCH  22   4
ENDBRANCH  18  22
ENDBRANCH  16   7
ENDBRANCH  10  16
BRANCH  12  17
ATOM     17  C   UNL     1      -5.386 -13.433  16.691  0.00  0.00    +0.123 C 
BRANCH  17   8
ATOM      5  O   UNL     1      -3.323 -13.889  14.747  0.00  0.00    -0.270 OA
ATOM      8  N   UNL     1      -5.109 -12.628  15.513  0.00  0.00    -0.310 N 
ATOM     23  C   UNL     1      -4.088 -12.935  14.636  0.00  0.00    +0.244 C 
ATOM     32  H   UNL     1      -5.663 -11.785  15.399  0.00  0.00    +0.149 HD
BRANCH  23  24
ATOM     24  C   UNL     1      -3.919 -11.997  13.496  0.00  0.00    +0.037 A 
ATOM     26  C   UNL     1      -2.864 -12.173  12.599  0.00  0.00    +0.013 A 
ATOM     27  C   UNL     1      -4.814 -10.942  13.322  0.00  0.00    +0.013 A 
ATOM     28  C   UNL     1      -2.706 -11.292  11.529  0.00  0.00    +0.013 A 
ATOM     29  C   UNL     1      -4.655 -10.062  12.251  0.00  0.00    +0.013 A 
ATOM     30  C   UNL     1      -3.601 -10.237  11.356  0.00  0.00    +0.055 A 
BRANCH  30  31
ATOM      1  F   UNL     1      -3.717  -9.852   8.997  0.00  0.00    -0.166 F 
ATOM      2  F   UNL     1      -2.155  -8.822  10.106  0.00  0.00    -0.166 F 
ATOM      3  F   UNL     1      -4.227  -8.188  10.291  0.00  0.00    -0.166 F 
ATOM     31  C   UNL     1      -3.431  -9.295  10.211  0.00  0.00    +0.417 C 
ENDBRANCH  30  31
ENDBRANCH  23  24
ENDBRANCH  17   8
ENDBRANCH  12  17
TORSDOF 8
ENDMDL
MODEL 7
REMARK VINA RESULT:      -6.3     17.127     20.158
REMARK  Name = 40779908
REMARK  9 active torsions:
REMARK  status: ('A' for Active; 'I' for Inactive)
REMARK    1  A    between atoms: O_4  and  C_22
REMARK    2  A    between atoms: O_4  and  C_25
REMARK    3  A    between atoms: N_7  and  C_16
REMARK    4  A    between atoms: N_8  and  C_17
REMARK    5  A    between atoms: C_10  and  C_16
REMARK    6  A    between atoms: C_12  and  C_17
REMARK    7  A    between atoms: C_18  and  C_22
REMARK    8  A    between atoms: C_23  and  C_24
REMARK    9  A    between atoms: C_30  and  C_31
REMARK                            x       y       z     vdW  Elec       q    Type
REMARK                         _______ _______ _______ _____ _____    ______ ____
ROOT
ATOM      6  N   UNL     1      10.468   7.133   7.705  0.00  0.00    -0.298 NA
ATOM      9  C   UNL     1       9.516   5.281   6.147  0.00  0.00    -0.003 C 
ATOM     10  C   UNL     1      10.852   5.831   5.597  0.00  0.00    +0.020 C 
ATOM     11  C   UNL     1       8.515   6.440   6.308  0.00  0.00    +0.024 C 
ATOM     12  C   UNL     1       9.057   7.442   7.351  0.00  0.00    +0.074 C 
ATOM     13  C   UNL     1      11.295   7.020   6.479  0.00  0.00    +0.089 C 
ATOM     14  C   UNL     1       9.805   4.729   7.556  0.00  0.00    +0.019 C 
ATOM     15  C   UNL     1      10.488   5.822   8.398  0.00  0.00    +0.085 C 
ENDROOT
BRANCH  10  16
ATOM     16  C   UNL     1      10.782   6.219   4.122  0.00  0.00    +0.089 C 
BRANCH  16   7
ATOM      7  N   UNL     1      11.713   5.422   3.331  0.00  0.00    -0.297 NA
ATOM     18  C   UNL     1      12.132   6.084   2.087  0.00  0.00    +0.082 C 
ATOM     19  C   UNL     1      11.108   4.160   2.901  0.00  0.00    +0.085 C 
ATOM     20  C   UNL     1      12.727   4.930   1.277  0.00  0.00    +0.022 C 
ATOM     21  C   UNL     1      12.049   3.673   1.812  0.00  0.00    +0.017 C 
BRANCH  18  22
ATOM     22  C   UNL     1      13.145   7.200   2.308  0.00  0.00    +0.178 C 
BRANCH  22   4
ATOM      4  O   UNL     1      14.266   6.665   2.989  0.00  0.00    -0.381 OA
ATOM     25  C   UNL     1      14.615   7.448   4.125  0.00  0.00    +0.194 C 
ENDBRANCH  22   4
ENDBRANCH  18  22
ENDBRANCH  16   7
ENDBRANCH  10  16
BRANCH  12  17
ATOM     17  C   UNL     1       8.875   8.892   6.894  0.00  0.00    +0.123 C 
BRANCH  17   8
ATOM      5  O   UNL     1       9.215  10.749   4.732  0.00  0.00    -0.270 OA
ATOM      8  N   UNL     1       8.094   8.952   5.670  0.00  0.00    -0.310 N 
ATOM     23  C   UNL     1       8.340   9.889   4.686  0.00  0.00    +0.244 C 
ATOM     32  H   UNL     1       7.310   8.311   5.599  0.00  0.00    +0.149 HD
BRANCH  23  24
ATOM     24  C   UNL     1       7.436   9.835   3.509  0.00  0.00    +0.037 A 
ATOM     26  C   UNL     1       7.951   9.535   2.247  0.00  0.00    +0.013 A 
ATOM     27  C   UNL     1       6.073  10.085   3.664  0.00  0.00    +0.013 A 
ATOM     28  C   UNL     1       7.102   9.485   1.142  0.00  0.00    +0.013 A 
ATOM     29  C   UNL     1       5.224  10.034   2.558  0.00  0.00    +0.013 A 
ATOM     30  C   UNL     1       5.739   9.734   1.297  0.00  0.00    +0.055 A 
BRANCH  30  31
ATOM      1  F   UNL     1       4.126   8.515   0.019  0.00  0.00    -0.166 F 
ATOM      2  F   UNL     1       5.502   9.801  -1.068  0.00  0.00    -0.166 F 
ATOM      3  F   UNL     1       3.888  10.669   0.104  0.00  0.00    -0.166 F 
ATOM     31  C   UNL     1       4.831   9.681   0.115  0.00  0.00    +0.417 C 
ENDBRANCH  30  31
ENDBRANCH  23  24
ENDBRANCH  17   8
ENDBRANCH  12  17
TORSDOF 8
ENDMDL
MODEL 8
REMARK VINA RESULT:      -6.2     28.700     30.925
REMARK  Name = 40779908
REMARK  9 active torsions:
REMARK  status: ('A' for Active; 'I' for Inactive)
REMARK    1  A    between atoms: O_4  and  C_22
REMARK    2  A    between atoms: O_4  and  C_25
REMARK    3  A    between atoms: N_7  and  C_16
REMARK    4  A    between atoms: N_8  and  C_17
REMARK    5  A    between atoms: C_10  and  C_16
REMARK    6  A    between atoms: C_12  and  C_17
REMARK    7  A    between atoms: C_18  and  C_22
REMARK    8  A    between atoms: C_23  and  C_24
REMARK    9  A    between atoms: C_30  and  C_31
REMARK                            x       y       z     vdW  Elec       q    Type
REMARK                         _______ _______ _______ _____ _____    ______ ____
ROOT
ATOM      6  N   UNL     1      -1.913 -11.507  14.206  0.00  0.00    -0.298 NA
ATOM      9  C   UNL     1      -4.098 -12.299  13.038  0.00  0.00    -0.003 C 
ATOM     10  C   UNL     1      -3.650 -10.922  12.496  0.00  0.00    +0.020 C 
ATOM     11  C   UNL     1      -4.285 -12.210  14.563  0.00  0.00    +0.024 C 
ATOM     12  C   UNL     1      -2.929 -11.879  15.226  0.00  0.00    +0.074 C 
ATOM     13  C   UNL     1      -2.438 -10.438  13.322  0.00  0.00    +0.089 C 
ATOM     14  C   UNL     1      -2.940 -13.280  12.777  0.00  0.00    +0.019 C 
ATOM     15  C   UNL     1      -1.643 -12.704  13.373  0.00  0.00    +0.085 C 
ENDROOT
BRANCH  10  16
ATOM     16  C   UNL     1      -4.773  -9.886  12.483  0.00  0.00    +0.089 C 
BRANCH  16   7
ATOM      7  N   UNL     1      -4.850  -9.220  11.188  0.00  0.00    -0.297 NA
ATOM     18  C   UNL     1      -5.961  -9.700  10.353  0.00  0.00    +0.082 C 
ATOM     19  C   UNL     1      -3.647  -9.460  10.388  0.00  0.00    +0.085 C 
ATOM     20  C   UNL     1      -5.581  -9.187   8.962  0.00  0.00    +0.022 C 
ATOM     21  C   UNL     1      -4.064  -9.036   8.990  0.00  0.00    +0.017 C 
BRANCH  18  22
ATOM     22  C   UNL     1      -7.321  -9.175  10.797  0.00  0.00    +0.178 C 
BRANCH  22   4
ATOM      4  O   UNL     1      -7.825  -8.317   9.789  0.00  0.00    -0.381 OA
ATOM     25  C   UNL     1      -9.218  -8.517   9.576  0.00  0.00    +0.194 C 
ENDBRANCH  22   4
ENDBRANCH  18  22
ENDBRANCH  16   7
ENDBRANCH  10  16
BRANCH  12  17
ATOM     17  C   UNL     1      -3.075 -10.817  16.319  0.00  0.00    +0.123 C 
BRANCH  17   8
ATOM      5  O   UNL     1      -4.579 -11.264  18.722  0.00  0.00    -0.270 OA
ATOM      8  N   UNL     1      -4.475 -10.494  16.540  0.00  0.00    -0.310 N 
ATOM     23  C   UNL     1      -5.108 -10.751  17.740  0.00  0.00    +0.244 C 
ATOM     32  H   UNL     1      -4.988 -10.129  15.744  0.00  0.00    +0.149 HD
BRANCH  23  24
ATOM     24  C   UNL     1      -6.546 -10.387  17.796  0.00  0.00    +0.037 A 
ATOM     26  C   UNL     1      -7.381 -10.985  18.741  0.00  0.00    +0.013 A 
ATOM     27  C   UNL     1      -7.063  -9.447  16.905  0.00  0.00    +0.013 A 
ATOM     28  C   UNL     1      -8.732 -10.643  18.794  0.00  0.00    +0.013 A 
ATOM     29  C   UNL     1      -8.415  -9.104  16.959  0.00  0.00    +0.013 A 
ATOM     30  C   UNL     1      -9.249  -9.703  17.903  0.00  0.00    +0.055 A 
BRANCH  30  31
ATOM      1  F   UNL     1     -11.486 -10.110  17.159  0.00  0.00    -0.166 F 
ATOM      2  F   UNL     1     -10.924  -8.049  17.568  0.00  0.00    -0.166 F 
ATOM      3  F   UNL     1     -11.237  -9.443  19.208  0.00  0.00    -0.166 F 
ATOM     31  C   UNL     1     -10.694  -9.337  17.959  0.00  0.00    +0.417 C 
ENDBRANCH  30  31
ENDBRANCH  23  24
ENDBRANCH  17   8
ENDBRANCH  12  17
TORSDOF 8
ENDMDL
MODEL 9
REMARK VINA RESULT:      -6.2      2.650      3.858
REMARK  Name = 40779908
REMARK  9 active torsions:
REMARK  status: ('A' for Active; 'I' for Inactive)
REMARK    1  A    between atoms: O_4  and  C_22
REMARK    2  A    between atoms: O_4  and  C_25
REMARK    3  A    between atoms: N_7  and  C_16
REMARK    4  A    between atoms: N_8  and  C_17
REMARK    5  A    between atoms: C_10  and  C_16
REMARK    6  A    between atoms: C_12  and  C_17
REMARK    7  A    between atoms: C_18  and  C_22
REMARK    8  A    between atoms: C_23  and  C_24
REMARK    9  A    between atoms: C_30  and  C_31
REMARK                            x       y       z     vdW  Elec       q    Type
REMARK                         _______ _______ _______ _____ _____    ______ ____
ROOT
ATOM      6  N   UNL     1      19.818   7.922  22.040  0.00  0.00    -0.298 NA
ATOM      9  C   UNL     1      21.861   6.404  22.572  0.00  0.00    -0.003 C 
ATOM     10  C   UNL     1      22.273   7.587  21.666  0.00  0.00    +0.020 C 
ATOM     11  C   UNL     1      20.739   5.603  21.886  0.00  0.00    +0.024 C 
ATOM     12  C   UNL     1      19.495   6.505  21.721  0.00  0.00    +0.074 C 
ATOM     13  C   UNL     1      21.001   8.367  21.267  0.00  0.00    +0.089 C 
ATOM     14  C   UNL     1      21.268   7.010  23.858  0.00  0.00    +0.019 C 
ATOM     15  C   UNL     1      20.151   8.001  23.483  0.00  0.00    +0.085 C 
ENDROOT
BRANCH  10  16
ATOM     16  C   UNL     1      23.078   7.155  20.442  0.00  0.00    +0.089 C 
BRANCH  16   7
ATOM      7  N   UNL     1      24.462   7.602  20.546  0.00  0.00    -0.297 NA
ATOM     18  C   UNL     1      24.968   8.218  19.311  0.00  0.00    +0.082 C 
ATOM     19  C   UNL     1      25.370   6.484  20.810  0.00  0.00    +0.085 C 
ATOM     20  C   UNL     1      26.483   8.205  19.527  0.00  0.00    +0.022 C 
ATOM     21  C   UNL     1      26.740   7.065  20.506  0.00  0.00    +0.017 C 
BRANCH  18  22
ATOM     22  C   UNL     1      24.443   9.629  19.080  0.00  0.00    +0.178 C 
BRANCH  22   4
ATOM      4  O   UNL     1      23.565   9.608  17.968  0.00  0.00    -0.381 OA
ATOM     25  C   UNL     1      22.656  10.703  17.995  0.00  0.00    +0.194 C 
ENDBRANCH  22   4
ENDBRANCH  18  22
ENDBRANCH  16   7
ENDBRANCH  10  16
BRANCH  12  17
ATOM     17  C   UNL     1      18.859   6.349  20.338  0.00  0.00    +0.123 C 
BRANCH  17   8
ATOM      5  O   UNL     1      16.790   5.572  18.505  0.00  0.00    -0.270 OA
ATOM      8  N   UNL     1      17.472   6.785  20.357  0.00  0.00    -0.310 N 
ATOM     23  C   UNL     1      16.551   6.350  19.425  0.00  0.00    +0.244 C 
ATOM     32  H   UNL     1      17.224   7.482  21.053  0.00  0.00    +0.149 HD
BRANCH  23  24
ATOM     24  C   UNL     1      15.183   6.909  19.565  0.00  0.00    +0.037 A 
ATOM     26  C   UNL     1      14.563   7.521  18.474  0.00  0.00    +0.013 A 
ATOM     27  C   UNL     1      14.517   6.824  20.788  0.00  0.00    +0.013 A 
ATOM     28  C   UNL     1      13.278   8.046  18.607  0.00  0.00    +0.013 A 
ATOM     29  C   UNL     1      13.231   7.350  20.920  0.00  0.00    +0.013 A 
ATOM     30  C   UNL     1      12.612   7.961  19.829  0.00  0.00    +0.055 A 
BRANCH  30  31
ATOM      1  F   UNL     1      10.412   7.760  20.747  0.00  0.00    -0.166 F 
ATOM      2  F   UNL     1      10.598   8.652  18.772  0.00  0.00    -0.166 F 
ATOM      3  F   UNL     1      11.211   9.766  20.537  0.00  0.00    -0.166 F 
ATOM     31  C   UNL     1      11.238   8.523  19.971  0.00  0.00    +0.417 C 
ENDBRANCH  30  31
ENDBRANCH  23  24
ENDBRANCH  17   8
ENDBRANCH  12  17
TORSDOF 8
ENDMDL
MODEL 10
REMARK VINA RESULT:      -6.2      1.894      2.579
REMARK  Name = 40779908
REMARK  9 active torsions:
REMARK  status: ('A' for Active; 'I' for Inactive)
REMARK    1  A    between atoms: O_4  and  C_22
REMARK    2  A    between atoms: O_4  and  C_25
REMARK    3  A    between atoms: N_7  and  C_16
REMARK    4  A    between atoms: N_8  and  C_17
REMARK    5  A    between atoms: C_10  and  C_16
REMARK    6  A    between atoms: C_12  and  C_17
REMARK    7  A    between atoms: C_18  and  C_22
REMARK    8  A    between atoms: C_23  and  C_24
REMARK    9  A    between atoms: C_30  and  C_31
REMARK                            x       y       z     vdW  Elec       q    Type
REMARK                         _______ _______ _______ _____ _____    ______ ____
ROOT
ATOM      6  N   UNL     1      19.965   7.849  21.960  0.00  0.00    -0.298 NA
ATOM      9  C   UNL     1      21.907   6.222  22.545  0.00  0.00    -0.003 C 
ATOM     10  C   UNL     1      22.387   7.329  21.578  0.00  0.00    +0.020 C 
ATOM     11  C   UNL     1      20.724   5.468  21.911  0.00  0.00    +0.024 C 
ATOM     12  C   UNL     1      19.543   6.444  21.715  0.00  0.00    +0.074 C 
ATOM     13  C   UNL     1      21.166   8.175  21.153  0.00  0.00    +0.089 C 
ATOM     14  C   UNL     1      21.375   6.930  23.806  0.00  0.00    +0.019 C 
ATOM     15  C   UNL     1      20.322   7.975  23.394  0.00  0.00    +0.085 C 
ENDROOT
BRANCH  10  16
ATOM     16  C   UNL     1      23.144   6.784  20.368  0.00  0.00    +0.089 C 
BRANCH  16   7
ATOM      7  N   UNL     1      24.180   5.846  20.783  0.00  0.00    -0.297 NA
ATOM     18  C   UNL     1      25.526   6.234  20.339  0.00  0.00    +0.082 C 
ATOM     19  C   UNL     1      23.962   4.516  20.209  0.00  0.00    +0.085 C 
ATOM     20  C   UNL     1      26.323   4.939  20.516  0.00  0.00    +0.022 C 
ATOM     21  C   UNL     1      25.294   3.818  20.425  0.00  0.00    +0.017 C 
BRANCH  18  22
ATOM     22  C   UNL     1      26.123   7.378  21.148  0.00  0.00    +0.178 C 
BRANCH  22   4
ATOM      4  O   UNL     1      26.086   8.555  20.361  0.00  0.00    -0.381 OA
ATOM     25  C   UNL     1      26.677   8.353  19.082  0.00  0.00    +0.194 C 
ENDBRANCH  22   4
ENDBRANCH  18  22
ENDBRANCH  16   7
ENDBRANCH  10  16
BRANCH  12  17
ATOM     17  C   UNL     1      18.878   6.265  20.348  0.00  0.00    +0.123 C 
BRANCH  17   8
ATOM      5  O   UNL     1      16.793   5.528  18.517  0.00  0.00    -0.270 OA
ATOM      8  N   UNL     1      17.492   6.703  20.388  0.00  0.00    -0.310 N 
ATOM     23  C   UNL     1      16.563   6.287  19.455  0.00  0.00    +0.244 C 
ATOM     32  H   UNL     1      17.252   7.386  21.099  0.00  0.00    +0.149 HD
BRANCH  23  24
ATOM     24  C   UNL     1      15.197   6.846  19.618  0.00  0.00    +0.037 A 
ATOM     26  C   UNL     1      14.539   6.735  20.844  0.00  0.00    +0.013 A 
ATOM     27  C   UNL     1      14.570   7.481  18.546  0.00  0.00    +0.013 A 
ATOM     28  C   UNL     1      13.256   7.259  20.997  0.00  0.00    +0.013 A 
ATOM     29  C   UNL     1      13.286   8.005  18.700  0.00  0.00    +0.013 A 
ATOM     30  C   UNL     1      12.629   7.893  19.926  0.00  0.00    +0.055 A 
BRANCH  30  31
ATOM      1  F   UNL     1      10.586   8.611  18.909  0.00  0.00    -0.166 F 
ATOM      2  F   UNL     1      11.261   9.687  20.676  0.00  0.00    -0.166 F 
ATOM      3  F   UNL     1      10.439   7.682  20.864  0.00  0.00    -0.166 F 
ATOM     31  C   UNL     1      11.257   8.454  20.089  0.00  0.00    +0.417 C 
ENDBRANCH  30  31
ENDBRANCH  23  24
ENDBRANCH  17   8
ENDBRANCH  12  17
TORSDOF 8
ENDMDL
