MODEL 1
REMARK VINA RESULT:      -7.4      0.000      0.000
REMARK  Name = 40781555
REMARK  9 active torsions:
REMARK  status: ('A' for Active; 'I' for Inactive)
REMARK    1  A    between atoms: S_2  and  N_10
REMARK    2  A    between atoms: S_2  and  C_24
REMARK    3  A    between atoms: O_4  and  C_12
REMARK    4  A    between atoms: O_5  and  C_13
REMARK    5  A    between atoms: N_10  and  C_21
REMARK    6  A    between atoms: C_11  and  C_15
REMARK    7  A    between atoms: C_14  and  C_21
REMARK    8  A    between atoms: C_15  and  C_22
REMARK    9  A    between atoms: C_16  and  C_23
REMARK                            x       y       z     vdW  Elec       q    Type
REMARK                         _______ _______ _______ _____ _____    ______ ____
ROOT
ATOM      3  O   UNL     1      11.165   9.057  20.462  0.00  0.00    -0.366 OA
ATOM     11  C   UNL     1      11.741   7.761  20.216  0.00  0.00    +0.158 C 
ATOM     12  C   UNL     1      11.942   7.133  21.584  0.00  0.00    +0.175 C 
ATOM     13  C   UNL     1      10.737   7.658  22.338  0.00  0.00    +0.175 C 
ATOM     14  C   UNL     1      10.622   9.080  21.802  0.00  0.00    +0.165 C 
ENDROOT
BRANCH  12   4
ATOM      4  O   UNL     1      11.990   5.724  21.519  0.00  0.00    -0.387 OA
ATOM     30  H   UNL     1      11.749   5.465  20.614  0.00  0.00    +0.210 HD
ENDBRANCH  12   4
BRANCH  13   5
ATOM      5  O   UNL     1       9.563   6.944  21.955  0.00  0.00    -0.387 OA
ATOM     31  H   UNL     1       9.309   7.255  21.069  0.00  0.00    +0.210 HD
ENDBRANCH  13   5
BRANCH  11  15
ATOM     15  C   UNL     1      13.031   7.916  19.429  0.00  0.00    +0.130 C 
BRANCH  15  22
ATOM      6  O   UNL     1      13.936   9.869  20.418  0.00  0.00    -0.276 OA
ATOM      9  N   UNL     1      15.090   7.888  20.793  0.00  0.00    -0.301 N 
ATOM     16  C   UNL     1      17.747   6.736  20.945  0.00  0.00    -0.011 C 
ATOM     17  C   UNL     1      16.646   6.117  20.072  0.00  0.00    +0.022 C 
ATOM     18  C   UNL     1      17.506   8.243  21.114  0.00  0.00    +0.022 C 
ATOM     19  C   UNL     1      15.256   6.440  20.619  0.00  0.00    +0.108 C 
ATOM     20  C   UNL     1      16.100   8.523  21.641  0.00  0.00    +0.108 C 
ATOM     22  C   UNL     1      14.054   8.652  20.257  0.00  0.00    +0.218 C 
ATOM     23  C   UNL     1      19.127   6.470  20.349  0.00  0.00    +0.007 C 
ENDBRANCH  15  22
ENDBRANCH  11  15
BRANCH  14  21
ATOM     21  C   UNL     1      11.425  10.089  22.612  0.00  0.00    +0.140 C 
BRANCH  21  10
ATOM     10  N   UNL     1      10.612  11.202  23.006  0.00  0.00    -0.187 NA
ATOM     32  H   UNL     1       9.675  11.264  22.588  0.00  0.00    +0.148 HD
BRANCH  10   2
ATOM      2  S   UNL     1      10.861  12.006  24.509  0.00  0.00    +0.058 S 
ATOM      7  O   UNL     1      10.903  11.011  25.564  0.00  0.00    -0.153 OA
ATOM      8  O   UNL     1       9.974  13.147  24.620  0.00  0.00    -0.153 OA
BRANCH   2  24
ATOM      1 CL   UNL     1      16.669  14.262  23.741  0.00  0.00    -0.084 Cl
ATOM     24  C   UNL     1      12.496  12.641  24.294  0.00  0.00    +0.105 A 
ATOM     25  C   UNL     1      12.745  13.610  23.321  0.00  0.00    +0.030 A 
ATOM     26  C   UNL     1      13.537  12.175  25.096  0.00  0.00    +0.030 A 
ATOM     27  C   UNL     1      14.035  14.111  23.149  0.00  0.00    +0.022 A 
ATOM     28  C   UNL     1      14.828  12.676  24.925  0.00  0.00    +0.022 A 
ATOM     29  C   UNL     1      15.076  13.644  23.952  0.00  0.00    +0.041 A 
ENDBRANCH   2  24
ENDBRANCH  10   2
ENDBRANCH  21  10
ENDBRANCH  14  21
TORSDOF 8
ENDMDL
MODEL 2
REMARK VINA RESULT:      -7.1     28.035     29.519
REMARK  Name = 40781555
REMARK  9 active torsions:
REMARK  status: ('A' for Active; 'I' for Inactive)
REMARK    1  A    between atoms: S_2  and  N_10
REMARK    2  A    between atoms: S_2  and  C_24
REMARK    3  A    between atoms: O_4  and  C_12
REMARK    4  A    between atoms: O_5  and  C_13
REMARK    5  A    between atoms: N_10  and  C_21
REMARK    6  A    between atoms: C_11  and  C_15
REMARK    7  A    between atoms: C_14  and  C_21
REMARK    8  A    between atoms: C_15  and  C_22
REMARK    9  A    between atoms: C_16  and  C_23
REMARK                            x       y       z     vdW  Elec       q    Type
REMARK                         _______ _______ _______ _____ _____    ______ ____
ROOT
ATOM      3  O   UNL     1      -6.205 -11.679  17.272  0.00  0.00    -0.366 OA
ATOM     11  C   UNL     1      -4.911 -11.463  16.681  0.00  0.00    +0.158 C 
ATOM     12  C   UNL     1      -3.971 -11.181  17.840  0.00  0.00    +0.175 C 
ATOM     13  C   UNL     1      -4.534 -12.090  18.914  0.00  0.00    +0.175 C 
ATOM     14  C   UNL     1      -6.034 -11.968  18.679  0.00  0.00    +0.165 C 
ENDROOT
BRANCH  12   4
ATOM      4  O   UNL     1      -2.627 -11.465  17.515  0.00  0.00    -0.387 OA
ATOM     30  H   UNL     1      -2.515 -11.296  16.564  0.00  0.00    +0.210 HD
ENDBRANCH  12   4
BRANCH  13   5
ATOM      5  O   UNL     1      -4.155 -13.442  18.666  0.00  0.00    -0.387 OA
ATOM     31  H   UNL     1      -3.406 -13.647  19.253  0.00  0.00    +0.210 HD
ENDBRANCH  13   5
BRANCH  11  15
ATOM     15  C   UNL     1      -4.991 -10.323  15.680  0.00  0.00    +0.130 C 
BRANCH  15  22
ATOM      6  O   UNL     1      -2.933 -10.926  14.674  0.00  0.00    -0.276 OA
ATOM      9  N   UNL     1      -4.711 -10.525  13.234  0.00  0.00    -0.301 N 
ATOM     16  C   UNL     1      -5.429  -9.282  10.713  0.00  0.00    -0.011 C 
ATOM     17  C   UNL     1      -6.203  -8.993  12.008  0.00  0.00    +0.022 C 
ATOM     18  C   UNL     1      -3.981  -9.679  11.038  0.00  0.00    +0.022 C 
ATOM     19  C   UNL     1      -6.111 -10.164  12.984  0.00  0.00    +0.108 C 
ATOM     20  C   UNL     1      -3.935 -10.837  12.032  0.00  0.00    +0.108 C 
ATOM     22  C   UNL     1      -4.114 -10.621  14.490  0.00  0.00    +0.218 C 
ATOM     23  C   UNL     1      -5.465  -8.076   9.777  0.00  0.00    +0.007 C 
ENDBRANCH  15  22
ENDBRANCH  11  15
BRANCH  14  21
ATOM     21  C   UNL     1      -6.671 -10.832  19.468  0.00  0.00    +0.140 C 
BRANCH  21  10
ATOM     10  N   UNL     1      -7.731 -10.215  18.725  0.00  0.00    -0.187 NA
ATOM     32  H   UNL     1      -7.472  -9.746  17.848  0.00  0.00    +0.148 HD
BRANCH  10   2
ATOM      2  S   UNL     1      -9.363 -10.744  18.886  0.00  0.00    +0.058 S 
ATOM      7  O   UNL     1      -9.750 -10.634  20.280  0.00  0.00    -0.153 OA
ATOM      8  O   UNL     1      -9.558 -11.991  18.172  0.00  0.00    -0.153 OA
BRANCH   2  24
ATOM      1 CL   UNL     1     -12.412  -6.293  15.676  0.00  0.00    -0.084 Cl
ATOM     24  C   UNL     1     -10.222  -9.491  17.981  0.00  0.00    +0.105 A 
ATOM     25  C   UNL     1      -9.514  -8.428  17.419  0.00  0.00    +0.030 A 
ATOM     26  C   UNL     1     -11.606  -9.566  17.830  0.00  0.00    +0.030 A 
ATOM     27  C   UNL     1     -10.191  -7.439  16.707  0.00  0.00    +0.022 A 
ATOM     28  C   UNL     1     -12.284  -8.576  17.117  0.00  0.00    +0.022 A 
ATOM     29  C   UNL     1     -11.576  -7.513  16.555  0.00  0.00    +0.041 A 
ENDBRANCH   2  24
ENDBRANCH  10   2
ENDBRANCH  21  10
ENDBRANCH  14  21
TORSDOF 8
ENDMDL
MODEL 3
REMARK VINA RESULT:      -7.1      3.601      6.113
REMARK  Name = 40781555
REMARK  9 active torsions:
REMARK  status: ('A' for Active; 'I' for Inactive)
REMARK    1  A    between atoms: S_2  and  N_10
REMARK    2  A    between atoms: S_2  and  C_24
REMARK    3  A    between atoms: O_4  and  C_12
REMARK    4  A    between atoms: O_5  and  C_13
REMARK    5  A    between atoms: N_10  and  C_21
REMARK    6  A    between atoms: C_11  and  C_15
REMARK    7  A    between atoms: C_14  and  C_21
REMARK    8  A    between atoms: C_15  and  C_22
REMARK    9  A    between atoms: C_16  and  C_23
REMARK                            x       y       z     vdW  Elec       q    Type
REMARK                         _______ _______ _______ _____ _____    ______ ____
ROOT
ATOM      3  O   UNL     1      16.334   6.232  21.059  0.00  0.00    -0.366 OA
ATOM     11  C   UNL     1      17.344   7.105  21.596  0.00  0.00    +0.158 C 
ATOM     12  C   UNL     1      16.896   8.514  21.247  0.00  0.00    +0.175 C 
ATOM     13  C   UNL     1      15.391   8.392  21.370  0.00  0.00    +0.175 C 
ATOM     14  C   UNL     1      15.137   7.001  20.803  0.00  0.00    +0.165 C 
ENDROOT
BRANCH  12   4
ATOM      4  O   UNL     1      17.453   9.478  22.116  0.00  0.00    -0.387 OA
ATOM     30  H   UNL     1      18.167   9.045  22.612  0.00  0.00    +0.210 HD
ENDBRANCH  12   4
BRANCH  13   5
ATOM      5  O   UNL     1      15.005   8.389  22.744  0.00  0.00    -0.387 OA
ATOM     31  H   UNL     1      14.483   7.583  22.897  0.00  0.00    +0.210 HD
ENDBRANCH  13   5
BRANCH  11  15
ATOM     15  C   UNL     1      18.698   6.741  21.011  0.00  0.00    +0.130 C 
BRANCH  15  22
ATOM      6  O   UNL     1      19.631   7.522  23.044  0.00  0.00    -0.276 OA
ATOM      9  N   UNL     1      20.793   5.832  21.953  0.00  0.00    -0.301 N 
ATOM     16  C   UNL     1      23.452   4.927  21.230  0.00  0.00    -0.011 C 
ATOM     17  C   UNL     1      22.327   5.045  20.191  0.00  0.00    +0.022 C 
ATOM     18  C   UNL     1      23.217   5.917  22.381  0.00  0.00    +0.022 C 
ATOM     19  C   UNL     1      20.953   4.888  20.840  0.00  0.00    +0.108 C 
ATOM     20  C   UNL     1      21.826   5.741  22.986  0.00  0.00    +0.108 C 
ATOM     22  C   UNL     1      19.743   6.738  22.098  0.00  0.00    +0.218 C 
ATOM     23  C   UNL     1      24.816   5.160  20.584  0.00  0.00    +0.007 C 
ENDBRANCH  15  22
ENDBRANCH  11  15
BRANCH  14  21
ATOM     21  C   UNL     1      14.899   7.005  19.299  0.00  0.00    +0.140 C 
BRANCH  21  10
ATOM     10  N   UNL     1      13.911   7.976  18.934  0.00  0.00    -0.187 NA
ATOM     32  H   UNL     1      14.189   8.686  18.244  0.00  0.00    +0.148 HD
BRANCH  10   2
ATOM      2  S   UNL     1      12.227   7.643  19.088  0.00  0.00    +0.058 S 
ATOM      7  O   UNL     1      12.064   6.253  19.468  0.00  0.00    -0.153 OA
ATOM      8  O   UNL     1      11.504   8.178  17.951  0.00  0.00    -0.153 OA
BRANCH   2  24
ATOM      1 CL   UNL     1      10.726  11.193  24.045  0.00  0.00    -0.084 Cl
ATOM     24  C   UNL     1      11.805   8.643  20.484  0.00  0.00    +0.105 A 
ATOM     25  C   UNL     1      11.172   8.069  21.587  0.00  0.00    +0.030 A 
ATOM     26  C   UNL     1      12.106  10.004  20.483  0.00  0.00    +0.030 A 
ATOM     27  C   UNL     1      10.838   8.857  22.688  0.00  0.00    +0.022 A 
ATOM     28  C   UNL     1      11.772  10.793  21.584  0.00  0.00    +0.022 A 
ATOM     29  C   UNL     1      11.138  10.219  22.686  0.00  0.00    +0.041 A 
ENDBRANCH   2  24
ENDBRANCH  10   2
ENDBRANCH  21  10
ENDBRANCH  14  21
TORSDOF 8
ENDMDL
MODEL 4
REMARK VINA RESULT:      -7.0      3.070      4.052
REMARK  Name = 40781555
REMARK  9 active torsions:
REMARK  status: ('A' for Active; 'I' for Inactive)
REMARK    1  A    between atoms: S_2  and  N_10
REMARK    2  A    between atoms: S_2  and  C_24
REMARK    3  A    between atoms: O_4  and  C_12
REMARK    4  A    between atoms: O_5  and  C_13
REMARK    5  A    between atoms: N_10  and  C_21
REMARK    6  A    between atoms: C_11  and  C_15
REMARK    7  A    between atoms: C_14  and  C_21
REMARK    8  A    between atoms: C_15  and  C_22
REMARK    9  A    between atoms: C_16  and  C_23
REMARK                            x       y       z     vdW  Elec       q    Type
REMARK                         _______ _______ _______ _____ _____    ______ ____
ROOT
ATOM      3  O   UNL     1      11.176   9.106  20.669  0.00  0.00    -0.366 OA
ATOM     11  C   UNL     1      11.678   7.792  20.370  0.00  0.00    +0.158 C 
ATOM     12  C   UNL     1      11.822   7.091  21.710  0.00  0.00    +0.175 C 
ATOM     13  C   UNL     1      10.638   7.651  22.472  0.00  0.00    +0.175 C 
ATOM     14  C   UNL     1      10.615   9.100  22.002  0.00  0.00    +0.165 C 
ENDROOT
BRANCH  12   4
ATOM      4  O   UNL     1      11.789   5.686  21.580  0.00  0.00    -0.387 OA
ATOM     30  H   UNL     1      10.856   5.416  21.572  0.00  0.00    +0.210 HD
ENDBRANCH  12   4
BRANCH  13   5
ATOM      5  O   UNL     1       9.431   7.026  22.042  0.00  0.00    -0.387 OA
ATOM     31  H   UNL     1       9.077   7.551  21.304  0.00  0.00    +0.210 HD
ENDBRANCH  13   5
BRANCH  11  15
ATOM     15  C   UNL     1      12.987   7.906  19.607  0.00  0.00    +0.130 C 
BRANCH  15  22
ATOM      6  O   UNL     1      12.236   7.176  17.482  0.00  0.00    -0.276 OA
ATOM      9  N   UNL     1      13.023   9.359  17.609  0.00  0.00    -0.301 N 
ATOM     16  C   UNL     1      14.620  11.341  16.219  0.00  0.00    -0.011 C 
ATOM     17  C   UNL     1      14.862  10.997  17.696  0.00  0.00    +0.022 C 
ATOM     18  C   UNL     1      14.004  10.138  15.488  0.00  0.00    +0.022 C 
ATOM     19  C   UNL     1      13.588  10.483  18.363  0.00  0.00    +0.108 C 
ATOM     20  C   UNL     1      12.746   9.643  16.200  0.00  0.00    +0.108 C 
ATOM     22  C   UNL     1      12.711   8.107  18.138  0.00  0.00    +0.218 C 
ATOM     23  C   UNL     1      15.916  11.781  15.543  0.00  0.00    +0.007 C 
ENDBRANCH  15  22
ENDBRANCH  11  15
BRANCH  14  21
ATOM     21  C   UNL     1      11.462  10.023  22.867  0.00  0.00    +0.140 C 
BRANCH  21  10
ATOM     10  N   UNL     1      12.596  10.517  22.142  0.00  0.00    -0.187 NA
ATOM     32  H   UNL     1      13.112   9.839  21.568  0.00  0.00    +0.148 HD
BRANCH  10   2
ATOM      2  S   UNL     1      12.727  12.180  21.711  0.00  0.00    +0.058 S 
ATOM      7  O   UNL     1      11.723  12.478  20.708  0.00  0.00    -0.153 OA
ATOM      8  O   UNL     1      14.115  12.529  21.479  0.00  0.00    -0.153 OA
BRANCH   2  24
ATOM      1 CL   UNL     1      11.003  14.970  27.064  0.00  0.00    -0.084 Cl
ATOM     24  C   UNL     1      12.241  12.966  23.218  0.00  0.00    +0.105 A 
ATOM     25  C   UNL     1      13.099  12.955  24.318  0.00  0.00    +0.030 A 
ATOM     26  C   UNL     1      11.001  13.597  23.306  0.00  0.00    +0.030 A 
ATOM     27  C   UNL     1      12.717  13.575  25.507  0.00  0.00    +0.022 A 
ATOM     28  C   UNL     1      10.618  14.217  24.497  0.00  0.00    +0.022 A 
ATOM     29  C   UNL     1      11.476  14.206  25.596  0.00  0.00    +0.041 A 
ENDBRANCH   2  24
ENDBRANCH  10   2
ENDBRANCH  21  10
ENDBRANCH  14  21
TORSDOF 8
ENDMDL
MODEL 5
REMARK VINA RESULT:      -7.0     27.199     29.791
REMARK  Name = 40781555
REMARK  9 active torsions:
REMARK  status: ('A' for Active; 'I' for Inactive)
REMARK    1  A    between atoms: S_2  and  N_10
REMARK    2  A    between atoms: S_2  and  C_24
REMARK    3  A    between atoms: O_4  and  C_12
REMARK    4  A    between atoms: O_5  and  C_13
REMARK    5  A    between atoms: N_10  and  C_21
REMARK    6  A    between atoms: C_11  and  C_15
REMARK    7  A    between atoms: C_14  and  C_21
REMARK    8  A    between atoms: C_15  and  C_22
REMARK    9  A    between atoms: C_16  and  C_23
REMARK                            x       y       z     vdW  Elec       q    Type
REMARK                         _______ _______ _______ _____ _____    ______ ____
ROOT
ATOM      3  O   UNL     1      -4.500 -11.074  18.730  0.00  0.00    -0.366 OA
ATOM     11  C   UNL     1      -5.710 -11.693  19.202  0.00  0.00    +0.158 C 
ATOM     12  C   UNL     1      -6.206 -12.554  18.054  0.00  0.00    +0.175 C 
ATOM     13  C   UNL     1      -4.902 -13.041  17.456  0.00  0.00    +0.175 C 
ATOM     14  C   UNL     1      -4.015 -11.809  17.584  0.00  0.00    +0.165 C 
ENDROOT
BRANCH  12   4
ATOM      4  O   UNL     1      -7.042 -13.601  18.499  0.00  0.00    -0.387 OA
ATOM     30  H   UNL     1      -7.960 -13.339  18.315  0.00  0.00    +0.210 HD
ENDBRANCH  12   4
BRANCH  13   5
ATOM      5  O   UNL     1      -4.343 -14.076  18.262  0.00  0.00    -0.387 OA
ATOM     31  H   UNL     1      -4.849 -14.887  18.086  0.00  0.00    +0.210 HD
ENDBRANCH  13   5
BRANCH  11  15
ATOM     15  C   UNL     1      -6.701 -10.622  19.623  0.00  0.00    +0.130 C 
BRANCH  15  22
ATOM      6  O   UNL     1      -7.097  -9.601  17.522  0.00  0.00    -0.276 OA
ATOM      9  N   UNL     1      -8.910 -10.657  18.519  0.00  0.00    -0.301 N 
ATOM     16  C   UNL     1     -11.755 -10.411  19.028  0.00  0.00    -0.011 C 
ATOM     17  C   UNL     1     -10.755 -10.714  20.153  0.00  0.00    +0.022 C 
ATOM     18  C   UNL     1     -11.063  -9.633  17.898  0.00  0.00    +0.022 C 
ATOM     19  C   UNL     1      -9.513 -11.423  19.616  0.00  0.00    +0.108 C 
ATOM     20  C   UNL     1      -9.816 -10.365  17.407  0.00  0.00    +0.108 C 
ATOM     22  C   UNL     1      -7.580 -10.245  18.457  0.00  0.00    +0.218 C 
ATOM     23  C   UNL     1     -12.957  -9.636  19.563  0.00  0.00    +0.007 C 
ENDBRANCH  15  22
ENDBRANCH  11  15
BRANCH  14  21
ATOM     21  C   UNL     1      -4.094 -10.888  16.373  0.00  0.00    +0.140 C 
BRANCH  21  10
ATOM     10  N   UNL     1      -3.685 -11.567  15.179  0.00  0.00    -0.187 NA
ATOM     32  H   UNL     1      -4.430 -11.964  14.592  0.00  0.00    +0.148 HD
BRANCH  10   2
ATOM      2  S   UNL     1      -2.183 -11.208  14.414  0.00  0.00    +0.058 S 
ATOM      7  O   UNL     1      -1.503 -12.456  14.122  0.00  0.00    -0.153 OA
ATOM      8  O   UNL     1      -1.494 -10.154  15.133  0.00  0.00    -0.153 OA
BRANCH   2  24
ATOM      1 CL   UNL     1      -4.134  -8.745   8.979  0.00  0.00    -0.084 Cl
ATOM     24  C   UNL     1      -2.733 -10.515  12.883  0.00  0.00    +0.105 A 
ATOM     25  C   UNL     1      -1.801 -10.060  11.950  0.00  0.00    +0.030 A 
ATOM     26  C   UNL     1      -4.097 -10.424  12.610  0.00  0.00    +0.030 A 
ATOM     27  C   UNL     1      -2.234  -9.513  10.742  0.00  0.00    +0.022 A 
ATOM     28  C   UNL     1      -4.531  -9.875  11.402  0.00  0.00    +0.022 A 
ATOM     29  C   UNL     1      -3.599  -9.421  10.469  0.00  0.00    +0.041 A 
ENDBRANCH   2  24
ENDBRANCH  10   2
ENDBRANCH  21  10
ENDBRANCH  14  21
TORSDOF 8
ENDMDL
MODEL 6
REMARK VINA RESULT:      -6.8     27.732     29.681
REMARK  Name = 40781555
REMARK  9 active torsions:
REMARK  status: ('A' for Active; 'I' for Inactive)
REMARK    1  A    between atoms: S_2  and  N_10
REMARK    2  A    between atoms: S_2  and  C_24
REMARK    3  A    between atoms: O_4  and  C_12
REMARK    4  A    between atoms: O_5  and  C_13
REMARK    5  A    between atoms: N_10  and  C_21
REMARK    6  A    between atoms: C_11  and  C_15
REMARK    7  A    between atoms: C_14  and  C_21
REMARK    8  A    between atoms: C_15  and  C_22
REMARK    9  A    between atoms: C_16  and  C_23
REMARK                            x       y       z     vdW  Elec       q    Type
REMARK                         _______ _______ _______ _____ _____    ______ ____
ROOT
ATOM      3  O   UNL     1      -5.405 -12.581  15.547  0.00  0.00    -0.366 OA
ATOM     11  C   UNL     1      -4.230 -11.969  16.107  0.00  0.00    +0.158 C 
ATOM     12  C   UNL     1      -4.476 -11.896  17.603  0.00  0.00    +0.175 C 
ATOM     13  C   UNL     1      -5.251 -13.176  17.844  0.00  0.00    +0.175 C 
ATOM     14  C   UNL     1      -6.129 -13.254  16.602  0.00  0.00    +0.165 C 
ENDROOT
BRANCH  12   4
ATOM      4  O   UNL     1      -3.272 -11.825  18.337  0.00  0.00    -0.387 OA
ATOM     30  H   UNL     1      -3.419 -11.215  19.079  0.00  0.00    +0.210 HD
ENDBRANCH  12   4
BRANCH  13   5
ATOM      5  O   UNL     1      -4.370 -14.298  17.836  0.00  0.00    -0.387 OA
ATOM     31  H   UNL     1      -4.653 -14.885  17.114  0.00  0.00    +0.210 HD
ENDBRANCH  13   5
BRANCH  11  15
ATOM     15  C   UNL     1      -4.008 -10.609  15.466  0.00  0.00    +0.130 C 
BRANCH  15  22
ATOM      6  O   UNL     1      -1.705 -10.614  14.911  0.00  0.00    -0.276 OA
ATOM      9  N   UNL     1      -3.197 -10.818  13.142  0.00  0.00    -0.301 N 
ATOM     16  C   UNL     1      -3.716  -9.948  10.425  0.00  0.00    -0.011 C 
ATOM     17  C   UNL     1      -4.784  -9.849  11.524  0.00  0.00    +0.022 C 
ATOM     18  C   UNL     1      -2.311  -9.883  11.042  0.00  0.00    +0.022 C 
ATOM     19  C   UNL     1      -4.562 -10.900  12.610  0.00  0.00    +0.108 C 
ATOM     20  C   UNL     1      -2.139 -10.934  12.137  0.00  0.00    +0.108 C 
ATOM     22  C   UNL     1      -2.862 -10.681  14.489  0.00  0.00    +0.218 C 
ATOM     23  C   UNL     1      -3.903  -8.846   9.384  0.00  0.00    +0.007 C 
ENDBRANCH  15  22
ENDBRANCH  11  15
BRANCH  14  21
ATOM     21  C   UNL     1      -7.468 -12.548  16.772  0.00  0.00    +0.140 C 
BRANCH  21  10
ATOM     10  N   UNL     1      -7.759 -12.317  18.156  0.00  0.00    -0.187 NA
ATOM     32  H   UNL     1      -7.585 -13.095  18.804  0.00  0.00    +0.148 HD
BRANCH  10   2
ATOM      2  S   UNL     1      -7.765 -10.725  18.816  0.00  0.00    +0.058 S 
ATOM      7  O   UNL     1      -7.246  -9.809  17.819  0.00  0.00    -0.153 OA
ATOM      8  O   UNL     1      -7.209 -10.736  20.156  0.00  0.00    -0.153 OA
BRANCH   2  24
ATOM      1 CL   UNL     1     -13.926  -9.668  19.398  0.00  0.00    -0.084 Cl
ATOM     24  C   UNL     1      -9.500 -10.427  18.981  0.00  0.00    +0.105 A 
ATOM     25  C   UNL     1     -10.216 -11.027  20.017  0.00  0.00    +0.030 A 
ATOM     26  C   UNL     1     -10.152  -9.592  18.074  0.00  0.00    +0.030 A 
ATOM     27  C   UNL     1     -11.584 -10.793  20.147  0.00  0.00    +0.022 A 
ATOM     28  C   UNL     1     -11.522  -9.358  18.203  0.00  0.00    +0.022 A 
ATOM     29  C   UNL     1     -12.237  -9.958  19.239  0.00  0.00    +0.041 A 
ENDBRANCH   2  24
ENDBRANCH  10   2
ENDBRANCH  21  10
ENDBRANCH  14  21
TORSDOF 8
ENDMDL
MODEL 7
REMARK VINA RESULT:      -6.6     28.177     29.700
REMARK  Name = 40781555
REMARK  9 active torsions:
REMARK  status: ('A' for Active; 'I' for Inactive)
REMARK    1  A    between atoms: S_2  and  N_10
REMARK    2  A    between atoms: S_2  and  C_24
REMARK    3  A    between atoms: O_4  and  C_12
REMARK    4  A    between atoms: O_5  and  C_13
REMARK    5  A    between atoms: N_10  and  C_21
REMARK    6  A    between atoms: C_11  and  C_15
REMARK    7  A    between atoms: C_14  and  C_21
REMARK    8  A    between atoms: C_15  and  C_22
REMARK    9  A    between atoms: C_16  and  C_23
REMARK                            x       y       z     vdW  Elec       q    Type
REMARK                         _______ _______ _______ _____ _____    ______ ____
ROOT
ATOM      3  O   UNL     1      -6.533 -11.696  17.300  0.00  0.00    -0.366 OA
ATOM     11  C   UNL     1      -5.262 -11.325  16.738  0.00  0.00    +0.158 C 
ATOM     12  C   UNL     1      -4.272 -11.380  17.888  0.00  0.00    +0.175 C 
ATOM     13  C   UNL     1      -4.802 -12.552  18.688  0.00  0.00    +0.175 C 
ATOM     14  C   UNL     1      -6.309 -12.367  18.561  0.00  0.00    +0.165 C 
ENDROOT
BRANCH  12   4
ATOM      4  O   UNL     1      -2.946 -11.564  17.438  0.00  0.00    -0.387 OA
ATOM     30  H   UNL     1      -2.675 -10.746  16.988  0.00  0.00    +0.210 HD
ENDBRANCH  12   4
BRANCH  13   5
ATOM      5  O   UNL     1      -4.451 -13.782  18.057  0.00  0.00    -0.387 OA
ATOM     31  H   UNL     1      -4.773 -13.741  17.140  0.00  0.00    +0.210 HD
ENDBRANCH  13   5
BRANCH  11  15
ATOM     15  C   UNL     1      -5.368  -9.952  16.099  0.00  0.00    +0.130 C 
BRANCH  15  22
ATOM      6  O   UNL     1      -7.170  -9.889  14.562  0.00  0.00    -0.276 OA
ATOM      9  N   UNL     1      -5.077 -10.390  13.685  0.00  0.00    -0.301 N 
ATOM     16  C   UNL     1      -3.695 -12.102  11.795  0.00  0.00    -0.011 C 
ATOM     17  C   UNL     1      -3.230 -11.963  13.252  0.00  0.00    +0.022 C 
ATOM     18  C   UNL     1      -5.204 -11.833  11.693  0.00  0.00    +0.022 C 
ATOM     19  C   UNL     1      -3.635 -10.611  13.838  0.00  0.00    +0.108 C 
ATOM     20  C   UNL     1      -5.569 -10.484  12.309  0.00  0.00    +0.108 C 
ATOM     22  C   UNL     1      -5.959 -10.071  14.717  0.00  0.00    +0.218 C 
ATOM     23  C   UNL     1      -3.351 -13.483  11.244  0.00  0.00    +0.007 C 
ENDBRANCH  15  22
ENDBRANCH  11  15
BRANCH  14  21
ATOM     21  C   UNL     1      -6.898 -11.496  19.663  0.00  0.00    +0.140 C 
BRANCH  21  10
ATOM     10  N   UNL     1      -7.817 -10.535  19.128  0.00  0.00    -0.187 NA
ATOM     32  H   UNL     1      -7.450  -9.884  18.422  0.00  0.00    +0.148 HD
BRANCH  10   2
ATOM      2  S   UNL     1      -9.515 -10.822  19.131  0.00  0.00    +0.058 S 
ATOM      7  O   UNL     1     -10.028 -10.555  20.461  0.00  0.00    -0.153 OA
ATOM      8  O   UNL     1      -9.812 -12.081  18.475  0.00  0.00    -0.153 OA
BRANCH   2  24
ATOM      1 CL   UNL     1     -11.533  -6.250  15.331  0.00  0.00    -0.084 Cl
ATOM     24  C   UNL     1     -10.084  -9.535  18.060  0.00  0.00    +0.105 A 
ATOM     25  C   UNL     1      -9.165  -8.761  17.352  0.00  0.00    +0.030 A 
ATOM     26  C   UNL     1     -11.451  -9.295  17.924  0.00  0.00    +0.030 A 
ATOM     27  C   UNL     1      -9.613  -7.745  16.508  0.00  0.00    +0.022 A 
ATOM     28  C   UNL     1     -11.899  -8.278  17.080  0.00  0.00    +0.022 A 
ATOM     29  C   UNL     1     -10.980  -7.504  16.372  0.00  0.00    +0.041 A 
ENDBRANCH   2  24
ENDBRANCH  10   2
ENDBRANCH  21  10
ENDBRANCH  14  21
TORSDOF 8
ENDMDL
MODEL 8
REMARK VINA RESULT:      -6.4     26.816     29.075
REMARK  Name = 40781555
REMARK  9 active torsions:
REMARK  status: ('A' for Active; 'I' for Inactive)
REMARK    1  A    between atoms: S_2  and  N_10
REMARK    2  A    between atoms: S_2  and  C_24
REMARK    3  A    between atoms: O_4  and  C_12
REMARK    4  A    between atoms: O_5  and  C_13
REMARK    5  A    between atoms: N_10  and  C_21
REMARK    6  A    between atoms: C_11  and  C_15
REMARK    7  A    between atoms: C_14  and  C_21
REMARK    8  A    between atoms: C_15  and  C_22
REMARK    9  A    between atoms: C_16  and  C_23
REMARK                            x       y       z     vdW  Elec       q    Type
REMARK                         _______ _______ _______ _____ _____    ______ ____
ROOT
ATOM      3  O   UNL     1      -3.508 -12.089  15.453  0.00  0.00    -0.366 OA
ATOM     11  C   UNL     1      -2.913 -11.849  14.166  0.00  0.00    +0.158 C 
ATOM     12  C   UNL     1      -2.413 -10.416  14.204  0.00  0.00    +0.175 C 
ATOM     13  C   UNL     1      -1.964 -10.291  15.645  0.00  0.00    +0.175 C 
ATOM     14  C   UNL     1      -3.034 -11.087  16.382  0.00  0.00    +0.165 C 
ENDROOT
BRANCH  12   4
ATOM      4  O   UNL     1      -1.376 -10.191  13.273  0.00  0.00    -0.387 OA
ATOM     30  H   UNL     1      -0.574  -9.974  13.778  0.00  0.00    +0.210 HD
ENDBRANCH  12   4
BRANCH  13   5
ATOM      5  O   UNL     1      -0.713 -10.949  15.834  0.00  0.00    -0.387 OA
ATOM     31  H   UNL     1      -0.116 -10.647  15.128  0.00  0.00    +0.210 HD
ENDBRANCH  13   5
BRANCH  11  15
ATOM     15  C   UNL     1      -3.939 -12.101  13.074  0.00  0.00    +0.130 C 
BRANCH  15  22
ATOM      6  O   UNL     1      -5.529 -10.439  13.641  0.00  0.00    -0.276 OA
ATOM      9  N   UNL     1      -4.470 -10.201  11.587  0.00  0.00    -0.301 N 
ATOM     16  C   UNL     1      -4.912  -9.491   8.810  0.00  0.00    -0.011 C 
ATOM     17  C   UNL     1      -4.197 -10.790   9.209  0.00  0.00    +0.022 C 
ATOM     18  C   UNL     1      -5.877  -9.053   9.922  0.00  0.00    +0.022 C 
ATOM     19  C   UNL     1      -3.515 -10.653  10.569  0.00  0.00    +0.108 C 
ATOM     20  C   UNL     1      -5.160  -8.950  11.267  0.00  0.00    +0.108 C 
ATOM     22  C   UNL     1      -4.720 -10.840  12.801  0.00  0.00    +0.218 C 
ATOM     23  C   UNL     1      -5.652  -9.663   7.485  0.00  0.00    +0.007 C 
ENDBRANCH  15  22
ENDBRANCH  11  15
BRANCH  14  21
ATOM     21  C   UNL     1      -4.228 -10.239  16.800  0.00  0.00    +0.140 C 
BRANCH  21  10
ATOM     10  N   UNL     1      -5.437 -11.008  16.796  0.00  0.00    -0.187 NA
ATOM     32  H   UNL     1      -5.553 -11.688  16.034  0.00  0.00    +0.148 HD
BRANCH  10   2
ATOM      2  S   UNL     1      -6.326 -11.286  18.246  0.00  0.00    +0.058 S 
ATOM      7  O   UNL     1      -5.632 -10.641  19.344  0.00  0.00    -0.153 OA
ATOM      8  O   UNL     1      -6.703 -12.683  18.342  0.00  0.00    -0.153 OA
BRANCH   2  24
ATOM      1 CL   UNL     1     -11.579  -8.044  17.102  0.00  0.00    -0.084 Cl
ATOM     24  C   UNL     1      -7.805 -10.373  17.924  0.00  0.00    +0.105 A 
ATOM     25  C   UNL     1      -8.981 -10.687  18.605  0.00  0.00    +0.030 A 
ATOM     26  C   UNL     1      -7.795  -9.338  16.989  0.00  0.00    +0.030 A 
ATOM     27  C   UNL     1     -10.148  -9.967  18.351  0.00  0.00    +0.022 A 
ATOM     28  C   UNL     1      -8.963  -8.618  16.734  0.00  0.00    +0.022 A 
ATOM     29  C   UNL     1     -10.139  -8.933  17.416  0.00  0.00    +0.041 A 
ENDBRANCH   2  24
ENDBRANCH  10   2
ENDBRANCH  21  10
ENDBRANCH  14  21
TORSDOF 8
ENDMDL
MODEL 9
REMARK VINA RESULT:      -6.4     27.868     30.011
REMARK  Name = 40781555
REMARK  9 active torsions:
REMARK  status: ('A' for Active; 'I' for Inactive)
REMARK    1  A    between atoms: S_2  and  N_10
REMARK    2  A    between atoms: S_2  and  C_24
REMARK    3  A    between atoms: O_4  and  C_12
REMARK    4  A    between atoms: O_5  and  C_13
REMARK    5  A    between atoms: N_10  and  C_21
REMARK    6  A    between atoms: C_11  and  C_15
REMARK    7  A    between atoms: C_14  and  C_21
REMARK    8  A    between atoms: C_15  and  C_22
REMARK    9  A    between atoms: C_16  and  C_23
REMARK                            x       y       z     vdW  Elec       q    Type
REMARK                         _______ _______ _______ _____ _____    ______ ____
ROOT
ATOM      3  O   UNL     1      -6.126 -10.081  17.640  0.00  0.00    -0.366 OA
ATOM     11  C   UNL     1      -7.389 -10.691  17.958  0.00  0.00    +0.158 C 
ATOM     12  C   UNL     1      -7.057 -12.085  18.463  0.00  0.00    +0.175 C 
ATOM     13  C   UNL     1      -5.757 -11.837  19.200  0.00  0.00    +0.175 C 
ATOM     14  C   UNL     1      -5.071 -10.816  18.300  0.00  0.00    +0.165 C 
ENDROOT
BRANCH  12   4
ATOM      4  O   UNL     1      -8.077 -12.607  19.288  0.00  0.00    -0.387 OA
ATOM     30  H   UNL     1      -8.201 -13.540  19.043  0.00  0.00    +0.210 HD
ENDBRANCH  12   4
BRANCH  13   5
ATOM      5  O   UNL     1      -6.011 -11.218  20.459  0.00  0.00    -0.387 OA
ATOM     31  H   UNL     1      -5.179 -10.814  20.758  0.00  0.00    +0.210 HD
ENDBRANCH  13   5
BRANCH  11  15
ATOM     15  C   UNL     1      -8.281 -10.693  16.728  0.00  0.00    +0.130 C 
BRANCH  15  22
ATOM      6  O   UNL     1     -10.394 -11.547  17.374  0.00  0.00    -0.276 OA
ATOM      9  N   UNL     1     -10.214  -9.236  17.218  0.00  0.00    -0.301 N 
ATOM     16  C   UNL     1     -11.598  -6.849  16.322  0.00  0.00    -0.011 C 
ATOM     17  C   UNL     1     -10.152  -7.151  15.905  0.00  0.00    +0.022 C 
ATOM     18  C   UNL     1     -12.347  -8.157  16.623  0.00  0.00    +0.022 C 
ATOM     19  C   UNL     1      -9.442  -8.018  16.943  0.00  0.00    +0.108 C 
ATOM     20  C   UNL     1     -11.594  -9.002  17.648  0.00  0.00    +0.108 C 
ATOM     22  C   UNL     1      -9.724 -10.538  17.138  0.00  0.00    +0.218 C 
ATOM     23  C   UNL     1     -12.320  -6.046  15.243  0.00  0.00    +0.007 C 
ENDBRANCH  15  22
ENDBRANCH  11  15
BRANCH  14  21
ATOM     21  C   UNL     1      -4.206 -11.457  17.223  0.00  0.00    +0.140 C 
BRANCH  21  10
ATOM     10  N   UNL     1      -3.811 -10.495  16.236  0.00  0.00    -0.187 NA
ATOM     32  H   UNL     1      -3.687  -9.525  16.555  0.00  0.00    +0.148 HD
BRANCH  10   2
ATOM      2  S   UNL     1      -2.970 -10.970  14.809  0.00  0.00    +0.058 S 
ATOM      7  O   UNL     1      -2.913 -12.418  14.767  0.00  0.00    -0.153 OA
ATOM      8  O   UNL     1      -1.759 -10.188  14.657  0.00  0.00    -0.153 OA
BRANCH   2  24
ATOM      1 CL   UNL     1      -6.955  -9.058  10.350  0.00  0.00    -0.084 Cl
ATOM     24  C   UNL     1      -4.093 -10.432  13.553  0.00  0.00    +0.105 A 
ATOM     25  C   UNL     1      -3.645 -10.267  12.243  0.00  0.00    +0.030 A 
ATOM     26  C   UNL     1      -5.425 -10.173  13.874  0.00  0.00    +0.030 A 
ATOM     27  C   UNL     1      -4.530  -9.842  11.252  0.00  0.00    +0.022 A 
ATOM     28  C   UNL     1      -6.310  -9.747  12.883  0.00  0.00    +0.022 A 
ATOM     29  C   UNL     1      -5.863  -9.582  11.572  0.00  0.00    +0.041 A 
ENDBRANCH   2  24
ENDBRANCH  10   2
ENDBRANCH  21  10
ENDBRANCH  14  21
TORSDOF 8
ENDMDL
MODEL 10
REMARK VINA RESULT:      -6.3     27.396     29.541
REMARK  Name = 40781555
REMARK  9 active torsions:
REMARK  status: ('A' for Active; 'I' for Inactive)
REMARK    1  A    between atoms: S_2  and  N_10
REMARK    2  A    between atoms: S_2  and  C_24
REMARK    3  A    between atoms: O_4  and  C_12
REMARK    4  A    between atoms: O_5  and  C_13
REMARK    5  A    between atoms: N_10  and  C_21
REMARK    6  A    between atoms: C_11  and  C_15
REMARK    7  A    between atoms: C_14  and  C_21
REMARK    8  A    between atoms: C_15  and  C_22
REMARK    9  A    between atoms: C_16  and  C_23
REMARK                            x       y       z     vdW  Elec       q    Type
REMARK                         _______ _______ _______ _____ _____    ______ ____
ROOT
ATOM      3  O   UNL     1      -4.326 -12.506  16.495  0.00  0.00    -0.366 OA
ATOM     11  C   UNL     1      -4.019 -12.261  15.111  0.00  0.00    +0.158 C 
ATOM     12  C   UNL     1      -3.590 -10.806  15.036  0.00  0.00    +0.175 C 
ATOM     13  C   UNL     1      -2.862 -10.637  16.355  0.00  0.00    +0.175 C 
ATOM     14  C   UNL     1      -3.720 -11.469  17.300  0.00  0.00    +0.165 C 
ENDROOT
BRANCH  12   4
ATOM      4  O   UNL     1      -2.776 -10.550  13.912  0.00  0.00    -0.387 OA
ATOM     30  H   UNL     1      -2.524 -11.408  13.533  0.00  0.00    +0.210 HD
ENDBRANCH  12   4
BRANCH  13   5
ATOM      5  O   UNL     1      -1.569 -11.236  16.287  0.00  0.00    -0.387 OA
ATOM     31  H   UNL     1      -1.125 -10.881  15.498  0.00  0.00    +0.210 HD
ENDBRANCH  13   5
BRANCH  11  15
ATOM     15  C   UNL     1      -5.233 -12.576  14.255  0.00  0.00    +0.130 C 
BRANCH  15  22
ATOM      6  O   UNL     1      -4.164 -14.038  12.729  0.00  0.00    -0.276 OA
ATOM      9  N   UNL     1      -5.138 -12.132  11.827  0.00  0.00    -0.301 N 
ATOM     16  C   UNL     1      -4.751 -10.022   9.874  0.00  0.00    -0.011 C 
ATOM     17  C   UNL     1      -5.123  -9.717  11.333  0.00  0.00    +0.022 C 
ATOM     18  C   UNL     1      -3.995 -11.356   9.787  0.00  0.00    +0.022 C 
ATOM     19  C   UNL     1      -5.888 -10.878  11.966  0.00  0.00    +0.108 C 
ATOM     20  C   UNL     1      -4.783 -12.484  10.451  0.00  0.00    +0.108 C 
ATOM     22  C   UNL     1      -4.795 -12.988  12.872  0.00  0.00    +0.218 C 
ATOM     23  C   UNL     1      -3.924  -8.888   9.275  0.00  0.00    +0.007 C 
ENDBRANCH  15  22
ENDBRANCH  11  15
BRANCH  14  21
ATOM     21  C   UNL     1      -4.842 -10.668  17.948  0.00  0.00    +0.140 C 
BRANCH  21  10
ATOM     10  N   UNL     1      -6.088 -11.373  17.880  0.00  0.00    -0.187 NA
ATOM     32  H   UNL     1      -6.127 -12.189  17.257  0.00  0.00    +0.148 HD
BRANCH  10   2
ATOM      2  S   UNL     1      -7.221 -11.314  19.177  0.00  0.00    +0.058 S 
ATOM      7  O   UNL     1      -6.628 -10.579  20.277  0.00  0.00    -0.153 OA
ATOM      8  O   UNL     1      -7.794 -12.628  19.402  0.00  0.00    -0.153 OA
BRANCH   2  24
ATOM      1 CL   UNL     1     -11.745  -7.743  16.686  0.00  0.00    -0.084 Cl
ATOM     24  C   UNL     1      -8.495 -10.309  18.475  0.00  0.00    +0.105 A 
ATOM     25  C   UNL     1      -8.185  -9.386  17.476  0.00  0.00    +0.030 A 
ATOM     26  C   UNL     1      -9.810 -10.440  18.920  0.00  0.00    +0.030 A 
ATOM     27  C   UNL     1      -9.189  -8.593  16.923  0.00  0.00    +0.022 A 
ATOM     28  C   UNL     1     -10.816  -9.645  18.367  0.00  0.00    +0.022 A 
ATOM     29  C   UNL     1     -10.505  -8.723  17.368  0.00  0.00    +0.041 A 
ENDBRANCH   2  24
ENDBRANCH  10   2
ENDBRANCH  21  10
ENDBRANCH  14  21
TORSDOF 8
ENDMDL
