MODEL 1
REMARK VINA RESULT:      -7.1      0.000      0.000
REMARK  Name = 45783434
REMARK  9 active torsions:
REMARK  status: ('A' for Active; 'I' for Inactive)
REMARK    1  A    between atoms: O_3  and  C_25
REMARK    2  A    between atoms: O_3  and  C_28
REMARK    3  A    between atoms: O_4  and  C_29
REMARK    4  A    between atoms: O_4  and  C_30
REMARK    5  A    between atoms: N_5  and  C_10
REMARK    6  A    between atoms: C_11  and  C_19
REMARK    7  A    between atoms: C_20  and  C_21
REMARK    8  A    between atoms: C_22  and  C_23
REMARK    9  A    between atoms: C_28  and  C_29
REMARK                            x       y       z     vdW  Elec       q    Type
REMARK                         _______ _______ _______ _____ _____    ______ ____
ROOT
ATOM      1  O   UNL     1      18.439   6.363  19.896  0.00  0.00    -0.336 OA
ATOM      7  N   UNL     1      17.048   7.637  21.103  0.00  0.00    -0.189 NA
ATOM      8  N   UNL     1      17.160   6.158  19.362  0.00  0.00    -0.054 NA
ATOM     19  C   UNL     1      18.283   7.246  20.916  0.00  0.00    +0.245 A 
ATOM     22  C   UNL     1      16.395   6.943  20.127  0.00  0.00    +0.221 A 
ENDROOT
BRANCH  22  23
ATOM      9  N   UNL     1      14.233   6.984  21.070  0.00  0.00    -0.252 NA
ATOM     23  C   UNL     1      14.977   7.054  19.943  0.00  0.00    +0.115 A 
ATOM     24  C   UNL     1      14.449   7.221  18.673  0.00  0.00    +0.077 A 
ATOM     25  C   UNL     1      13.068   7.323  18.551  0.00  0.00    +0.124 A 
ATOM     26  C   UNL     1      12.894   7.086  20.911  0.00  0.00    +0.115 A 
ATOM     27  C   UNL     1      12.268   7.255  19.687  0.00  0.00    +0.065 A 
BRANCH  25   3
ATOM      3  O   UNL     1      12.501   7.488  17.326  0.00  0.00    -0.490 OA
BRANCH   3  28
ATOM     28  C   UNL     1      11.633   8.608  17.157  0.00  0.00    +0.257 C 
BRANCH  28  29
ATOM     29  C   UNL     1      11.918   9.257  15.816  0.00  0.00    +0.200 C 
BRANCH  29   4
ATOM      4  O   UNL     1      13.206   8.855  15.369  0.00  0.00    -0.380 OA
ATOM     30  C   UNL     1      14.176   9.868  15.593  0.00  0.00    +0.194 C 
ENDBRANCH  29   4
ENDBRANCH  28  29
ENDBRANCH   3  28
ENDBRANCH  25   3
ENDBRANCH  22  23
BRANCH  19  11
ATOM      5  N   UNL     1      20.746   6.970  21.142  0.00  0.00    -0.288 NA
ATOM     11  C   UNL     1      19.539   7.639  21.666  0.00  0.00    +0.146 C 
ATOM     12  C   UNL     1      21.866   7.876  21.397  0.00  0.00    +0.085 C 
ATOM     13  C   UNL     1      19.849   9.144  21.559  0.00  0.00    +0.030 C 
ATOM     16  C   UNL     1      21.271   9.219  21.024  0.00  0.00    +0.017 C 
BRANCH   5  10
ATOM      2  O   UNL     1      24.743   2.678  22.991  0.00  0.00    -0.276 OA
ATOM      6  N   UNL     1      22.676   3.354  22.171  0.00  0.00    -0.302 N 
ATOM     10  C   UNL     1      20.967   5.647  21.721  0.00  0.00    +0.060 C 
ATOM     14  C   UNL     1      22.135   5.696  22.715  0.00  0.00    +0.038 C 
ATOM     15  C   UNL     1      21.251   4.627  20.611  0.00  0.00    +0.038 C 
ATOM     17  C   UNL     1      22.446   4.303  23.261  0.00  0.00    +0.109 C 
ATOM     18  C   UNL     1      21.580   3.254  21.198  0.00  0.00    +0.109 C 
ATOM     20  C   UNL     1      23.851   2.602  22.141  0.00  0.00    +0.212 C 
ATOM     21  C   UNL     1      24.015   1.649  20.985  0.00  0.00    +0.109 C 
ENDBRANCH   5  10
ENDBRANCH  19  11
TORSDOF 7
ENDMDL
MODEL 2
REMARK VINA RESULT:      -6.9      2.078      9.617
REMARK  Name = 45783434
REMARK  9 active torsions:
REMARK  status: ('A' for Active; 'I' for Inactive)
REMARK    1  A    between atoms: O_3  and  C_25
REMARK    2  A    between atoms: O_3  and  C_28
REMARK    3  A    between atoms: O_4  and  C_29
REMARK    4  A    between atoms: O_4  and  C_30
REMARK    5  A    between atoms: N_5  and  C_10
REMARK    6  A    between atoms: C_11  and  C_19
REMARK    7  A    between atoms: C_20  and  C_21
REMARK    8  A    between atoms: C_22  and  C_23
REMARK    9  A    between atoms: C_28  and  C_29
REMARK                            x       y       z     vdW  Elec       q    Type
REMARK                         _______ _______ _______ _____ _____    ______ ____
ROOT
ATOM      1  O   UNL     1      14.459   6.798  19.538  0.00  0.00    -0.336 OA
ATOM      7  N   UNL     1      15.639   8.133  20.895  0.00  0.00    -0.189 NA
ATOM      8  N   UNL     1      15.781   6.340  19.482  0.00  0.00    -0.054 NA
ATOM     19  C   UNL     1      14.463   7.855  20.392  0.00  0.00    +0.245 A 
ATOM     22  C   UNL     1      16.415   7.177  20.308  0.00  0.00    +0.221 A 
ENDROOT
BRANCH  22  23
ATOM      9  N   UNL     1      18.389   8.182  21.121  0.00  0.00    -0.252 NA
ATOM     23  C   UNL     1      17.824   7.086  20.567  0.00  0.00    +0.115 A 
ATOM     24  C   UNL     1      18.518   5.929  20.252  0.00  0.00    +0.077 A 
ATOM     25  C   UNL     1      19.881   5.895  20.524  0.00  0.00    +0.124 A 
ATOM     26  C   UNL     1      19.716   8.112  21.369  0.00  0.00    +0.115 A 
ATOM     27  C   UNL     1      20.499   7.003  21.093  0.00  0.00    +0.065 A 
BRANCH  25   3
ATOM      3  O   UNL     1      20.607   4.782  20.233  0.00  0.00    -0.490 OA
BRANCH   3  28
ATOM     28  C   UNL     1      21.989   4.798  20.587  0.00  0.00    +0.257 C 
BRANCH  28  29
ATOM     29  C   UNL     1      22.256   3.695  21.593  0.00  0.00    +0.200 C 
BRANCH  29   4
ATOM      4  O   UNL     1      22.637   2.514  20.899  0.00  0.00    -0.380 OA
ATOM     30  C   UNL     1      24.043   2.446  20.717  0.00  0.00    +0.194 C 
ENDBRANCH  29   4
ENDBRANCH  28  29
ENDBRANCH   3  28
ENDBRANCH  25   3
ENDBRANCH  22  23
BRANCH  19  11
ATOM      5  N   UNL     1      12.166   8.290  19.539  0.00  0.00    -0.288 NA
ATOM     11  C   UNL     1      13.132   8.537  20.628  0.00  0.00    +0.146 C 
ATOM     12  C   UNL     1      10.836   8.347  20.144  0.00  0.00    +0.085 C 
ATOM     13  C   UNL     1      12.423   8.034  21.900  0.00  0.00    +0.030 C 
ATOM     16  C   UNL     1      11.047   7.581  21.435  0.00  0.00    +0.017 C 
BRANCH   5  10
ATOM      2  O   UNL     1      15.225   9.981  14.479  0.00  0.00    -0.276 OA
ATOM      6  N   UNL     1      13.905  10.432  16.338  0.00  0.00    -0.302 N 
ATOM     10  C   UNL     1      12.303   9.226  18.425  0.00  0.00    +0.060 C 
ATOM     14  C   UNL     1      12.652   8.467  17.139  0.00  0.00    +0.038 C 
ATOM     15  C   UNL     1      13.383  10.268  18.743  0.00  0.00    +0.038 C 
ATOM     17  C   UNL     1      12.894   9.435  15.982  0.00  0.00    +0.109 C 
ATOM     18  C   UNL     1      13.611  11.202  17.554  0.00  0.00    +0.109 C 
ATOM     20  C   UNL     1      15.018  10.616  15.517  0.00  0.00    +0.212 C 
ATOM     21  C   UNL     1      16.015  11.659  15.953  0.00  0.00    +0.109 C 
ENDBRANCH   5  10
ENDBRANCH  19  11
TORSDOF 7
ENDMDL
MODEL 3
REMARK VINA RESULT:      -6.7      3.547     10.020
REMARK  Name = 45783434
REMARK  9 active torsions:
REMARK  status: ('A' for Active; 'I' for Inactive)
REMARK    1  A    between atoms: O_3  and  C_25
REMARK    2  A    between atoms: O_3  and  C_28
REMARK    3  A    between atoms: O_4  and  C_29
REMARK    4  A    between atoms: O_4  and  C_30
REMARK    5  A    between atoms: N_5  and  C_10
REMARK    6  A    between atoms: C_11  and  C_19
REMARK    7  A    between atoms: C_20  and  C_21
REMARK    8  A    between atoms: C_22  and  C_23
REMARK    9  A    between atoms: C_28  and  C_29
REMARK                            x       y       z     vdW  Elec       q    Type
REMARK                         _______ _______ _______ _____ _____    ______ ____
ROOT
ATOM      1  O   UNL     1      14.794   6.888  18.982  0.00  0.00    -0.336 OA
ATOM      7  N   UNL     1      16.012   8.349  20.164  0.00  0.00    -0.189 NA
ATOM      8  N   UNL     1      15.972   6.218  19.333  0.00  0.00    -0.054 NA
ATOM     19  C   UNL     1      14.899   8.135  19.510  0.00  0.00    +0.245 A 
ATOM     22  C   UNL     1      16.639   7.145  20.028  0.00  0.00    +0.221 A 
ENDROOT
BRANCH  22  23
ATOM      9  N   UNL     1      18.299   7.731  21.599  0.00  0.00    -0.252 NA
ATOM     23  C   UNL     1      17.933   6.900  20.597  0.00  0.00    +0.115 A 
ATOM     24  C   UNL     1      18.722   5.867  20.118  0.00  0.00    +0.077 A 
ATOM     25  C   UNL     1      19.967   5.673  20.706  0.00  0.00    +0.124 A 
ATOM     26  C   UNL     1      19.516   7.512  22.145  0.00  0.00    +0.115 A 
ATOM     27  C   UNL     1      20.379   6.507  21.740  0.00  0.00    +0.065 A 
BRANCH  25   3
ATOM      3  O   UNL     1      20.779   4.672  20.272  0.00  0.00    -0.490 OA
BRANCH   3  28
ATOM     28  C   UNL     1      22.104   4.635  20.800  0.00  0.00    +0.257 C 
BRANCH  28  29
ATOM     29  C   UNL     1      22.413   3.225  21.265  0.00  0.00    +0.200 C 
BRANCH  29   4
ATOM      4  O   UNL     1      23.799   2.967  21.079  0.00  0.00    -0.380 OA
ATOM     30  C   UNL     1      24.068   1.574  21.031  0.00  0.00    +0.194 C 
ENDBRANCH  29   4
ENDBRANCH  28  29
ENDBRANCH   3  28
ENDBRANCH  25   3
ENDBRANCH  22  23
BRANCH  19  11
ATOM      5  N   UNL     1      13.843  10.327  20.037  0.00  0.00    -0.288 NA
ATOM     11  C   UNL     1      13.732   9.071  19.268  0.00  0.00    +0.146 C 
ATOM     12  C   UNL     1      13.154  11.353  19.256  0.00  0.00    +0.085 C 
ATOM     13  C   UNL     1      13.625   9.521  17.799  0.00  0.00    +0.030 C 
ATOM     16  C   UNL     1      13.623  11.041  17.849  0.00  0.00    +0.017 C 
BRANCH   5  10
ATOM      2  O   UNL     1      10.001  12.483  24.328  0.00  0.00    -0.276 OA
ATOM      6  N   UNL     1      11.944  11.397  23.658  0.00  0.00    -0.302 N 
ATOM     10  C   UNL     1      13.311  10.220  21.394  0.00  0.00    +0.060 C 
ATOM     14  C   UNL     1      11.795  10.456  21.384  0.00  0.00    +0.038 C 
ATOM     15  C   UNL     1      14.006  11.231  22.313  0.00  0.00    +0.038 C 
ATOM     17  C   UNL     1      11.232  10.444  22.805  0.00  0.00    +0.109 C 
ATOM     18  C   UNL     1      13.399  11.204  23.717  0.00  0.00    +0.109 C 
ATOM     20  C   UNL     1      11.229  12.363  24.366  0.00  0.00    +0.212 C 
ATOM     21  C   UNL     1      12.035  13.309  25.219  0.00  0.00    +0.109 C 
ENDBRANCH   5  10
ENDBRANCH  19  11
TORSDOF 7
ENDMDL
MODEL 4
REMARK VINA RESULT:      -6.6      2.649      4.031
REMARK  Name = 45783434
REMARK  9 active torsions:
REMARK  status: ('A' for Active; 'I' for Inactive)
REMARK    1  A    between atoms: O_3  and  C_25
REMARK    2  A    between atoms: O_3  and  C_28
REMARK    3  A    between atoms: O_4  and  C_29
REMARK    4  A    between atoms: O_4  and  C_30
REMARK    5  A    between atoms: N_5  and  C_10
REMARK    6  A    between atoms: C_11  and  C_19
REMARK    7  A    between atoms: C_20  and  C_21
REMARK    8  A    between atoms: C_22  and  C_23
REMARK    9  A    between atoms: C_28  and  C_29
REMARK                            x       y       z     vdW  Elec       q    Type
REMARK                         _______ _______ _______ _____ _____    ______ ____
ROOT
ATOM      1  O   UNL     1      20.891   6.118  23.052  0.00  0.00    -0.336 OA
ATOM      7  N   UNL     1      20.674   5.892  20.834  0.00  0.00    -0.189 NA
ATOM      8  N   UNL     1      19.531   6.301  22.773  0.00  0.00    -0.054 NA
ATOM     19  C   UNL     1      21.492   5.882  21.856  0.00  0.00    +0.245 A 
ATOM     22  C   UNL     1      19.483   6.153  21.445  0.00  0.00    +0.221 A 
ENDROOT
BRANCH  22  23
ATOM      9  N   UNL     1      18.281   5.722  19.461  0.00  0.00    -0.252 NA
ATOM     23  C   UNL     1      18.261   6.261  20.701  0.00  0.00    +0.115 A 
ATOM     24  C   UNL     1      17.158   6.887  21.257  0.00  0.00    +0.077 A 
ATOM     25  C   UNL     1      15.999   6.964  20.493  0.00  0.00    +0.124 A 
ATOM     26  C   UNL     1      17.137   5.817  18.747  0.00  0.00    +0.115 A 
ATOM     27  C   UNL     1      15.980   6.421  19.212  0.00  0.00    +0.065 A 
BRANCH  25   3
ATOM      3  O   UNL     1      14.889   7.568  20.994  0.00  0.00    -0.490 OA
BRANCH   3  28
ATOM     28  C   UNL     1      13.714   7.544  20.184  0.00  0.00    +0.257 C 
BRANCH  28  29
ATOM     29  C   UNL     1      12.614   6.814  20.929  0.00  0.00    +0.200 C 
BRANCH  29   4
ATOM      4  O   UNL     1      11.363   7.110  20.320  0.00  0.00    -0.380 OA
ATOM     30  C   UNL     1      11.083   8.502  20.356  0.00  0.00    +0.194 C 
ENDBRANCH  29   4
ENDBRANCH  28  29
ENDBRANCH   3  28
ENDBRANCH  25   3
ENDBRANCH  22  23
BRANCH  19  11
ATOM      5  N   UNL     1      23.421   4.619  20.920  0.00  0.00    -0.288 NA
ATOM     11  C   UNL     1      22.988   5.647  21.887  0.00  0.00    +0.146 C 
ATOM     12  C   UNL     1      24.789   4.964  20.534  0.00  0.00    +0.085 C 
ATOM     13  C   UNL     1      23.795   6.903  21.511  0.00  0.00    +0.030 C 
ATOM     16  C   UNL     1      24.696   6.468  20.364  0.00  0.00    +0.017 C 
BRANCH   5  10
ATOM      2  O   UNL     1      25.705   0.273  24.622  0.00  0.00    -0.276 OA
ATOM      6  N   UNL     1      24.541   0.971  22.736  0.00  0.00    -0.302 N 
ATOM     10  C   UNL     1      23.325   3.259  21.444  0.00  0.00    +0.060 C 
ATOM     14  C   UNL     1      23.628   3.251  22.948  0.00  0.00    +0.038 C 
ATOM     15  C   UNL     1      24.297   2.337  20.696  0.00  0.00    +0.038 C 
ATOM     17  C   UNL     1      23.628   1.826  23.497  0.00  0.00    +0.109 C 
ATOM     18  C   UNL     1      24.283   0.928  21.291  0.00  0.00    +0.109 C 
ATOM     20  C   UNL     1      25.531   0.248  23.400  0.00  0.00    +0.212 C 
ATOM     21  C   UNL     1      26.433  -0.606  22.546  0.00  0.00    +0.109 C 
ENDBRANCH   5  10
ENDBRANCH  19  11
TORSDOF 7
ENDMDL
MODEL 5
REMARK VINA RESULT:      -6.5     27.359     30.433
REMARK  Name = 45783434
REMARK  9 active torsions:
REMARK  status: ('A' for Active; 'I' for Inactive)
REMARK    1  A    between atoms: O_3  and  C_25
REMARK    2  A    between atoms: O_3  and  C_28
REMARK    3  A    between atoms: O_4  and  C_29
REMARK    4  A    between atoms: O_4  and  C_30
REMARK    5  A    between atoms: N_5  and  C_10
REMARK    6  A    between atoms: C_11  and  C_19
REMARK    7  A    between atoms: C_20  and  C_21
REMARK    8  A    between atoms: C_22  and  C_23
REMARK    9  A    between atoms: C_28  and  C_29
REMARK                            x       y       z     vdW  Elec       q    Type
REMARK                         _______ _______ _______ _____ _____    ______ ____
ROOT
ATOM      1  O   UNL     1      -1.954 -10.623  14.460  0.00  0.00    -0.336 OA
ATOM      7  N   UNL     1      -4.188 -10.779  14.479  0.00  0.00    -0.189 NA
ATOM      8  N   UNL     1      -2.330 -10.658  15.808  0.00  0.00    -0.054 NA
ATOM     19  C   UNL     1      -3.107 -10.698  13.746  0.00  0.00    +0.245 A 
ATOM     22  C   UNL     1      -3.662 -10.751  15.737  0.00  0.00    +0.221 A 
ENDROOT
BRANCH  22  23
ATOM      9  N   UNL     1      -3.976 -11.489  17.956  0.00  0.00    -0.252 NA
ATOM     23  C   UNL     1      -4.494 -10.816  16.904  0.00  0.00    +0.115 A 
ATOM     24  C   UNL     1      -5.741 -10.213  16.907  0.00  0.00    +0.077 A 
ATOM     25  C   UNL     1      -6.506 -10.306  18.064  0.00  0.00    +0.124 A 
ATOM     26  C   UNL     1      -4.749 -11.559  19.063  0.00  0.00    +0.115 A 
ATOM     27  C   UNL     1      -6.007 -10.990  19.168  0.00  0.00    +0.065 A 
BRANCH  25   3
ATOM      3  O   UNL     1      -7.737  -9.730  18.117  0.00  0.00    -0.490 OA
BRANCH   3  28
ATOM     28  C   UNL     1      -8.268  -9.216  16.896  0.00  0.00    +0.257 C 
BRANCH  28  29
ATOM     29  C   UNL     1      -9.358  -8.212  17.214  0.00  0.00    +0.200 C 
BRANCH  29   4
ATOM      4  O   UNL     1      -9.855  -7.664  16.000  0.00  0.00    -0.380 OA
ATOM     30  C   UNL     1      -9.910  -8.642  14.972  0.00  0.00    +0.194 C 
ENDBRANCH  29   4
ENDBRANCH  28  29
ENDBRANCH   3  28
ENDBRANCH  25   3
ENDBRANCH  22  23
BRANCH  19  11
ATOM      5  N   UNL     1      -3.815  -9.649  11.603  0.00  0.00    -0.288 NA
ATOM     11  C   UNL     1      -2.969 -10.679  12.237  0.00  0.00    +0.146 C 
ATOM     12  C   UNL     1      -3.128  -9.247  10.376  0.00  0.00    +0.085 C 
ATOM     13  C   UNL     1      -1.537 -10.348  11.775  0.00  0.00    +0.030 C 
ATOM     16  C   UNL     1      -1.688  -9.158  10.839  0.00  0.00    +0.017 C 
BRANCH   5  10
ATOM      2  O   UNL     1      -8.612  -9.865   7.760  0.00  0.00    -0.276 OA
ATOM      6  N   UNL     1      -7.669  -9.881   9.884  0.00  0.00    -0.302 N 
ATOM     10  C   UNL     1      -5.179 -10.104  11.344  0.00  0.00    +0.060 C 
ATOM     14  C   UNL     1      -5.307 -10.587   9.893  0.00  0.00    +0.038 C 
ATOM     15  C   UNL     1      -6.174  -8.970  11.622  0.00  0.00    +0.038 C 
ATOM     17  C   UNL     1      -6.749 -10.977   9.573  0.00  0.00    +0.109 C 
ATOM     18  C   UNL     1      -7.600  -9.393  11.268  0.00  0.00    +0.109 C 
ATOM     20  C   UNL     1      -8.547  -9.414   8.907  0.00  0.00    +0.212 C 
ATOM     21  C   UNL     1      -9.461  -8.282   9.304  0.00  0.00    +0.109 C 
ENDBRANCH   5  10
ENDBRANCH  19  11
TORSDOF 7
ENDMDL
MODEL 6
REMARK VINA RESULT:      -6.3     16.073     21.085
REMARK  Name = 45783434
REMARK  9 active torsions:
REMARK  status: ('A' for Active; 'I' for Inactive)
REMARK    1  A    between atoms: O_3  and  C_25
REMARK    2  A    between atoms: O_3  and  C_28
REMARK    3  A    between atoms: O_4  and  C_29
REMARK    4  A    between atoms: O_4  and  C_30
REMARK    5  A    between atoms: N_5  and  C_10
REMARK    6  A    between atoms: C_11  and  C_19
REMARK    7  A    between atoms: C_20  and  C_21
REMARK    8  A    between atoms: C_22  and  C_23
REMARK    9  A    between atoms: C_28  and  C_29
REMARK                            x       y       z     vdW  Elec       q    Type
REMARK                         _______ _______ _______ _____ _____    ______ ____
ROOT
ATOM      1  O   UNL     1      13.276   6.099   2.170  0.00  0.00    -0.336 OA
ATOM      7  N   UNL     1      11.412   4.905   2.510  0.00  0.00    -0.189 NA
ATOM      8  N   UNL     1      12.477   6.860   3.032  0.00  0.00    -0.054 NA
ATOM     19  C   UNL     1      12.574   4.964   1.911  0.00  0.00    +0.245 A 
ATOM     22  C   UNL     1      11.396   6.089   3.186  0.00  0.00    +0.221 A 
ENDROOT
BRANCH  22  23
ATOM      9  N   UNL     1       9.416   7.346   3.444  0.00  0.00    -0.252 NA
ATOM     23  C   UNL     1      10.284   6.475   4.006  0.00  0.00    +0.115 A 
ATOM     24  C   UNL     1      10.150   5.962   5.287  0.00  0.00    +0.077 A 
ATOM     25  C   UNL     1       9.054   6.369   6.038  0.00  0.00    +0.124 A 
ATOM     26  C   UNL     1       8.364   7.720   4.206  0.00  0.00    +0.115 A 
ATOM     27  C   UNL     1       8.138   7.265   5.495  0.00  0.00    +0.065 A 
BRANCH  25   3
ATOM      3  O   UNL     1       8.876   5.894   7.300  0.00  0.00    -0.490 OA
BRANCH   3  28
ATOM     28  C   UNL     1       9.831   4.948   7.778  0.00  0.00    +0.257 C 
BRANCH  28  29
ATOM     29  C   UNL     1      10.444   5.469   9.064  0.00  0.00    +0.200 C 
BRANCH  29   4
ATOM      4  O   UNL     1      10.124   4.579  10.126  0.00  0.00    -0.380 OA
ATOM     30  C   UNL     1       8.731   4.572  10.398  0.00  0.00    +0.194 C 
ENDBRANCH  29   4
ENDBRANCH  28  29
ENDBRANCH   3  28
ENDBRANCH  25   3
ENDBRANCH  22  23
BRANCH  19  11
ATOM      5  N   UNL     1      13.133   4.345  -0.434  0.00  0.00    -0.288 NA
ATOM     11  C   UNL     1      13.232   3.960   0.988  0.00  0.00    +0.146 C 
ATOM     12  C   UNL     1      14.308   3.781  -1.098  0.00  0.00    +0.085 C 
ATOM     13  C   UNL     1      14.743   3.813   1.249  0.00  0.00    +0.030 C 
ATOM     16  C   UNL     1      15.405   4.075  -0.095  0.00  0.00    +0.017 C 
BRANCH   5  10
ATOM      2  O   UNL     1      10.147   2.752  -5.568  0.00  0.00    -0.276 OA
ATOM      6  N   UNL     1      10.226   3.624  -3.415  0.00  0.00    -0.302 N 
ATOM     10  C   UNL     1      11.887   3.913  -1.062  0.00  0.00    +0.060 C 
ATOM     14  C   UNL     1      12.175   2.843  -2.123  0.00  0.00    +0.038 C 
ATOM     15  C   UNL     1      11.171   5.115  -1.691  0.00  0.00    +0.038 C 
ATOM     17  C   UNL     1      10.896   2.447  -2.860  0.00  0.00    +0.109 C 
ATOM     18  C   UNL     1       9.911   4.673  -2.437  0.00  0.00    +0.109 C 
ATOM     20  C   UNL     1       9.904   3.663  -4.772  0.00  0.00    +0.212 C 
ATOM     21  C   UNL     1       9.218   4.911  -5.268  0.00  0.00    +0.109 C 
ENDBRANCH   5  10
ENDBRANCH  19  11
TORSDOF 7
ENDMDL
MODEL 7
REMARK VINA RESULT:      -6.3      6.078      9.167
REMARK  Name = 45783434
REMARK  9 active torsions:
REMARK  status: ('A' for Active; 'I' for Inactive)
REMARK    1  A    between atoms: O_3  and  C_25
REMARK    2  A    between atoms: O_3  and  C_28
REMARK    3  A    between atoms: O_4  and  C_29
REMARK    4  A    between atoms: O_4  and  C_30
REMARK    5  A    between atoms: N_5  and  C_10
REMARK    6  A    between atoms: C_11  and  C_19
REMARK    7  A    between atoms: C_20  and  C_21
REMARK    8  A    between atoms: C_22  and  C_23
REMARK    9  A    between atoms: C_28  and  C_29
REMARK                            x       y       z     vdW  Elec       q    Type
REMARK                         _______ _______ _______ _____ _____    ______ ____
ROOT
ATOM      1  O   UNL     1      12.067  11.254  20.593  0.00  0.00    -0.336 OA
ATOM      7  N   UNL     1      11.701  10.509  22.672  0.00  0.00    -0.189 NA
ATOM      8  N   UNL     1      11.989  12.391  21.406  0.00  0.00    -0.054 NA
ATOM     19  C   UNL     1      11.885  10.190  21.417  0.00  0.00    +0.245 A 
ATOM     22  C   UNL     1      11.772  11.870  22.617  0.00  0.00    +0.221 A 
ENDROOT
BRANCH  22  23
ATOM      9  N   UNL     1      10.490  13.420  23.850  0.00  0.00    -0.252 NA
ATOM     23  C   UNL     1      11.621  12.681  23.791  0.00  0.00    +0.115 A 
ATOM     24  C   UNL     1      12.598  12.677  24.773  0.00  0.00    +0.077 A 
ATOM     25  C   UNL     1      12.401  13.481  25.889  0.00  0.00    +0.124 A 
ATOM     26  C   UNL     1      10.334  14.190  24.950  0.00  0.00    +0.115 A 
ATOM     27  C   UNL     1      11.250  14.256  25.988  0.00  0.00    +0.065 A 
BRANCH  25   3
ATOM      3  O   UNL     1      13.331  13.512  26.882  0.00  0.00    -0.490 OA
BRANCH   3  28
ATOM     28  C   UNL     1      13.361  14.675  27.708  0.00  0.00    +0.257 C 
BRANCH  28  29
ATOM     29  C   UNL     1      14.194  14.384  28.942  0.00  0.00    +0.200 C 
BRANCH  29   4
ATOM      4  O   UNL     1      14.826  13.119  28.789  0.00  0.00    -0.380 OA
ATOM     30  C   UNL     1      14.679  12.320  29.953  0.00  0.00    +0.194 C 
ENDBRANCH  29   4
ENDBRANCH  28  29
ENDBRANCH   3  28
ENDBRANCH  25   3
ENDBRANCH  22  23
BRANCH  19  11
ATOM      5  N   UNL     1      12.962   7.947  21.356  0.00  0.00    -0.288 NA
ATOM     11  C   UNL     1      11.927   8.821  20.770  0.00  0.00    +0.146 C 
ATOM     12  C   UNL     1      12.477   6.574  21.209  0.00  0.00    +0.085 C 
ATOM     13  C   UNL     1      10.610   8.040  20.945  0.00  0.00    +0.030 C 
ATOM     16  C   UNL     1      11.015   6.719  21.582  0.00  0.00    +0.017 C 
BRANCH   5  10
ATOM      2  O   UNL     1      18.502   5.598  20.088  0.00  0.00    -0.276 OA
ATOM      6  N   UNL     1      17.064   7.373  20.515  0.00  0.00    -0.302 N 
ATOM     10  C   UNL     1      14.280   8.130  20.753  0.00  0.00    +0.060 C 
ATOM     14  C   UNL     1      14.705   6.852  20.019  0.00  0.00    +0.038 C 
ATOM     15  C   UNL     1      15.306   8.497  21.832  0.00  0.00    +0.038 C 
ATOM     17  C   UNL     1      16.122   6.989  19.462  0.00  0.00    +0.109 C 
ATOM     18  C   UNL     1      16.712   8.601  21.238  0.00  0.00    +0.109 C 
ATOM     20  C   UNL     1      18.209   6.608  20.734  0.00  0.00    +0.212 C 
ATOM     21  C   UNL     1      19.127   7.067  21.838  0.00  0.00    +0.109 C 
ENDBRANCH   5  10
ENDBRANCH  19  11
TORSDOF 7
ENDMDL
MODEL 8
REMARK VINA RESULT:      -6.1     27.992     31.063
REMARK  Name = 45783434
REMARK  9 active torsions:
REMARK  status: ('A' for Active; 'I' for Inactive)
REMARK    1  A    between atoms: O_3  and  C_25
REMARK    2  A    between atoms: O_3  and  C_28
REMARK    3  A    between atoms: O_4  and  C_29
REMARK    4  A    between atoms: O_4  and  C_30
REMARK    5  A    between atoms: N_5  and  C_10
REMARK    6  A    between atoms: C_11  and  C_19
REMARK    7  A    between atoms: C_20  and  C_21
REMARK    8  A    between atoms: C_22  and  C_23
REMARK    9  A    between atoms: C_28  and  C_29
REMARK                            x       y       z     vdW  Elec       q    Type
REMARK                         _______ _______ _______ _____ _____    ______ ____
ROOT
ATOM      1  O   UNL     1      -4.420 -11.865  16.782  0.00  0.00    -0.336 OA
ATOM      7  N   UNL     1      -4.991 -10.103  15.524  0.00  0.00    -0.189 NA
ATOM      8  N   UNL     1      -3.703 -11.991  15.586  0.00  0.00    -0.054 NA
ATOM     19  C   UNL     1      -5.153 -10.728  16.662  0.00  0.00    +0.245 A 
ATOM     22  C   UNL     1      -4.093 -10.915  14.896  0.00  0.00    +0.221 A 
ENDROOT
BRANCH  22  23
ATOM      9  N   UNL     1      -2.263 -10.688  13.424  0.00  0.00    -0.252 NA
ATOM     23  C   UNL     1      -3.605 -10.625  13.579  0.00  0.00    +0.115 A 
ATOM     24  C   UNL     1      -4.489 -10.304  12.562  0.00  0.00    +0.077 A 
ATOM     25  C   UNL     1      -3.964 -10.032  11.304  0.00  0.00    +0.124 A 
ATOM     26  C   UNL     1      -1.789 -10.416  12.188  0.00  0.00    +0.115 A 
ATOM     27  C   UNL     1      -2.588 -10.087  11.105  0.00  0.00    +0.065 A 
BRANCH  25   3
ATOM      3  O   UNL     1      -4.790  -9.712  10.272  0.00  0.00    -0.490 OA
BRANCH   3  28
ATOM     28  C   UNL     1      -5.564  -8.520  10.405  0.00  0.00    +0.257 C 
BRANCH  28  29
ATOM     29  C   UNL     1      -6.957  -8.772   9.861  0.00  0.00    +0.200 C 
BRANCH  29   4
ATOM      4  O   UNL     1      -7.155  -7.973   8.701  0.00  0.00    -0.380 OA
ATOM     30  C   UNL     1      -7.450  -8.769   7.563  0.00  0.00    +0.194 C 
ENDBRANCH  29   4
ENDBRANCH  28  29
ENDBRANCH   3  28
ENDBRANCH  25   3
ENDBRANCH  22  23
BRANCH  19  11
ATOM      5  N   UNL     1      -7.458 -10.639  17.597  0.00  0.00    -0.288 NA
ATOM     11  C   UNL     1      -6.029 -10.362  17.843  0.00  0.00    +0.146 C 
ATOM     12  C   UNL     1      -8.053 -10.931  18.901  0.00  0.00    +0.085 C 
ATOM     13  C   UNL     1      -5.686 -11.168  19.109  0.00  0.00    +0.030 C 
ATOM     16  C   UNL     1      -6.997 -11.814  19.535  0.00  0.00    +0.017 C 
BRANCH   5  10
ATOM      2  O   UNL     1     -12.772  -7.900  16.155  0.00  0.00    -0.276 OA
ATOM      6  N   UNL     1     -10.547  -8.431  15.742  0.00  0.00    -0.302 N 
ATOM     10  C   UNL     1      -8.146  -9.547  16.912  0.00  0.00    +0.060 C 
ATOM     14  C   UNL     1      -9.295  -9.021  17.782  0.00  0.00    +0.038 C 
ATOM     15  C   UNL     1      -8.677 -10.028  15.555  0.00  0.00    +0.038 C 
ATOM     17  C   UNL     1     -10.089  -7.944  17.044  0.00  0.00    +0.109 C 
ATOM     18  C   UNL     1      -9.483  -8.930  14.861  0.00  0.00    +0.109 C 
ATOM     20  C   UNL     1     -11.900  -8.358  15.411  0.00  0.00    +0.212 C 
ATOM     21  C   UNL     1     -12.293  -8.883  14.053  0.00  0.00    +0.109 C 
ENDBRANCH   5  10
ENDBRANCH  19  11
TORSDOF 7
ENDMDL
MODEL 9
REMARK VINA RESULT:      -6.1     26.933     31.339
REMARK  Name = 45783434
REMARK  9 active torsions:
REMARK  status: ('A' for Active; 'I' for Inactive)
REMARK    1  A    between atoms: O_3  and  C_25
REMARK    2  A    between atoms: O_3  and  C_28
REMARK    3  A    between atoms: O_4  and  C_29
REMARK    4  A    between atoms: O_4  and  C_30
REMARK    5  A    between atoms: N_5  and  C_10
REMARK    6  A    between atoms: C_11  and  C_19
REMARK    7  A    between atoms: C_20  and  C_21
REMARK    8  A    between atoms: C_22  and  C_23
REMARK    9  A    between atoms: C_28  and  C_29
REMARK                            x       y       z     vdW  Elec       q    Type
REMARK                         _______ _______ _______ _____ _____    ______ ____
ROOT
ATOM      1  O   UNL     1      -6.357 -12.365  17.297  0.00  0.00    -0.336 OA
ATOM      7  N   UNL     1      -5.552 -10.295  17.015  0.00  0.00    -0.189 NA
ATOM      8  N   UNL     1      -5.225 -12.495  16.484  0.00  0.00    -0.054 NA
ATOM     19  C   UNL     1      -6.478 -11.039  17.564  0.00  0.00    +0.245 A 
ATOM     22  C   UNL     1      -4.806 -11.232  16.363  0.00  0.00    +0.221 A 
ENDROOT
BRANCH  22  23
ATOM      9  N   UNL     1      -2.536 -10.588  16.312  0.00  0.00    -0.252 NA
ATOM     23  C   UNL     1      -3.647 -10.873  15.596  0.00  0.00    +0.115 A 
ATOM     24  C   UNL     1      -3.710 -10.834  14.212  0.00  0.00    +0.077 A 
ATOM     25  C   UNL     1      -2.559 -10.481  13.519  0.00  0.00    +0.124 A 
ATOM     26  C   UNL     1      -1.437 -10.248  15.603  0.00  0.00    +0.115 A 
ATOM     27  C   UNL     1      -1.395 -10.181  14.220  0.00  0.00    +0.065 A 
BRANCH  25   3
ATOM      3  O   UNL     1      -2.569 -10.428  12.160  0.00  0.00    -0.490 OA
BRANCH   3  28
ATOM     28  C   UNL     1      -3.754  -9.935  11.537  0.00  0.00    +0.257 C 
BRANCH  28  29
ATOM     29  C   UNL     1      -3.384  -9.271  10.224  0.00  0.00    +0.200 C 
BRANCH  29   4
ATOM      4  O   UNL     1      -4.572  -8.843   9.569  0.00  0.00    -0.380 OA
ATOM     30  C   UNL     1      -4.835  -9.618   8.409  0.00  0.00    +0.194 C 
ENDBRANCH  29   4
ENDBRANCH  28  29
ENDBRANCH   3  28
ENDBRANCH  25   3
ENDBRANCH  22  23
BRANCH  19  11
ATOM      5  N   UNL     1      -8.935 -10.673  17.725  0.00  0.00    -0.288 NA
ATOM     11  C   UNL     1      -7.644 -10.630  18.440  0.00  0.00    +0.146 C 
ATOM     12  C   UNL     1      -9.956 -10.965  18.730  0.00  0.00    +0.085 C 
ATOM     13  C   UNL     1      -7.836 -11.567  19.648  0.00  0.00    +0.030 C 
ATOM     16  C   UNL     1      -9.280 -12.038  19.560  0.00  0.00    +0.017 C 
BRANCH   5  10
ATOM      2  O   UNL     1     -13.128  -6.636  15.739  0.00  0.00    -0.276 OA
ATOM      6  N   UNL     1     -11.091  -7.743  15.573  0.00  0.00    -0.302 N 
ATOM     10  C   UNL     1      -9.224  -9.445  16.988  0.00  0.00    +0.060 C 
ATOM     14  C   UNL     1     -10.286  -8.623  17.731  0.00  0.00    +0.038 C 
ATOM     15  C   UNL     1      -9.703  -9.782  15.570  0.00  0.00    +0.038 C 
ATOM     17  C   UNL     1     -10.674  -7.382  16.929  0.00  0.00    +0.109 C 
ATOM     18  C   UNL     1     -10.103  -8.517  14.811  0.00  0.00    +0.109 C 
ATOM     20  C   UNL     1     -12.328  -7.317  15.091  0.00  0.00    +0.212 C 
ATOM     21  C   UNL     1     -12.686  -7.733  13.686  0.00  0.00    +0.109 C 
ENDBRANCH   5  10
ENDBRANCH  19  11
TORSDOF 7
ENDMDL
MODEL 10
REMARK VINA RESULT:      -6.0      2.635      4.012
REMARK  Name = 45783434
REMARK  9 active torsions:
REMARK  status: ('A' for Active; 'I' for Inactive)
REMARK    1  A    between atoms: O_3  and  C_25
REMARK    2  A    between atoms: O_3  and  C_28
REMARK    3  A    between atoms: O_4  and  C_29
REMARK    4  A    between atoms: O_4  and  C_30
REMARK    5  A    between atoms: N_5  and  C_10
REMARK    6  A    between atoms: C_11  and  C_19
REMARK    7  A    between atoms: C_20  and  C_21
REMARK    8  A    between atoms: C_22  and  C_23
REMARK    9  A    between atoms: C_28  and  C_29
REMARK                            x       y       z     vdW  Elec       q    Type
REMARK                         _______ _______ _______ _____ _____    ______ ____
ROOT
ATOM      1  O   UNL     1      20.455   8.520  23.395  0.00  0.00    -0.336 OA
ATOM      7  N   UNL     1      19.812   6.426  22.929  0.00  0.00    -0.189 NA
ATOM      8  N   UNL     1      19.551   8.618  22.330  0.00  0.00    -0.054 NA
ATOM     19  C   UNL     1      20.552   7.196  23.685  0.00  0.00    +0.245 A 
ATOM     22  C   UNL     1      19.217   7.343  22.113  0.00  0.00    +0.221 A 
ENDROOT
BRANCH  22  23
ATOM      9  N   UNL     1      18.754   6.044  20.198  0.00  0.00    -0.252 NA
ATOM     23  C   UNL     1      18.292   6.952  21.088  0.00  0.00    +0.115 A 
ATOM     24  C   UNL     1      17.019   7.497  21.051  0.00  0.00    +0.077 A 
ATOM     25  C   UNL     1      16.163   7.083  20.037  0.00  0.00    +0.124 A 
ATOM     26  C   UNL     1      17.894   5.667  19.225  0.00  0.00    +0.115 A 
ATOM     27  C   UNL     1      16.601   6.150  19.102  0.00  0.00    +0.065 A 
BRANCH  25   3
ATOM      3  O   UNL     1      14.902   7.587  19.958  0.00  0.00    -0.490 OA
BRANCH   3  28
ATOM     28  C   UNL     1      13.863   6.840  20.587  0.00  0.00    +0.257 C 
BRANCH  28  29
ATOM     29  C   UNL     1      12.602   6.945  19.750  0.00  0.00    +0.200 C 
BRANCH  29   4
ATOM      4  O   UNL     1      11.572   6.178  20.362  0.00  0.00    -0.380 OA
ATOM     30  C   UNL     1      11.271   6.657  21.665  0.00  0.00    +0.194 C 
ENDBRANCH  29   4
ENDBRANCH  28  29
ENDBRANCH   3  28
ENDBRANCH  25   3
ENDBRANCH  22  23
BRANCH  19  11
ATOM      5  N   UNL     1      22.717   6.163  24.347  0.00  0.00    -0.288 NA
ATOM     11  C   UNL     1      21.483   6.821  24.819  0.00  0.00    +0.146 C 
ATOM     12  C   UNL     1      23.758   6.487  25.322  0.00  0.00    +0.085 C 
ATOM     13  C   UNL     1      21.972   8.044  25.617  0.00  0.00    +0.030 C 
ATOM     16  C   UNL     1      23.491   7.955  25.588  0.00  0.00    +0.017 C 
BRANCH   5  10
ATOM      2  O   UNL     1      25.398   0.648  23.879  0.00  0.00    -0.276 OA
ATOM      6  N   UNL     1      23.682   2.151  23.433  0.00  0.00    -0.302 N 
ATOM     10  C   UNL     1      22.568   4.722  24.162  0.00  0.00    +0.060 C 
ATOM     14  C   UNL     1      23.529   3.969  25.091  0.00  0.00    +0.038 C 
ATOM     15  C   UNL     1      22.833   4.348  22.699  0.00  0.00    +0.038 C 
ATOM     17  C   UNL     1      23.458   2.463  24.846  0.00  0.00    +0.109 C 
ATOM     18  C   UNL     1      22.775   2.832  22.501  0.00  0.00    +0.109 C 
ATOM     20  C   UNL     1      24.671   1.236  23.073  0.00  0.00    +0.212 C 
ATOM     21  C   UNL     1      24.842   0.971  21.599  0.00  0.00    +0.109 C 
ENDBRANCH   5  10
ENDBRANCH  19  11
TORSDOF 7
ENDMDL
