MODEL 1
REMARK VINA RESULT:      -5.6      0.000      0.000
REMARK  Name = 28961232
REMARK  16 active torsions:
REMARK  status: ('A' for Active; 'I' for Inactive)
REMARK    1  A    between atoms: O_4  and  C_11
REMARK    2  A    between atoms: O_5  and  C_14
REMARK    3  A    between atoms: N_6  and  C_9
REMARK    4  A    between atoms: N_6  and  C_15
REMARK    5  A    between atoms: N_6  and  C_16
REMARK    6  A    between atoms: N_7  and  C_13
REMARK    7  A    between atoms: N_7  and  C_18
REMARK    8  A    between atoms: N_7  and  C_19
REMARK    9  A    between atoms: N_8  and  C_17
REMARK   10  A    between atoms: N_8  and  C_22
REMARK   11  A    between atoms: N_8  and  C_23
REMARK   12  A    between atoms: C_10  and  C_13
REMARK   13  A    between atoms: C_12  and  C_14
REMARK   14  A    between atoms: C_15  and  C_17
REMARK   15  A    between atoms: C_18  and  C_20
REMARK   16  A    between atoms: C_19  and  C_21
REMARK                            x       y       z     vdW  Elec       q    Type
REMARK                         _______ _______ _______ _____ _____    ______ ____
ROOT
ATOM     13  C   UNL     1      -2.357 -12.822  14.461  0.00  0.00    +0.118 C 
ENDROOT
BRANCH  13  10
ATOM      3  O   UNL     1      -2.239 -14.300  12.584  0.00  0.00    -0.366 OA
ATOM      9  C   UNL     1      -3.867 -14.927  14.204  0.00  0.00    +0.118 C 
ATOM     10  C   UNL     1      -3.162 -13.736  13.543  0.00  0.00    +0.152 C 
ATOM     11  C   UNL     1      -2.854 -16.052  14.052  0.00  0.00    +0.165 C 
ATOM     12  C   UNL     1      -2.290 -15.737  12.672  0.00  0.00    +0.174 C 
BRANCH  11   4
ATOM      4  O   UNL     1      -1.832 -15.970  15.036  0.00  0.00    -0.388 OA
ATOM     34  H   UNL     1      -1.558 -15.039  15.097  0.00  0.00    +0.210 HD
ENDBRANCH  11   4
BRANCH   9   6
ATOM      6  N   UNL     1      -4.357 -14.714  15.554  0.00  0.00    -0.296 NA
ATOM     16  C   UNL     1      -4.803 -15.976  16.153  0.00  0.00    +0.105 C 
BRANCH   6  15
ATOM     15  C   UNL     1      -5.453 -13.740  15.564  0.00  0.00    +0.100 C 
BRANCH  15  17
ATOM     17  C   UNL     1      -6.410 -14.037  16.714  0.00  0.00    +0.099 C 
BRANCH  17   8
ATOM      8  N   UNL     1      -7.786 -13.768  16.305  0.00  0.00    -0.307 NA
ATOM     22  C   UNL     1      -7.812 -12.852  15.164  0.00  0.00    +0.104 C 
ATOM     23  C   UNL     1      -8.555 -13.215  17.419  0.00  0.00    +0.104 C 
ENDBRANCH  17   8
ENDBRANCH  15  17
ENDBRANCH   6  15
ENDBRANCH   9   6
BRANCH  12  14
ATOM     14  C   UNL     1      -0.911 -16.304  12.385  0.00  0.00    +0.190 C 
BRANCH  14   5
ATOM      5  O   UNL     1       0.067 -15.355  12.780  0.00  0.00    -0.392 OA
ATOM     35  H   UNL     1       0.800 -15.419  12.144  0.00  0.00    +0.210 HD
ENDBRANCH  14   5
ENDBRANCH  12  14
ENDBRANCH  13  10
BRANCH  13   7
ATOM      7  N   UNL     1      -2.754 -11.433  14.291  0.00  0.00    -0.291 NA
BRANCH   7  18
ATOM     18  C   UNL     1      -2.520 -10.672  15.521  0.00  0.00    +0.120 C 
BRANCH  18  20
ATOM      1  F   UNL     1      -7.096 -10.534  18.806  0.00  0.00    -0.205 F 
ATOM     20  C   UNL     1      -3.743 -10.635  16.398  0.00  0.00    -0.033 A 
ATOM     24  C   UNL     1      -3.707 -11.210  17.669  0.00  0.00    +0.008 A 
ATOM     26  C   UNL     1      -4.911 -10.026  15.941  0.00  0.00    +0.008 A 
ATOM     28  C   UNL     1      -4.840 -11.176  18.482  0.00  0.00    +0.038 A 
ATOM     30  C   UNL     1      -6.044  -9.992  16.755  0.00  0.00    +0.038 A 
ATOM     32  C   UNL     1      -6.008 -10.567  18.025  0.00  0.00    +0.123 A 
ENDBRANCH  18  20
ENDBRANCH   7  18
BRANCH   7  19
ATOM     19  C   UNL     1      -2.032 -10.820  13.173  0.00  0.00    +0.120 C 
BRANCH  19  21
ATOM      2  F   UNL     1      -5.546  -8.710   9.307  0.00  0.00    -0.205 F 
ATOM     21  C   UNL     1      -2.971 -10.256  12.140  0.00  0.00    -0.033 A 
ATOM     25  C   UNL     1      -2.463  -9.694  10.969  0.00  0.00    +0.008 A 
ATOM     27  C   UNL     1      -4.349 -10.297  12.354  0.00  0.00    +0.008 A 
ATOM     29  C   UNL     1      -3.333  -9.172  10.012  0.00  0.00    +0.038 A 
ATOM     31  C   UNL     1      -5.219  -9.774  11.397  0.00  0.00    +0.038 A 
ATOM     33  C   UNL     1      -4.711  -9.211  10.226  0.00  0.00    +0.123 A 
ENDBRANCH  19  21
ENDBRANCH   7  19
ENDBRANCH  13   7
TORSDOF 13
ENDMDL
MODEL 2
REMARK VINA RESULT:      -5.5     23.658     27.104
REMARK  Name = 28961232
REMARK  16 active torsions:
REMARK  status: ('A' for Active; 'I' for Inactive)
REMARK    1  A    between atoms: O_4  and  C_11
REMARK    2  A    between atoms: O_5  and  C_14
REMARK    3  A    between atoms: N_6  and  C_9
REMARK    4  A    between atoms: N_6  and  C_15
REMARK    5  A    between atoms: N_6  and  C_16
REMARK    6  A    between atoms: N_7  and  C_13
REMARK    7  A    between atoms: N_7  and  C_18
REMARK    8  A    between atoms: N_7  and  C_19
REMARK    9  A    between atoms: N_8  and  C_17
REMARK   10  A    between atoms: N_8  and  C_22
REMARK   11  A    between atoms: N_8  and  C_23
REMARK   12  A    between atoms: C_10  and  C_13
REMARK   13  A    between atoms: C_12  and  C_14
REMARK   14  A    between atoms: C_15  and  C_17
REMARK   15  A    between atoms: C_18  and  C_20
REMARK   16  A    between atoms: C_19  and  C_21
REMARK                            x       y       z     vdW  Elec       q    Type
REMARK                         _______ _______ _______ _____ _____    ______ ____
ROOT
ATOM     13  C   UNL     1      11.509   8.184   5.147  0.00  0.00    +0.118 C 
ENDROOT
BRANCH  13  10
ATOM      3  O   UNL     1      13.593   7.131   5.663  0.00  0.00    -0.366 OA
ATOM      9  C   UNL     1      13.149   9.075   6.961  0.00  0.00    +0.118 C 
ATOM     10  C   UNL     1      12.506   7.874   6.258  0.00  0.00    +0.152 C 
ATOM     11  C   UNL     1      14.438   9.281   6.180  0.00  0.00    +0.165 C 
ATOM     12  C   UNL     1      14.827   7.835   5.898  0.00  0.00    +0.174 C 
BRANCH  11   4
ATOM      4  O   UNL     1      14.204   9.978   4.963  0.00  0.00    -0.388 OA
ATOM     34  H   UNL     1      14.959  10.571   4.815  0.00  0.00    +0.210 HD
ENDBRANCH  11   4
BRANCH   9   6
ATOM      6  N   UNL     1      12.316  10.257   7.103  0.00  0.00    -0.296 NA
ATOM     16  C   UNL     1      13.100  11.393   7.598  0.00  0.00    +0.105 C 
BRANCH   6  15
ATOM     15  C   UNL     1      11.188   9.996   8.004  0.00  0.00    +0.100 C 
BRANCH  15  17
ATOM     17  C   UNL     1      11.099  11.088   9.065  0.00  0.00    +0.099 C 
BRANCH  17   8
ATOM      8  N   UNL     1       9.809  11.766   8.982  0.00  0.00    -0.307 NA
ATOM     22  C   UNL     1       9.991  13.218   8.987  0.00  0.00    +0.104 C 
ATOM     23  C   UNL     1       8.942  11.359  10.087  0.00  0.00    +0.104 C 
ENDBRANCH  17   8
ENDBRANCH  15  17
ENDBRANCH   6  15
ENDBRANCH   9   6
BRANCH  12  14
ATOM     14  C   UNL     1      15.755   7.628   4.714  0.00  0.00    +0.190 C 
BRANCH  14   5
ATOM      5  O   UNL     1      15.477   6.366   4.129  0.00  0.00    -0.392 OA
ATOM     35  H   UNL     1      15.062   6.536   3.266  0.00  0.00    +0.210 HD
ENDBRANCH  14   5
ENDBRANCH  12  14
ENDBRANCH  13  10
BRANCH  13   7
ATOM      7  N   UNL     1      10.667   7.031   4.865  0.00  0.00    -0.291 NA
BRANCH   7  18
ATOM     18  C   UNL     1       9.393   7.131   5.582  0.00  0.00    +0.120 C 
BRANCH  18  20
ATOM      1  F   UNL     1       9.407   4.081  10.320  0.00  0.00    -0.205 F 
ATOM     20  C   UNL     1       9.397   6.316   6.848  0.00  0.00    -0.033 A 
ATOM     24  C   UNL     1       8.976   6.890   8.048  0.00  0.00    +0.008 A 
ATOM     26  C   UNL     1       9.821   4.988   6.821  0.00  0.00    +0.008 A 
ATOM     28  C   UNL     1       8.980   6.135   9.220  0.00  0.00    +0.038 A 
ATOM     30  C   UNL     1       9.824   4.233   7.995  0.00  0.00    +0.038 A 
ATOM     32  C   UNL     1       9.404   4.807   9.193  0.00  0.00    +0.123 A 
ENDBRANCH  18  20
ENDBRANCH   7  18
BRANCH   7  19
ATOM     19  C   UNL     1      10.428   6.903   3.425  0.00  0.00    +0.120 C 
BRANCH  19  21
ATOM      2  F   UNL     1      13.420   2.696   1.166  0.00  0.00    -0.205 F 
ATOM     21  C   UNL     1      11.228   5.780   2.822  0.00  0.00    -0.033 A 
ATOM     25  C   UNL     1      10.779   4.464   2.940  0.00  0.00    +0.008 A 
ATOM     27  C   UNL     1      12.416   6.054   2.144  0.00  0.00    +0.008 A 
ATOM     29  C   UNL     1      11.520   3.422   2.380  0.00  0.00    +0.038 A 
ATOM     31  C   UNL     1      13.156   5.012   1.585  0.00  0.00    +0.038 A 
ATOM     33  C   UNL     1      12.708   3.697   1.703  0.00  0.00    +0.123 A 
ENDBRANCH  19  21
ENDBRANCH   7  19
ENDBRANCH  13   7
TORSDOF 13
ENDMDL
MODEL 3
REMARK VINA RESULT:      -5.5     23.764     27.421
REMARK  Name = 28961232
REMARK  16 active torsions:
REMARK  status: ('A' for Active; 'I' for Inactive)
REMARK    1  A    between atoms: O_4  and  C_11
REMARK    2  A    between atoms: O_5  and  C_14
REMARK    3  A    between atoms: N_6  and  C_9
REMARK    4  A    between atoms: N_6  and  C_15
REMARK    5  A    between atoms: N_6  and  C_16
REMARK    6  A    between atoms: N_7  and  C_13
REMARK    7  A    between atoms: N_7  and  C_18
REMARK    8  A    between atoms: N_7  and  C_19
REMARK    9  A    between atoms: N_8  and  C_17
REMARK   10  A    between atoms: N_8  and  C_22
REMARK   11  A    between atoms: N_8  and  C_23
REMARK   12  A    between atoms: C_10  and  C_13
REMARK   13  A    between atoms: C_12  and  C_14
REMARK   14  A    between atoms: C_15  and  C_17
REMARK   15  A    between atoms: C_18  and  C_20
REMARK   16  A    between atoms: C_19  and  C_21
REMARK                            x       y       z     vdW  Elec       q    Type
REMARK                         _______ _______ _______ _____ _____    ______ ____
ROOT
ATOM     13  C   UNL     1      11.085   5.607   4.739  0.00  0.00    +0.118 C 
ENDROOT
BRANCH  13  10
ATOM      3  O   UNL     1       9.428   5.703   6.462  0.00  0.00    -0.366 OA
ATOM      9  C   UNL     1      11.002   7.487   6.538  0.00  0.00    +0.118 C 
ATOM     10  C   UNL     1      10.242   6.536   5.606  0.00  0.00    +0.152 C 
ATOM     11  C   UNL     1      11.066   6.708   7.843  0.00  0.00    +0.165 C 
ATOM     12  C   UNL     1       9.698   6.037   7.836  0.00  0.00    +0.174 C 
BRANCH  11   4
ATOM      4  O   UNL     1      12.098   5.731   7.817  0.00  0.00    -0.388 OA
ATOM     34  H   UNL     1      11.877   5.053   8.477  0.00  0.00    +0.210 HD
ENDBRANCH  11   4
BRANCH   9   6
ATOM      6  N   UNL     1      12.277   7.981   6.049  0.00  0.00    -0.296 NA
ATOM     16  C   UNL     1      12.911   8.859   7.038  0.00  0.00    +0.105 C 
BRANCH   6  15
ATOM     15  C   UNL     1      12.108   8.696   4.780  0.00  0.00    +0.100 C 
BRANCH  15  17
ATOM     17  C   UNL     1      13.443   8.789   4.047  0.00  0.00    +0.099 C 
BRANCH  17   8
ATOM      8  N   UNL     1      14.043   7.465   3.926  0.00  0.00    -0.307 NA
ATOM     22  C   UNL     1      15.400   7.464   4.476  0.00  0.00    +0.104 C 
ATOM     23  C   UNL     1      14.061   7.033   2.529  0.00  0.00    +0.104 C 
ENDBRANCH  17   8
ENDBRANCH  15  17
ENDBRANCH   6  15
ENDBRANCH   9   6
BRANCH  12  14
ATOM     14  C   UNL     1       9.581   4.785   8.687  0.00  0.00    +0.190 C 
BRANCH  14   5
ATOM      5  O   UNL     1      10.301   3.736   8.061  0.00  0.00    -0.392 OA
ATOM     35  H   UNL     1       9.773   3.442   7.299  0.00  0.00    +0.210 HD
ENDBRANCH  14   5
ENDBRANCH  12  14
ENDBRANCH  13  10
BRANCH  13   7
ATOM      7  N   UNL     1      10.648   5.648   3.352  0.00  0.00    -0.291 NA
BRANCH   7  18
ATOM     18  C   UNL     1      10.513   4.293   2.811  0.00  0.00    +0.120 C 
BRANCH  18  20
ATOM      1  F   UNL     1      13.857   3.477  -1.651  0.00  0.00    -0.205 F 
ATOM     20  C   UNL     1      11.406   4.075   1.618  0.00  0.00    -0.033 A 
ATOM     24  C   UNL     1      12.713   3.623   1.799  0.00  0.00    +0.008 A 
ATOM     26  C   UNL     1      10.927   4.326   0.332  0.00  0.00    +0.008 A 
ATOM     28  C   UNL     1      13.541   3.421   0.695  0.00  0.00    +0.038 A 
ATOM     30  C   UNL     1      11.756   4.123  -0.772  0.00  0.00    +0.038 A 
ATOM     32  C   UNL     1      13.062   3.672  -0.590  0.00  0.00    +0.123 A 
ENDBRANCH  18  20
ENDBRANCH   7  18
BRANCH   7  19
ATOM     19  C   UNL     1       9.379   6.370   3.229  0.00  0.00    +0.120 C 
BRANCH  19  21
ATOM      2  F   UNL     1       9.822  10.821  -0.197  0.00  0.00    -0.205 F 
ATOM     21  C   UNL     1       9.497   7.559   2.314  0.00  0.00    -0.033 A 
ATOM     25  C   UNL     1      10.627   7.711   1.511  0.00  0.00    +0.008 A 
ATOM     27  C   UNL     1       8.477   8.509   2.269  0.00  0.00    +0.008 A 
ATOM     29  C   UNL     1      10.737   8.813   0.662  0.00  0.00    +0.038 A 
ATOM     31  C   UNL     1       8.587   9.611   1.421  0.00  0.00    +0.038 A 
ATOM     33  C   UNL     1       9.717   9.763   0.618  0.00  0.00    +0.123 A 
ENDBRANCH  19  21
ENDBRANCH   7  19
ENDBRANCH  13   7
TORSDOF 13
ENDMDL
MODEL 4
REMARK VINA RESULT:      -5.3      3.002      5.197
REMARK  Name = 28961232
REMARK  16 active torsions:
REMARK  status: ('A' for Active; 'I' for Inactive)
REMARK    1  A    between atoms: O_4  and  C_11
REMARK    2  A    between atoms: O_5  and  C_14
REMARK    3  A    between atoms: N_6  and  C_9
REMARK    4  A    between atoms: N_6  and  C_15
REMARK    5  A    between atoms: N_6  and  C_16
REMARK    6  A    between atoms: N_7  and  C_13
REMARK    7  A    between atoms: N_7  and  C_18
REMARK    8  A    between atoms: N_7  and  C_19
REMARK    9  A    between atoms: N_8  and  C_17
REMARK   10  A    between atoms: N_8  and  C_22
REMARK   11  A    between atoms: N_8  and  C_23
REMARK   12  A    between atoms: C_10  and  C_13
REMARK   13  A    between atoms: C_12  and  C_14
REMARK   14  A    between atoms: C_15  and  C_17
REMARK   15  A    between atoms: C_18  and  C_20
REMARK   16  A    between atoms: C_19  and  C_21
REMARK                            x       y       z     vdW  Elec       q    Type
REMARK                         _______ _______ _______ _____ _____    ______ ____
ROOT
ATOM     13  C   UNL     1      -5.940 -12.223  14.582  0.00  0.00    +0.118 C 
ENDROOT
BRANCH  13  10
ATOM      3  O   UNL     1      -3.895 -12.223  15.822  0.00  0.00    -0.366 OA
ATOM      9  C   UNL     1      -5.775 -11.451  17.062  0.00  0.00    +0.118 C 
ATOM     10  C   UNL     1      -5.321 -12.417  15.962  0.00  0.00    +0.152 C 
ATOM     11  C   UNL     1      -4.728 -10.349  17.004  0.00  0.00    +0.165 C 
ATOM     12  C   UNL     1      -3.477 -11.166  16.707  0.00  0.00    +0.174 C 
BRANCH  11   4
ATOM      4  O   UNL     1      -4.989  -9.438  15.944  0.00  0.00    -0.388 OA
ATOM     34  H   UNL     1      -4.755  -9.882  15.112  0.00  0.00    +0.210 HD
ENDBRANCH  11   4
BRANCH   9   6
ATOM      6  N   UNL     1      -7.154 -11.000  16.992  0.00  0.00    -0.296 NA
ATOM     16  C   UNL     1      -7.293  -9.657  17.562  0.00  0.00    +0.105 C 
BRANCH   6  15
ATOM     15  C   UNL     1      -8.045 -11.935  17.686  0.00  0.00    +0.100 C 
BRANCH  15  17
ATOM     17  C   UNL     1      -7.407 -12.399  18.991  0.00  0.00    +0.099 C 
BRANCH  17   8
ATOM      8  N   UNL     1      -8.396 -12.394  20.064  0.00  0.00    -0.307 NA
ATOM     22  C   UNL     1      -8.851 -13.756  20.349  0.00  0.00    +0.104 C 
ATOM     23  C   UNL     1      -9.532 -11.542  19.714  0.00  0.00    +0.104 C 
ENDBRANCH  17   8
ENDBRANCH  15  17
ENDBRANCH   6  15
ENDBRANCH   9   6
BRANCH  12  14
ATOM     14  C   UNL     1      -2.334 -10.400  16.065  0.00  0.00    +0.190 C 
BRANCH  14   5
ATOM      5  O   UNL     1      -1.119 -11.084  16.326  0.00  0.00    -0.392 OA
ATOM     35  H   UNL     1      -0.445 -10.705  15.737  0.00  0.00    +0.210 HD
ENDBRANCH  14   5
ENDBRANCH  12  14
ENDBRANCH  13  10
BRANCH  13   7
ATOM      7  N   UNL     1      -5.024 -12.648  13.535  0.00  0.00    -0.291 NA
BRANCH   7  18
ATOM     18  C   UNL     1      -5.110 -14.097  13.327  0.00  0.00    +0.120 C 
BRANCH  18  20
ATOM      1  F   UNL     1      -0.281 -16.691  14.633  0.00  0.00    -0.205 F 
ATOM     20  C   UNL     1      -3.819 -14.790  13.676  0.00  0.00    -0.033 A 
ATOM     24  C   UNL     1      -3.771 -15.671  14.756  0.00  0.00    +0.008 A 
ATOM     26  C   UNL     1      -2.673 -14.551  12.919  0.00  0.00    +0.008 A 
ATOM     28  C   UNL     1      -2.576 -16.313  15.079  0.00  0.00    +0.038 A 
ATOM     30  C   UNL     1      -1.477 -15.194  13.243  0.00  0.00    +0.038 A 
ATOM     32  C   UNL     1      -1.430 -16.074  14.323  0.00  0.00    +0.123 A 
ENDBRANCH  18  20
ENDBRANCH   7  18
BRANCH   7  19
ATOM     19  C   UNL     1      -5.304 -11.941  12.282  0.00  0.00    +0.120 C 
BRANCH  19  21
ATOM      2  F   UNL     1      -0.940  -8.778  10.640  0.00  0.00    -0.205 F 
ATOM     21  C   UNL     1      -4.138 -11.096  11.843  0.00  0.00    -0.033 A 
ATOM     25  C   UNL     1      -2.945 -11.126  12.565  0.00  0.00    +0.008 A 
ATOM     27  C   UNL     1      -4.251 -10.284  10.715  0.00  0.00    +0.008 A 
ATOM     29  C   UNL     1      -1.864 -10.343  12.158  0.00  0.00    +0.038 A 
ATOM     31  C   UNL     1      -3.171  -9.501  10.309  0.00  0.00    +0.038 A 
ATOM     33  C   UNL     1      -1.977  -9.530  11.031  0.00  0.00    +0.123 A 
ENDBRANCH  19  21
ENDBRANCH   7  19
ENDBRANCH  13   7
TORSDOF 13
ENDMDL
MODEL 5
REMARK VINA RESULT:      -5.2      4.160      7.940
REMARK  Name = 28961232
REMARK  16 active torsions:
REMARK  status: ('A' for Active; 'I' for Inactive)
REMARK    1  A    between atoms: O_4  and  C_11
REMARK    2  A    between atoms: O_5  and  C_14
REMARK    3  A    between atoms: N_6  and  C_9
REMARK    4  A    between atoms: N_6  and  C_15
REMARK    5  A    between atoms: N_6  and  C_16
REMARK    6  A    between atoms: N_7  and  C_13
REMARK    7  A    between atoms: N_7  and  C_18
REMARK    8  A    between atoms: N_7  and  C_19
REMARK    9  A    between atoms: N_8  and  C_17
REMARK   10  A    between atoms: N_8  and  C_22
REMARK   11  A    between atoms: N_8  and  C_23
REMARK   12  A    between atoms: C_10  and  C_13
REMARK   13  A    between atoms: C_12  and  C_14
REMARK   14  A    between atoms: C_15  and  C_17
REMARK   15  A    between atoms: C_18  and  C_20
REMARK   16  A    between atoms: C_19  and  C_21
REMARK                            x       y       z     vdW  Elec       q    Type
REMARK                         _______ _______ _______ _____ _____    ______ ____
ROOT
ATOM     13  C   UNL     1      -7.248 -11.235  16.138  0.00  0.00    +0.118 C 
ENDROOT
BRANCH  13  10
ATOM      3  O   UNL     1      -5.877 -10.483  17.948  0.00  0.00    -0.366 OA
ATOM      9  C   UNL     1      -4.789 -10.436  15.831  0.00  0.00    +0.118 C 
ATOM     10  C   UNL     1      -6.138 -10.271  16.542  0.00  0.00    +0.152 C 
ATOM     11  C   UNL     1      -4.017 -11.352  16.769  0.00  0.00    +0.165 C 
ATOM     12  C   UNL     1      -4.490 -10.831  18.120  0.00  0.00    +0.174 C 
BRANCH  11   4
ATOM      4  O   UNL     1      -4.398 -12.711  16.600  0.00  0.00    -0.388 OA
ATOM     34  H   UNL     1      -3.717 -13.262  17.021  0.00  0.00    +0.210 HD
ENDBRANCH  11   4
BRANCH   9   6
ATOM      6  N   UNL     1      -4.843 -10.871  14.446  0.00  0.00    -0.296 NA
ATOM     16  C   UNL     1      -3.494 -11.009  13.889  0.00  0.00    +0.105 C 
BRANCH   6  15
ATOM     15  C   UNL     1      -5.628  -9.935  13.635  0.00  0.00    +0.100 C 
BRANCH  15  17
ATOM     17  C   UNL     1      -5.056  -9.855  12.223  0.00  0.00    +0.099 C 
BRANCH  17   8
ATOM      8  N   UNL     1      -5.689  -8.766  11.485  0.00  0.00    -0.307 NA
ATOM     22  C   UNL     1      -7.067  -9.115  11.137  0.00  0.00    +0.104 C 
ATOM     23  C   UNL     1      -4.924  -8.451  10.279  0.00  0.00    +0.104 C 
ENDBRANCH  17   8
ENDBRANCH  15  17
ENDBRANCH   6  15
ENDBRANCH   9   6
BRANCH  12  14
ATOM     14  C   UNL     1      -4.360 -11.806  19.277  0.00  0.00    +0.190 C 
BRANCH  14   5
ATOM      5  O   UNL     1      -2.990 -12.134  19.449  0.00  0.00    -0.392 OA
ATOM     35  H   UNL     1      -2.507 -11.742  18.702  0.00  0.00    +0.210 HD
ENDBRANCH  14   5
ENDBRANCH  12  14
ENDBRANCH  13  10
BRANCH  13   7
ATOM      7  N   UNL     1      -8.554 -10.606  16.259  0.00  0.00    -0.291 NA
BRANCH   7  18
ATOM     18  C   UNL     1      -8.974 -10.032  14.978  0.00  0.00    +0.120 C 
BRANCH  18  20
ATOM      1  F   UNL     1     -12.601  -5.776  15.673  0.00  0.00    -0.205 F 
ATOM     20  C   UNL     1      -9.943  -8.894  15.164  0.00  0.00    -0.033 A 
ATOM     24  C   UNL     1     -11.091  -8.820  14.375  0.00  0.00    +0.008 A 
ATOM     26  C   UNL     1      -9.693  -7.915  16.126  0.00  0.00    +0.008 A 
ATOM     28  C   UNL     1     -11.988  -7.767  14.547  0.00  0.00    +0.038 A 
ATOM     30  C   UNL     1     -10.592  -6.861  16.297  0.00  0.00    +0.038 A 
ATOM     32  C   UNL     1     -11.739  -6.788  15.508  0.00  0.00    +0.123 A 
ENDBRANCH  18  20
ENDBRANCH   7  18
BRANCH   7  19
ATOM     19  C   UNL     1      -9.552 -11.569  16.732  0.00  0.00    +0.120 C 
BRANCH  19  21
ATOM      2  F   UNL     1     -12.616  -9.501  20.985  0.00  0.00    -0.205 F 
ATOM     21  C   UNL     1     -10.370 -11.016  17.868  0.00  0.00    -0.033 A 
ATOM     25  C   UNL     1     -11.718 -10.716  17.674  0.00  0.00    +0.008 A 
ATOM     27  C   UNL     1      -9.781 -10.806  19.115  0.00  0.00    +0.008 A 
ATOM     29  C   UNL     1     -12.477 -10.204  18.727  0.00  0.00    +0.038 A 
ATOM     31  C   UNL     1     -10.539 -10.294  20.167  0.00  0.00    +0.038 A 
ATOM     33  C   UNL     1     -11.887  -9.992  19.974  0.00  0.00    +0.123 A 
ENDBRANCH  19  21
ENDBRANCH   7  19
ENDBRANCH  13   7
TORSDOF 13
ENDMDL
MODEL 6
REMARK VINA RESULT:      -5.2     23.722     27.332
REMARK  Name = 28961232
REMARK  16 active torsions:
REMARK  status: ('A' for Active; 'I' for Inactive)
REMARK    1  A    between atoms: O_4  and  C_11
REMARK    2  A    between atoms: O_5  and  C_14
REMARK    3  A    between atoms: N_6  and  C_9
REMARK    4  A    between atoms: N_6  and  C_15
REMARK    5  A    between atoms: N_6  and  C_16
REMARK    6  A    between atoms: N_7  and  C_13
REMARK    7  A    between atoms: N_7  and  C_18
REMARK    8  A    between atoms: N_7  and  C_19
REMARK    9  A    between atoms: N_8  and  C_17
REMARK   10  A    between atoms: N_8  and  C_22
REMARK   11  A    between atoms: N_8  and  C_23
REMARK   12  A    between atoms: C_10  and  C_13
REMARK   13  A    between atoms: C_12  and  C_14
REMARK   14  A    between atoms: C_15  and  C_17
REMARK   15  A    between atoms: C_18  and  C_20
REMARK   16  A    between atoms: C_19  and  C_21
REMARK                            x       y       z     vdW  Elec       q    Type
REMARK                         _______ _______ _______ _____ _____    ______ ____
ROOT
ATOM     13  C   UNL     1      10.925   5.449   4.744  0.00  0.00    +0.118 C 
ENDROOT
BRANCH  13  10
ATOM      3  O   UNL     1       9.300   5.514   6.498  0.00  0.00    -0.366 OA
ATOM      9  C   UNL     1      10.728   7.417   6.437  0.00  0.00    +0.118 C 
ATOM     10  C   UNL     1      10.028   6.358   5.577  0.00  0.00    +0.152 C 
ATOM     11  C   UNL     1      10.880   6.722   7.781  0.00  0.00    +0.165 C 
ATOM     12  C   UNL     1       9.570   5.947   7.845  0.00  0.00    +0.174 C 
BRANCH  11   4
ATOM      4  O   UNL     1      11.986   5.829   7.785  0.00  0.00    -0.388 OA
ATOM     34  H   UNL     1      12.633   6.160   7.141  0.00  0.00    +0.210 HD
ENDBRANCH  11   4
BRANCH   9   6
ATOM      6  N   UNL     1      11.951   7.981   5.890  0.00  0.00    -0.296 NA
ATOM     16  C   UNL     1      12.874   8.363   6.963  0.00  0.00    +0.105 C 
BRANCH   6  15
ATOM     15  C   UNL     1      11.657   9.142   5.044  0.00  0.00    +0.100 C 
BRANCH  15  17
ATOM     17  C   UNL     1      11.347  10.359   5.910  0.00  0.00    +0.099 C 
BRANCH  17   8
ATOM      8  N   UNL     1      10.152  11.036   5.417  0.00  0.00    -0.307 NA
ATOM     22  C   UNL     1       9.077  10.967   6.407  0.00  0.00    +0.104 C 
ATOM     23  C   UNL     1       9.714  10.449   4.150  0.00  0.00    +0.104 C 
ENDBRANCH  17   8
ENDBRANCH  15  17
ENDBRANCH   6  15
ENDBRANCH   9   6
BRANCH  12  14
ATOM     14  C   UNL     1       9.569   4.740   8.767  0.00  0.00    +0.190 C 
BRANCH  14   5
ATOM      5  O   UNL     1      10.168   3.647   8.092  0.00  0.00    -0.392 OA
ATOM     35  H   UNL     1       9.997   2.852   8.626  0.00  0.00    +0.210 HD
ENDBRANCH  14   5
ENDBRANCH  12  14
ENDBRANCH  13  10
BRANCH  13   7
ATOM      7  N   UNL     1      10.699   5.655   3.321  0.00  0.00    -0.291 NA
BRANCH   7  18
ATOM     18  C   UNL     1      10.445   4.379   2.647  0.00  0.00    +0.120 C 
BRANCH  18  20
ATOM      1  F   UNL     1      13.929   3.579  -1.709  0.00  0.00    -0.205 F 
ATOM     20  C   UNL     1      11.376   4.165   1.483  0.00  0.00    -0.033 A 
ATOM     24  C   UNL     1      10.927   4.387   0.181  0.00  0.00    +0.008 A 
ATOM     26  C   UNL     1      12.687   3.745   1.707  0.00  0.00    +0.008 A 
ATOM     28  C   UNL     1      11.789   4.189  -0.897  0.00  0.00    +0.038 A 
ATOM     30  C   UNL     1      13.550   3.548   0.627  0.00  0.00    +0.038 A 
ATOM     32  C   UNL     1      13.100   3.769  -0.673  0.00  0.00    +0.123 A 
ENDBRANCH  18  20
ENDBRANCH   7  18
BRANCH   7  19
ATOM     19  C   UNL     1       9.579   6.574   3.102  0.00  0.00    +0.120 C 
BRANCH  19  21
ATOM      2  F   UNL     1      10.661  10.251  -1.028  0.00  0.00    -0.205 F 
ATOM     21  C   UNL     1       9.867   7.556   1.999  0.00  0.00    -0.033 A 
ATOM     25  C   UNL     1      11.186   7.817   1.625  0.00  0.00    +0.008 A 
ATOM     27  C   UNL     1       8.817   8.205   1.349  0.00  0.00    +0.008 A 
ATOM     29  C   UNL     1      11.454   8.727   0.603  0.00  0.00    +0.038 A 
ATOM     31  C   UNL     1       9.085   9.115   0.328  0.00  0.00    +0.038 A 
ATOM     33  C   UNL     1      10.403   9.377  -0.046  0.00  0.00    +0.123 A 
ENDBRANCH  19  21
ENDBRANCH   7  19
ENDBRANCH  13   7
TORSDOF 13
ENDMDL
MODEL 7
REMARK VINA RESULT:      -5.2      2.049      3.461
REMARK  Name = 28961232
REMARK  16 active torsions:
REMARK  status: ('A' for Active; 'I' for Inactive)
REMARK    1  A    between atoms: O_4  and  C_11
REMARK    2  A    between atoms: O_5  and  C_14
REMARK    3  A    between atoms: N_6  and  C_9
REMARK    4  A    between atoms: N_6  and  C_15
REMARK    5  A    between atoms: N_6  and  C_16
REMARK    6  A    between atoms: N_7  and  C_13
REMARK    7  A    between atoms: N_7  and  C_18
REMARK    8  A    between atoms: N_7  and  C_19
REMARK    9  A    between atoms: N_8  and  C_17
REMARK   10  A    between atoms: N_8  and  C_22
REMARK   11  A    between atoms: N_8  and  C_23
REMARK   12  A    between atoms: C_10  and  C_13
REMARK   13  A    between atoms: C_12  and  C_14
REMARK   14  A    between atoms: C_15  and  C_17
REMARK   15  A    between atoms: C_18  and  C_20
REMARK   16  A    between atoms: C_19  and  C_21
REMARK                            x       y       z     vdW  Elec       q    Type
REMARK                         _______ _______ _______ _____ _____    ______ ____
ROOT
ATOM     13  C   UNL     1      -3.595 -13.167  13.726  0.00  0.00    +0.118 C 
ENDROOT
BRANCH  13  10
ATOM      3  O   UNL     1      -1.553 -14.406  13.850  0.00  0.00    -0.366 OA
ATOM      9  C   UNL     1      -2.802 -14.802  11.863  0.00  0.00    +0.118 C 
ATOM     10  C   UNL     1      -2.441 -13.749  12.917  0.00  0.00    +0.152 C 
ATOM     11  C   UNL     1      -2.630 -16.114  12.614  0.00  0.00    +0.165 C 
ATOM     12  C   UNL     1      -1.413 -15.788  13.471  0.00  0.00    +0.174 C 
BRANCH  11   4
ATOM      4  O   UNL     1      -3.755 -16.393  13.438  0.00  0.00    -0.388 OA
ATOM     34  H   UNL     1      -3.575 -16.020  14.317  0.00  0.00    +0.210 HD
ENDBRANCH  11   4
BRANCH   9   6
ATOM      6  N   UNL     1      -4.082 -14.633  11.198  0.00  0.00    -0.296 NA
ATOM     16  C   UNL     1      -4.483 -15.866  10.514  0.00  0.00    +0.105 C 
BRANCH   6  15
ATOM     15  C   UNL     1      -4.031 -13.523  10.241  0.00  0.00    +0.100 C 
BRANCH  15  17
ATOM     17  C   UNL     1      -5.441 -13.034   9.926  0.00  0.00    +0.099 C 
BRANCH  17   8
ATOM      8  N   UNL     1      -5.386 -11.894   9.016  0.00  0.00    -0.307 NA
ATOM     22  C   UNL     1      -6.722 -11.575   8.512  0.00  0.00    +0.104 C 
ATOM     23  C   UNL     1      -4.475 -12.165   7.905  0.00  0.00    +0.104 C 
ENDBRANCH  17   8
ENDBRANCH  15  17
ENDBRANCH   6  15
ENDBRANCH   9   6
BRANCH  12  14
ATOM     14  C   UNL     1      -1.248 -16.635  14.720  0.00  0.00    +0.190 C 
BRANCH  14   5
ATOM      5  O   UNL     1      -2.199 -16.217  15.687  0.00  0.00    -0.392 OA
ATOM     35  H   UNL     1      -2.443 -17.002  16.206  0.00  0.00    +0.210 HD
ENDBRANCH  14   5
ENDBRANCH  12  14
ENDBRANCH  13  10
BRANCH  13   7
ATOM      7  N   UNL     1      -3.489 -11.719  13.818  0.00  0.00    -0.291 NA
BRANCH   7  18
ATOM     18  C   UNL     1      -2.933 -11.321  15.114  0.00  0.00    +0.120 C 
BRANCH  18  20
ATOM      1  F   UNL     1      -6.974 -10.005  18.814  0.00  0.00    -0.205 F 
ATOM     20  C   UNL     1      -4.013 -10.969  16.102  0.00  0.00    -0.033 A 
ATOM     24  C   UNL     1      -3.910 -11.393  17.427  0.00  0.00    +0.008 A 
ATOM     26  C   UNL     1      -5.116 -10.220  15.693  0.00  0.00    +0.008 A 
ATOM     28  C   UNL     1      -4.910 -11.067  18.343  0.00  0.00    +0.038 A 
ATOM     30  C   UNL     1      -6.116  -9.894  16.610  0.00  0.00    +0.038 A 
ATOM     32  C   UNL     1      -6.013 -10.318  17.934  0.00  0.00    +0.123 A 
ENDBRANCH  18  20
ENDBRANCH   7  18
BRANCH   7  19
ATOM     19  C   UNL     1      -2.663 -11.190  12.730  0.00  0.00    +0.120 C 
BRANCH  19  21
ATOM      2  F   UNL     1      -5.583  -7.743   9.362  0.00  0.00    -0.205 F 
ATOM     21  C   UNL     1      -3.443 -10.269  11.830  0.00  0.00    -0.033 A 
ATOM     25  C   UNL     1      -2.845  -9.741  10.686  0.00  0.00    +0.008 A 
ATOM     27  C   UNL     1      -4.764  -9.944  12.140  0.00  0.00    +0.008 A 
ATOM     29  C   UNL     1      -3.568  -8.888   9.852  0.00  0.00    +0.038 A 
ATOM     31  C   UNL     1      -5.487  -9.091  11.306  0.00  0.00    +0.038 A 
ATOM     33  C   UNL     1      -4.889  -8.562  10.162  0.00  0.00    +0.123 A 
ENDBRANCH  19  21
ENDBRANCH   7  19
ENDBRANCH  13   7
TORSDOF 13
ENDMDL
MODEL 8
REMARK VINA RESULT:      -5.0     22.391     25.227
REMARK  Name = 28961232
REMARK  16 active torsions:
REMARK  status: ('A' for Active; 'I' for Inactive)
REMARK    1  A    between atoms: O_4  and  C_11
REMARK    2  A    between atoms: O_5  and  C_14
REMARK    3  A    between atoms: N_6  and  C_9
REMARK    4  A    between atoms: N_6  and  C_15
REMARK    5  A    between atoms: N_6  and  C_16
REMARK    6  A    between atoms: N_7  and  C_13
REMARK    7  A    between atoms: N_7  and  C_18
REMARK    8  A    between atoms: N_7  and  C_19
REMARK    9  A    between atoms: N_8  and  C_17
REMARK   10  A    between atoms: N_8  and  C_22
REMARK   11  A    between atoms: N_8  and  C_23
REMARK   12  A    between atoms: C_10  and  C_13
REMARK   13  A    between atoms: C_12  and  C_14
REMARK   14  A    between atoms: C_15  and  C_17
REMARK   15  A    between atoms: C_18  and  C_20
REMARK   16  A    between atoms: C_19  and  C_21
REMARK                            x       y       z     vdW  Elec       q    Type
REMARK                         _______ _______ _______ _____ _____    ______ ____
ROOT
ATOM     13  C   UNL     1       7.857  -5.303  35.229  0.00  0.00    +0.118 C 
ENDROOT
BRANCH  13  10
ATOM      3  O   UNL     1       9.610  -4.580  36.686  0.00  0.00    -0.366 OA
ATOM      9  C   UNL     1       7.663  -5.341  37.824  0.00  0.00    +0.118 C 
ATOM     10  C   UNL     1       8.532  -5.537  36.576  0.00  0.00    +0.152 C 
ATOM     11  C   UNL     1       7.929  -3.892  38.204  0.00  0.00    +0.165 C 
ATOM     12  C   UNL     1       9.412  -3.783  37.869  0.00  0.00    +0.174 C 
BRANCH  11   4
ATOM      4  O   UNL     1       7.172  -2.996  37.401  0.00  0.00    -0.388 OA
ATOM     34  H   UNL     1       7.189  -2.127  37.836  0.00  0.00    +0.210 HD
ENDBRANCH  11   4
BRANCH   9   6
ATOM      6  N   UNL     1       6.261  -5.699  37.693  0.00  0.00    -0.296 NA
ATOM     16  C   UNL     1       5.451  -5.018  38.707  0.00  0.00    +0.105 C 
BRANCH   6  15
ATOM     15  C   UNL     1       6.081  -7.150  37.799  0.00  0.00    +0.100 C 
BRANCH  15  17
ATOM     17  C   UNL     1       4.597  -7.490  37.891  0.00  0.00    +0.099 C 
BRANCH  17   8
ATOM      8  N   UNL     1       4.287  -8.627  37.029  0.00  0.00    -0.307 NA
ATOM     22  C   UNL     1       3.101  -9.333  37.516  0.00  0.00    +0.104 C 
ATOM     23  C   UNL     1       5.427  -9.541  36.953  0.00  0.00    +0.104 C 
ENDBRANCH  17   8
ENDBRANCH  15  17
ENDBRANCH   6  15
ENDBRANCH   9   6
BRANCH  12  14
ATOM     14  C   UNL     1       9.922  -2.376  37.615  0.00  0.00    +0.190 C 
BRANCH  14   5
ATOM      5  O   UNL     1       9.414  -1.515  38.621  0.00  0.00    -0.392 OA
ATOM     35  H   UNL     1      10.176  -1.188  39.129  0.00  0.00    +0.210 HD
ENDBRANCH  14   5
ENDBRANCH  12  14
ENDBRANCH  13  10
BRANCH  13   7
ATOM      7  N   UNL     1       8.137  -6.396  34.309  0.00  0.00    -0.291 NA
BRANCH   7  18
ATOM     18  C   UNL     1       9.470  -6.953  34.556  0.00  0.00    +0.120 C 
BRANCH  18  20
ATOM      1  F   UNL     1      12.972  -5.998  30.246  0.00  0.00    -0.205 F 
ATOM     20  C   UNL     1      10.406  -6.698  33.404  0.00  0.00    -0.033 A 
ATOM     24  C   UNL     1      11.034  -5.459  33.278  0.00  0.00    +0.008 A 
ATOM     26  C   UNL     1      10.644  -7.700  32.464  0.00  0.00    +0.008 A 
ATOM     28  C   UNL     1      11.901  -5.223  32.211  0.00  0.00    +0.038 A 
ATOM     30  C   UNL     1      11.511  -7.463  31.397  0.00  0.00    +0.038 A 
ATOM     32  C   UNL     1      12.139  -6.225  31.271  0.00  0.00    +0.123 A 
ENDBRANCH  18  20
ENDBRANCH   7  18
BRANCH   7  19
ATOM     19  C   UNL     1       7.121  -7.445  34.427  0.00  0.00    +0.120 C 
BRANCH  19  21
ATOM      2  F   UNL     1       6.796 -10.582  29.757  0.00  0.00    -0.205 F 
ATOM     21  C   UNL     1       7.034  -8.283  33.179  0.00  0.00    -0.033 A 
ATOM     25  C   UNL     1       7.374  -9.635  33.222  0.00  0.00    +0.008 A 
ATOM     27  C   UNL     1       6.613  -7.708  31.980  0.00  0.00    +0.008 A 
ATOM     29  C   UNL     1       7.293 -10.412  32.066  0.00  0.00    +0.038 A 
ATOM     31  C   UNL     1       6.533  -8.484  30.824  0.00  0.00    +0.038 A 
ATOM     33  C   UNL     1       6.873  -9.836  30.867  0.00  0.00    +0.123 A 
ENDBRANCH  19  21
ENDBRANCH   7  19
ENDBRANCH  13   7
TORSDOF 13
ENDMDL
MODEL 9
REMARK VINA RESULT:      -5.0     23.701     27.342
REMARK  Name = 28961232
REMARK  16 active torsions:
REMARK  status: ('A' for Active; 'I' for Inactive)
REMARK    1  A    between atoms: O_4  and  C_11
REMARK    2  A    between atoms: O_5  and  C_14
REMARK    3  A    between atoms: N_6  and  C_9
REMARK    4  A    between atoms: N_6  and  C_15
REMARK    5  A    between atoms: N_6  and  C_16
REMARK    6  A    between atoms: N_7  and  C_13
REMARK    7  A    between atoms: N_7  and  C_18
REMARK    8  A    between atoms: N_7  and  C_19
REMARK    9  A    between atoms: N_8  and  C_17
REMARK   10  A    between atoms: N_8  and  C_22
REMARK   11  A    between atoms: N_8  and  C_23
REMARK   12  A    between atoms: C_10  and  C_13
REMARK   13  A    between atoms: C_12  and  C_14
REMARK   14  A    between atoms: C_15  and  C_17
REMARK   15  A    between atoms: C_18  and  C_20
REMARK   16  A    between atoms: C_19  and  C_21
REMARK                            x       y       z     vdW  Elec       q    Type
REMARK                         _______ _______ _______ _____ _____    ______ ____
ROOT
ATOM     13  C   UNL     1      10.700   7.350   3.438  0.00  0.00    +0.118 C 
ENDROOT
BRANCH  13  10
ATOM      3  O   UNL     1      11.242   5.059   3.014  0.00  0.00    -0.366 OA
ATOM      9  C   UNL     1      13.079   6.549   2.749  0.00  0.00    +0.118 C 
ATOM     10  C   UNL     1      11.791   6.289   3.539  0.00  0.00    +0.152 C 
ATOM     11  C   UNL     1      12.825   5.830   1.433  0.00  0.00    +0.165 C 
ATOM     12  C   UNL     1      12.067   4.604   1.925  0.00  0.00    +0.174 C 
BRANCH  11   4
ATOM      4  O   UNL     1      12.007   6.604   0.566  0.00  0.00    -0.388 OA
ATOM     34  H   UNL     1      11.795   6.055  -0.207  0.00  0.00    +0.210 HD
ENDBRANCH  11   4
BRANCH   9   6
ATOM      6  N   UNL     1      13.488   7.937   2.627  0.00  0.00    -0.296 NA
ATOM     16  C   UNL     1      14.490   8.095   1.568  0.00  0.00    +0.105 C 
BRANCH   6  15
ATOM     15  C   UNL     1      14.019   8.439   3.899  0.00  0.00    +0.100 C 
BRANCH  15  17
ATOM     17  C   UNL     1      15.241   7.627   4.315  0.00  0.00    +0.099 C 
BRANCH  17   8
ATOM      8  N   UNL     1      15.405   7.674   5.765  0.00  0.00    -0.307 NA
ATOM     22  C   UNL     1      14.208   7.164   6.434  0.00  0.00    +0.104 C 
ATOM     23  C   UNL     1      15.692   9.039   6.207  0.00  0.00    +0.104 C 
ENDBRANCH  17   8
ENDBRANCH  15  17
ENDBRANCH   6  15
ENDBRANCH   9   6
BRANCH  12  14
ATOM     14  C   UNL     1      11.194   3.916   0.890  0.00  0.00    +0.190 C 
BRANCH  14   5
ATOM      5  O   UNL     1       9.910   4.518   0.901  0.00  0.00    -0.392 OA
ATOM     35  H   UNL     1       9.853   5.056   1.709  0.00  0.00    +0.210 HD
ENDBRANCH  14   5
ENDBRANCH  12  14
ENDBRANCH  13  10
BRANCH  13   7
ATOM      7  N   UNL     1      10.238   7.749   4.759  0.00  0.00    -0.291 NA
BRANCH   7  18
ATOM     18  C   UNL     1       9.966   9.189   4.799  0.00  0.00    +0.120 C 
BRANCH  18  20
ATOM      1  F   UNL     1      11.185  11.410   9.832  0.00  0.00    -0.205 F 
ATOM     20  C   UNL     1      10.291   9.783   6.144  0.00  0.00    -0.033 A 
ATOM     24  C   UNL     1      11.571   9.635   6.680  0.00  0.00    +0.008 A 
ATOM     26  C   UNL     1       9.314  10.480   6.854  0.00  0.00    +0.008 A 
ATOM     28  C   UNL     1      11.872  10.185   7.925  0.00  0.00    +0.038 A 
ATOM     30  C   UNL     1       9.617  11.030   8.100  0.00  0.00    +0.038 A 
ATOM     32  C   UNL     1      10.895  10.882   8.635  0.00  0.00    +0.123 A 
ENDBRANCH  18  20
ENDBRANCH   7  18
BRANCH   7  19
ATOM     19  C   UNL     1       9.039   6.997   5.138  0.00  0.00    +0.120 C 
BRANCH  19  21
ATOM      2  F   UNL     1       9.711   4.312  10.046  0.00  0.00    -0.205 F 
ATOM     21  C   UNL     1       9.219   6.280   6.449  0.00  0.00    -0.033 A 
ATOM     25  C   UNL     1       8.822   6.891   7.638  0.00  0.00    +0.008 A 
ATOM     27  C   UNL     1       9.782   5.004   6.475  0.00  0.00    +0.008 A 
ATOM     29  C   UNL     1       8.988   6.226   8.853  0.00  0.00    +0.038 A 
ATOM     31  C   UNL     1       9.948   4.339   7.689  0.00  0.00    +0.038 A 
ATOM     33  C   UNL     1       9.552   4.951   8.879  0.00  0.00    +0.123 A 
ENDBRANCH  19  21
ENDBRANCH   7  19
ENDBRANCH  13   7
TORSDOF 13
ENDMDL
MODEL 10
REMARK VINA RESULT:      -5.0      4.799      8.281
REMARK  Name = 28961232
REMARK  16 active torsions:
REMARK  status: ('A' for Active; 'I' for Inactive)
REMARK    1  A    between atoms: O_4  and  C_11
REMARK    2  A    between atoms: O_5  and  C_14
REMARK    3  A    between atoms: N_6  and  C_9
REMARK    4  A    between atoms: N_6  and  C_15
REMARK    5  A    between atoms: N_6  and  C_16
REMARK    6  A    between atoms: N_7  and  C_13
REMARK    7  A    between atoms: N_7  and  C_18
REMARK    8  A    between atoms: N_7  and  C_19
REMARK    9  A    between atoms: N_8  and  C_17
REMARK   10  A    between atoms: N_8  and  C_22
REMARK   11  A    between atoms: N_8  and  C_23
REMARK   12  A    between atoms: C_10  and  C_13
REMARK   13  A    between atoms: C_12  and  C_14
REMARK   14  A    between atoms: C_15  and  C_17
REMARK   15  A    between atoms: C_18  and  C_20
REMARK   16  A    between atoms: C_19  and  C_21
REMARK                            x       y       z     vdW  Elec       q    Type
REMARK                         _______ _______ _______ _____ _____    ______ ____
ROOT
ATOM     13  C   UNL     1      -9.004 -10.173  15.975  0.00  0.00    +0.118 C 
ENDROOT
BRANCH  13  10
ATOM      3  O   UNL     1      -9.514  -7.841  16.128  0.00  0.00    -0.366 OA
ATOM      9  C   UNL     1     -10.464  -9.152  17.873  0.00  0.00    +0.118 C 
ATOM     10  C   UNL     1      -9.260  -9.015  16.933  0.00  0.00    +0.152 C 
ATOM     11  C   UNL     1     -11.579  -8.459  17.105  0.00  0.00    +0.165 C 
ATOM     12  C   UNL     1     -10.808  -7.310  16.468  0.00  0.00    +0.174 C 
BRANCH  11   4
ATOM      4  O   UNL     1     -12.126  -9.306  16.103  0.00  0.00    -0.388 OA
ATOM     34  H   UNL     1     -12.696  -9.956  16.546  0.00  0.00    +0.210 HD
ENDBRANCH  11   4
BRANCH   9   6
ATOM      6  N   UNL     1     -10.770 -10.496  18.331  0.00  0.00    -0.296 NA
ATOM     16  C   UNL     1     -12.138 -10.571  18.853  0.00  0.00    +0.105 C 
BRANCH   6  15
ATOM     15  C   UNL     1      -9.818 -10.927  19.360  0.00  0.00    +0.100 C 
BRANCH  15  17
ATOM     17  C   UNL     1     -10.499 -11.870  20.346  0.00  0.00    +0.099 C 
BRANCH  17   8
ATOM      8  N   UNL     1     -10.044 -13.240  20.127  0.00  0.00    -0.307 NA
ATOM     22  C   UNL     1     -10.559 -14.124  21.173  0.00  0.00    +0.104 C 
ATOM     23  C   UNL     1      -8.583 -13.296  20.088  0.00  0.00    +0.104 C 
ENDBRANCH  17   8
ENDBRANCH  15  17
ENDBRANCH   6  15
ENDBRANCH   9   6
BRANCH  12  14
ATOM     14  C   UNL     1     -11.443  -6.707  15.227  0.00  0.00    +0.190 C 
BRANCH  14   5
ATOM      5  O   UNL     1     -10.881  -5.423  15.002  0.00  0.00    -0.392 OA
ATOM     35  H   UNL     1     -10.652  -5.055  15.873  0.00  0.00    +0.210 HD
ENDBRANCH  14   5
ENDBRANCH  12  14
ENDBRANCH  13  10
BRANCH  13   7
ATOM      7  N   UNL     1      -7.584 -10.307  15.687  0.00  0.00    -0.291 NA
BRANCH   7  18
ATOM     18  C   UNL     1      -7.302  -9.955  14.293  0.00  0.00    +0.120 C 
BRANCH  18  20
ATOM      1  F   UNL     1      -2.833 -12.742  12.290  0.00  0.00    -0.205 F 
ATOM     20  C   UNL     1      -6.108 -10.699  13.757  0.00  0.00    -0.033 A 
ATOM     24  C   UNL     1      -6.004 -12.078  13.946  0.00  0.00    +0.008 A 
ATOM     26  C   UNL     1      -5.106 -10.011  13.073  0.00  0.00    +0.008 A 
ATOM     28  C   UNL     1      -4.898 -12.767  13.450  0.00  0.00    +0.038 A 
ATOM     30  C   UNL     1      -4.000 -10.702  12.577  0.00  0.00    +0.038 A 
ATOM     32  C   UNL     1      -3.896 -12.079  12.766  0.00  0.00    +0.123 A 
ENDBRANCH  18  20
ENDBRANCH   7  18
BRANCH   7  19
ATOM     19  C   UNL     1      -6.791  -9.470  16.590  0.00  0.00    +0.120 C 
BRANCH  19  21
ATOM      2  F   UNL     1      -3.319 -12.543  19.792  0.00  0.00    -0.205 F 
ATOM     21  C   UNL     1      -5.864 -10.291  17.446  0.00  0.00    -0.033 A 
ATOM     25  C   UNL     1      -4.610 -10.661  16.959  0.00  0.00    +0.008 A 
ATOM     27  C   UNL     1      -6.257 -10.682  18.726  0.00  0.00    +0.008 A 
ATOM     29  C   UNL     1      -3.750 -11.422  17.752  0.00  0.00    +0.038 A 
ATOM     31  C   UNL     1      -5.398 -11.443  19.518  0.00  0.00    +0.038 A 
ATOM     33  C   UNL     1      -4.145 -11.813  19.031  0.00  0.00    +0.123 A 
ENDBRANCH  19  21
ENDBRANCH   7  19
ENDBRANCH  13   7
TORSDOF 13
ENDMDL
