MODEL 1
REMARK VINA RESULT:      -7.3      0.000      0.000
REMARK  Name = 45783989
REMARK  10 active torsions:
REMARK  status: ('A' for Active; 'I' for Inactive)
REMARK    1  A    between atoms: N_5  and  C_14
REMARK    2  A    between atoms: N_8  and  C_32
REMARK    3  A    between atoms: C_9  and  C_13
REMARK    4  A    between atoms: C_10  and  C_14
REMARK    5  A    between atoms: C_12  and  C_17
REMARK    6  A    between atoms: C_13  and  C_18
REMARK    7  A    between atoms: C_13  and  C_19
REMARK    8  A    between atoms: C_16  and  C_20
REMARK    9  A    between atoms: C_17  and  C_23
REMARK   10  A    between atoms: C_26  and  C_27
REMARK                            x       y       z     vdW  Elec       q    Type
REMARK                         _______ _______ _______ _____ _____    ______ ____
ROOT
ATOM      9  C   UNL     1      13.163  10.613  21.714  0.00  0.00    +0.000 C 
ATOM     10  C   UNL     1      14.150   9.453  21.980  0.00  0.00    +0.029 C 
ATOM     11  C   UNL     1      12.234  10.270  20.540  0.00  0.00    +0.012 C 
ATOM     12  C   UNL     1      11.442   8.961  20.750  0.00  0.00    +0.024 C 
ATOM     15  C   UNL     1      13.480   8.102  21.940  0.00  0.00    -0.023 C 
ATOM     16  C   UNL     1      12.268   7.865  21.406  0.00  0.00    -0.073 C 
ATOM     20  C   UNL     1      11.656   6.494  21.496  0.00  0.00    +0.039 C 
ENDROOT
BRANCH   9  13
ATOM     13  C   UNL     1      12.360  10.965  22.974  0.00  0.00    -0.013 C 
ATOM     18  C   UNL     1      13.278  11.547  24.044  0.00  0.00    +0.007 C 
ATOM     19  C   UNL     1      11.238  11.941  22.633  0.00  0.00    +0.007 C 
ENDBRANCH   9  13
BRANCH  10  14
ATOM     14  C   UNL     1      15.319   9.465  20.991  0.00  0.00    +0.092 C 
BRANCH  14   5
ATOM      1  O   UNL     1      17.778   6.289  19.773  0.00  0.00    -0.377 OA
ATOM      5  N   UNL     1      15.895   8.129  20.856  0.00  0.00    -0.297 NA
ATOM     21  C   UNL     1      15.796   7.656  19.468  0.00  0.00    +0.112 C 
ATOM     22  C   UNL     1      17.298   8.118  21.293  0.00  0.00    +0.112 C 
ATOM     24  C   UNL     1      16.414   6.264  19.350  0.00  0.00    +0.175 C 
ATOM     25  C   UNL     1      17.881   6.718  21.131  0.00  0.00    +0.175 C 
ENDBRANCH  14   5
ENDBRANCH  10  14
BRANCH  12  17
ATOM     17  C   UNL     1      10.843   8.532  19.405  0.00  0.00    +0.105 C 
BRANCH  17  23
ATOM      2  O   UNL     1      12.591   9.519  18.017  0.00  0.00    -0.420 OA
ATOM      6  N   UNL     1      12.282   7.329  17.682  0.00  0.00    -0.112 NA
ATOM      7  N   UNL     1      13.292   7.752  16.838  0.00  0.00    -0.107 NA
ATOM     23  C   UNL     1      11.903   8.392  18.351  0.00  0.00    +0.218 A 
ATOM     26  C   UNL     1      13.438   9.036  17.067  0.00  0.00    +0.248 A 
BRANCH  26  27
ATOM     27  C   UNL     1      14.335   9.990  16.483  0.00  0.00    +0.039 A 
ATOM     28  C   UNL     1      14.726   9.856  15.152  0.00  0.00    +0.015 A 
ATOM     29  C   UNL     1      14.817  11.053  17.248  0.00  0.00    +0.015 A 
ATOM     30  C   UNL     1      15.599  10.784  14.584  0.00  0.00    +0.033 A 
ATOM     31  C   UNL     1      15.690  11.981  16.681  0.00  0.00    +0.033 A 
ATOM     32  C   UNL     1      16.081  11.846  15.349  0.00  0.00    +0.126 A 
BRANCH  32   8
ATOM      3  O   UNL     1      16.811  14.011  15.027  0.00  0.00    -0.126 OA
ATOM      4  O   UNL     1      17.885  12.384  14.017  0.00  0.00    -0.126 OA
ATOM      8  N   UNL     1      16.968  12.792  14.770  0.00  0.00    +0.056 N 
ENDBRANCH  32   8
ENDBRANCH  26  27
ENDBRANCH  17  23
ENDBRANCH  12  17
TORSDOF 7
ENDMDL
MODEL 2
REMARK VINA RESULT:      -7.0      3.666      7.450
REMARK  Name = 45783989
REMARK  10 active torsions:
REMARK  status: ('A' for Active; 'I' for Inactive)
REMARK    1  A    between atoms: N_5  and  C_14
REMARK    2  A    between atoms: N_8  and  C_32
REMARK    3  A    between atoms: C_9  and  C_13
REMARK    4  A    between atoms: C_10  and  C_14
REMARK    5  A    between atoms: C_12  and  C_17
REMARK    6  A    between atoms: C_13  and  C_18
REMARK    7  A    between atoms: C_13  and  C_19
REMARK    8  A    between atoms: C_16  and  C_20
REMARK    9  A    between atoms: C_17  and  C_23
REMARK   10  A    between atoms: C_26  and  C_27
REMARK                            x       y       z     vdW  Elec       q    Type
REMARK                         _______ _______ _______ _____ _____    ______ ____
ROOT
ATOM      9  C   UNL     1      14.305  10.570  21.158  0.00  0.00    +0.000 C 
ATOM     10  C   UNL     1      13.005  10.924  20.400  0.00  0.00    +0.029 C 
ATOM     11  C   UNL     1      14.616   9.072  21.023  0.00  0.00    +0.012 C 
ATOM     12  C   UNL     1      14.733   8.603  19.556  0.00  0.00    +0.024 C 
ATOM     15  C   UNL     1      12.934  10.276  19.040  0.00  0.00    -0.023 C 
ATOM     16  C   UNL     1      13.704   9.248  18.641  0.00  0.00    -0.073 C 
ATOM     20  C   UNL     1      13.609   8.733  17.231  0.00  0.00    +0.039 C 
ENDROOT
BRANCH   9  13
ATOM     13  C   UNL     1      15.484  11.427  20.679  0.00  0.00    -0.013 C 
ATOM     18  C   UNL     1      15.079  12.896  20.608  0.00  0.00    +0.007 C 
ATOM     19  C   UNL     1      16.686  11.241  21.601  0.00  0.00    +0.007 C 
ENDBRANCH   9  13
BRANCH  10  14
ATOM     14  C   UNL     1      11.759  10.545  21.204  0.00  0.00    +0.092 C 
BRANCH  14   5
ATOM      1  O   UNL     1      10.282  12.528  24.597  0.00  0.00    -0.377 OA
ATOM      5  N   UNL     1      11.698  11.304  22.452  0.00  0.00    -0.297 NA
ATOM     21  C   UNL     1      10.953  12.556  22.265  0.00  0.00    +0.112 C 
ATOM     22  C   UNL     1      11.081  10.505  23.520  0.00  0.00    +0.112 C 
ATOM     24  C   UNL     1      10.894  13.326  23.583  0.00  0.00    +0.175 C 
ATOM     25  C   UNL     1      11.018  11.322  24.807  0.00  0.00    +0.175 C 
ENDBRANCH  14   5
ENDBRANCH  10  14
BRANCH  12  17
ATOM     17  C   UNL     1      14.680   7.070  19.528  0.00  0.00    +0.105 C 
BRANCH  17  23
ATOM      2  O   UNL     1      16.903   6.552  20.391  0.00  0.00    -0.420 OA
ATOM      6  N   UNL     1      16.561   5.885  18.284  0.00  0.00    -0.112 NA
ATOM      7  N   UNL     1      17.849   5.530  18.639  0.00  0.00    -0.107 NA
ATOM     23  C   UNL     1      16.047   6.478  19.336  0.00  0.00    +0.218 A 
ATOM     26  C   UNL     1      18.005   5.939  19.877  0.00  0.00    +0.248 A 
BRANCH  26  27
ATOM     27  C   UNL     1      19.135   5.842  20.754  0.00  0.00    +0.039 A 
ATOM     28  C   UNL     1      20.174   4.962  20.458  0.00  0.00    +0.015 A 
ATOM     29  C   UNL     1      19.196   6.630  21.904  0.00  0.00    +0.015 A 
ATOM     30  C   UNL     1      21.274   4.867  21.310  0.00  0.00    +0.033 A 
ATOM     31  C   UNL     1      20.294   6.536  22.757  0.00  0.00    +0.033 A 
ATOM     32  C   UNL     1      21.333   5.654  22.460  0.00  0.00    +0.126 A 
BRANCH  32   8
ATOM      3  O   UNL     1      22.359   4.869  24.372  0.00  0.00    -0.126 OA
ATOM      4  O   UNL     1      23.509   6.169  23.027  0.00  0.00    -0.126 OA
ATOM      8  N   UNL     1      22.454   5.559  23.328  0.00  0.00    +0.056 N 
ENDBRANCH  32   8
ENDBRANCH  26  27
ENDBRANCH  17  23
ENDBRANCH  12  17
TORSDOF 7
ENDMDL
MODEL 3
REMARK VINA RESULT:      -6.9      3.517      7.311
REMARK  Name = 45783989
REMARK  10 active torsions:
REMARK  status: ('A' for Active; 'I' for Inactive)
REMARK    1  A    between atoms: N_5  and  C_14
REMARK    2  A    between atoms: N_8  and  C_32
REMARK    3  A    between atoms: C_9  and  C_13
REMARK    4  A    between atoms: C_10  and  C_14
REMARK    5  A    between atoms: C_12  and  C_17
REMARK    6  A    between atoms: C_13  and  C_18
REMARK    7  A    between atoms: C_13  and  C_19
REMARK    8  A    between atoms: C_16  and  C_20
REMARK    9  A    between atoms: C_17  and  C_23
REMARK   10  A    between atoms: C_26  and  C_27
REMARK                            x       y       z     vdW  Elec       q    Type
REMARK                         _______ _______ _______ _____ _____    ______ ____
ROOT
ATOM      9  C   UNL     1      13.769   9.533  18.007  0.00  0.00    +0.000 C 
ATOM     10  C   UNL     1      12.618  10.089  18.876  0.00  0.00    +0.029 C 
ATOM     11  C   UNL     1      14.737   8.704  18.864  0.00  0.00    +0.012 C 
ATOM     12  C   UNL     1      14.050   7.541  19.611  0.00  0.00    +0.024 C 
ATOM     15  C   UNL     1      12.064   9.063  19.831  0.00  0.00    -0.023 C 
ATOM     16  C   UNL     1      12.681   7.914  20.163  0.00  0.00    -0.073 C 
ATOM     20  C   UNL     1      11.999   6.918  21.059  0.00  0.00    +0.039 C 
ENDROOT
BRANCH   9  13
ATOM     13  C   UNL     1      13.232   8.713  16.826  0.00  0.00    -0.013 C 
ATOM     18  C   UNL     1      11.913   9.297  16.330  0.00  0.00    +0.007 C 
ATOM     19  C   UNL     1      14.261   8.667  15.700  0.00  0.00    +0.007 C 
ENDBRANCH   9  13
BRANCH  10  14
ATOM     14  C   UNL     1      13.053  11.328  19.666  0.00  0.00    +0.092 C 
BRANCH  14   5
ATOM      1  O   UNL     1      12.319  12.279  23.688  0.00  0.00    -0.377 OA
ATOM      5  N   UNL     1      12.622  11.230  21.059  0.00  0.00    -0.297 NA
ATOM     21  C   UNL     1      13.766  11.360  21.970  0.00  0.00    +0.112 C 
ATOM     22  C   UNL     1      11.614  12.255  21.366  0.00  0.00    +0.112 C 
ATOM     24  C   UNL     1      13.289  11.265  23.418  0.00  0.00    +0.175 C 
ATOM     25  C   UNL     1      11.188  12.141  22.827  0.00  0.00    +0.175 C 
ENDBRANCH  14   5
ENDBRANCH  10  14
BRANCH  12  17
ATOM     17  C   UNL     1      15.006   7.020  20.692  0.00  0.00    +0.105 C 
BRANCH  17  23
ATOM      2  O   UNL     1      17.400   6.566  20.829  0.00  0.00    -0.420 OA
ATOM      6  N   UNL     1      16.444   5.873  18.929  0.00  0.00    -0.112 NA
ATOM      7  N   UNL     1      17.787   5.554  18.871  0.00  0.00    -0.107 NA
ATOM     23  C   UNL     1      16.263   6.461  20.088  0.00  0.00    +0.218 A 
ATOM     26  C   UNL     1      18.306   5.977  20.001  0.00  0.00    +0.248 A 
BRANCH  26  27
ATOM     27  C   UNL     1      19.654   5.916  20.487  0.00  0.00    +0.039 A 
ATOM     28  C   UNL     1      20.384   4.734  20.372  0.00  0.00    +0.015 A 
ATOM     29  C   UNL     1      20.234   7.040  21.076  0.00  0.00    +0.015 A 
ATOM     30  C   UNL     1      21.695   4.674  20.845  0.00  0.00    +0.033 A 
ATOM     31  C   UNL     1      21.545   6.981  21.550  0.00  0.00    +0.033 A 
ATOM     32  C   UNL     1      22.274   5.798  21.434  0.00  0.00    +0.126 A 
BRANCH  32   8
ATOM      3  O   UNL     1      24.079   6.723  22.533  0.00  0.00    -0.126 OA
ATOM      4  O   UNL     1      24.284   4.700  21.706  0.00  0.00    -0.126 OA
ATOM      8  N   UNL     1      23.610   5.737  21.914  0.00  0.00    +0.056 N 
ENDBRANCH  32   8
ENDBRANCH  26  27
ENDBRANCH  17  23
ENDBRANCH  12  17
TORSDOF 7
ENDMDL
MODEL 4
REMARK VINA RESULT:      -6.9     26.907     30.037
REMARK  Name = 45783989
REMARK  10 active torsions:
REMARK  status: ('A' for Active; 'I' for Inactive)
REMARK    1  A    between atoms: N_5  and  C_14
REMARK    2  A    between atoms: N_8  and  C_32
REMARK    3  A    between atoms: C_9  and  C_13
REMARK    4  A    between atoms: C_10  and  C_14
REMARK    5  A    between atoms: C_12  and  C_17
REMARK    6  A    between atoms: C_13  and  C_18
REMARK    7  A    between atoms: C_13  and  C_19
REMARK    8  A    between atoms: C_16  and  C_20
REMARK    9  A    between atoms: C_17  and  C_23
REMARK   10  A    between atoms: C_26  and  C_27
REMARK                            x       y       z     vdW  Elec       q    Type
REMARK                         _______ _______ _______ _____ _____    ______ ____
ROOT
ATOM      9  C   UNL     1      -6.318 -10.488   9.737  0.00  0.00    +0.000 C 
ATOM     10  C   UNL     1      -5.510  -9.910   8.553  0.00  0.00    +0.029 C 
ATOM     11  C   UNL     1      -5.413 -11.334  10.644  0.00  0.00    +0.012 C 
ATOM     12  C   UNL     1      -4.192 -10.559  11.185  0.00  0.00    +0.024 C 
ATOM     15  C   UNL     1      -4.170  -9.362   8.977  0.00  0.00    -0.023 C 
ATOM     16  C   UNL     1      -3.572  -9.630  10.152  0.00  0.00    -0.073 C 
ATOM     20  C   UNL     1      -2.274  -8.961  10.511  0.00  0.00    +0.039 C 
ENDROOT
BRANCH   9  13
ATOM     13  C   UNL     1      -7.016  -9.376  10.533  0.00  0.00    -0.013 C 
ATOM     18  C   UNL     1      -7.842  -8.495   9.601  0.00  0.00    +0.007 C 
ATOM     19  C   UNL     1      -7.893  -9.977  11.628  0.00  0.00    +0.007 C 
ENDBRANCH   9  13
BRANCH  10  14
ATOM     14  C   UNL     1      -5.300 -10.952   7.449  0.00  0.00    +0.092 C 
BRANCH  14   5
ATOM      1  O   UNL     1      -7.258  -9.885   3.893  0.00  0.00    -0.377 OA
ATOM      5  N   UNL     1      -6.323 -10.820   6.414  0.00  0.00    -0.297 NA
ATOM     21  C   UNL     1      -6.668  -9.408   6.198  0.00  0.00    +0.112 C 
ATOM     22  C   UNL     1      -5.872 -11.427   5.154  0.00  0.00    +0.112 C 
ATOM     24  C   UNL     1      -7.729  -9.296   5.106  0.00  0.00    +0.175 C 
ATOM     25  C   UNL     1      -6.950 -11.266   4.086  0.00  0.00    +0.175 C 
ENDBRANCH  14   5
ENDBRANCH  10  14
BRANCH  12  17
ATOM     17  C   UNL     1      -3.188 -11.567  11.760  0.00  0.00    +0.105 C 
BRANCH  17  23
ATOM      2  O   UNL     1      -3.894 -11.364  14.088  0.00  0.00    -0.420 OA
ATOM      6  N   UNL     1      -1.731 -10.908  13.743  0.00  0.00    -0.112 NA
ATOM      7  N   UNL     1      -1.990 -10.755  15.092  0.00  0.00    -0.107 NA
ATOM     23  C   UNL     1      -2.870 -11.264  13.196  0.00  0.00    +0.218 A 
ATOM     26  C   UNL     1      -3.264 -11.031  15.248  0.00  0.00    +0.248 A 
BRANCH  26  27
ATOM     27  C   UNL     1      -4.079 -11.036  16.428  0.00  0.00    +0.039 A 
ATOM     28  C   UNL     1      -5.381 -10.540  16.378  0.00  0.00    +0.015 A 
ATOM     29  C   UNL     1      -3.568 -11.537  17.626  0.00  0.00    +0.015 A 
ATOM     30  C   UNL     1      -6.174 -10.545  17.526  0.00  0.00    +0.033 A 
ATOM     31  C   UNL     1      -4.360 -11.542  18.774  0.00  0.00    +0.033 A 
ATOM     32  C   UNL     1      -5.662 -11.045  18.723  0.00  0.00    +0.126 A 
BRANCH  32   8
ATOM      3  O   UNL     1      -5.935 -11.298  21.000  0.00  0.00    -0.126 OA
ATOM      4  O   UNL     1      -7.697 -10.811  19.784  0.00  0.00    -0.126 OA
ATOM      8  N   UNL     1      -6.470 -11.052  19.892  0.00  0.00    +0.056 N 
ENDBRANCH  32   8
ENDBRANCH  26  27
ENDBRANCH  17  23
ENDBRANCH  12  17
TORSDOF 7
ENDMDL
MODEL 5
REMARK VINA RESULT:      -6.8     26.459     30.137
REMARK  Name = 45783989
REMARK  10 active torsions:
REMARK  status: ('A' for Active; 'I' for Inactive)
REMARK    1  A    between atoms: N_5  and  C_14
REMARK    2  A    between atoms: N_8  and  C_32
REMARK    3  A    between atoms: C_9  and  C_13
REMARK    4  A    between atoms: C_10  and  C_14
REMARK    5  A    between atoms: C_12  and  C_17
REMARK    6  A    between atoms: C_13  and  C_18
REMARK    7  A    between atoms: C_13  and  C_19
REMARK    8  A    between atoms: C_16  and  C_20
REMARK    9  A    between atoms: C_17  and  C_23
REMARK   10  A    between atoms: C_26  and  C_27
REMARK                            x       y       z     vdW  Elec       q    Type
REMARK                         _______ _______ _______ _____ _____    ______ ____
ROOT
ATOM      9  C   UNL     1     -13.237   8.810  20.306  0.00  0.00    +0.000 C 
ATOM     10  C   UNL     1     -11.924   8.041  20.035  0.00  0.00    +0.029 C 
ATOM     11  C   UNL     1     -14.426   7.839  20.364  0.00  0.00    +0.012 C 
ATOM     12  C   UNL     1     -14.255   6.727  21.422  0.00  0.00    +0.024 C 
ATOM     15  C   UNL     1     -11.809   6.783  20.858  0.00  0.00    -0.023 C 
ATOM     16  C   UNL     1     -12.834   6.188  21.494  0.00  0.00    -0.073 C 
ATOM     20  C   UNL     1     -12.592   4.983  22.360  0.00  0.00    +0.039 C 
ENDROOT
BRANCH   9  13
ATOM     13  C   UNL     1     -13.141   9.648  21.588  0.00  0.00    -0.013 C 
ATOM     18  C   UNL     1     -12.032  10.688  21.460  0.00  0.00    +0.007 C 
ATOM     19  C   UNL     1     -14.479  10.317  21.887  0.00  0.00    +0.007 C 
ENDBRANCH   9  13
BRANCH  10  14
ATOM     14  C   UNL     1     -11.770   7.688  18.552  0.00  0.00    +0.092 C 
BRANCH  14   5
ATOM      1  O   UNL     1     -10.349  10.326  15.613  0.00  0.00    -0.377 OA
ATOM      5  N   UNL     1     -11.561   8.894  17.754  0.00  0.00    -0.297 NA
ATOM     21  C   UNL     1     -10.157   9.324  17.814  0.00  0.00    +0.112 C 
ATOM     22  C   UNL     1     -11.960   8.671  16.357  0.00  0.00    +0.112 C 
ATOM     24  C   UNL     1      -9.962  10.577  16.964  0.00  0.00    +0.175 C 
ATOM     25  C   UNL     1     -11.722   9.938  15.541  0.00  0.00    +0.175 C 
ENDBRANCH  14   5
ENDBRANCH  10  14
BRANCH  12  17
ATOM     17  C   UNL     1     -15.295   5.632  21.153  0.00  0.00    +0.105 C 
BRANCH  17  23
ATOM      2  O   UNL     1     -15.810   4.387  23.187  0.00  0.00    -0.420 OA
ATOM      6  N   UNL     1     -17.254   6.033  22.731  0.00  0.00    -0.112 NA
ATOM      7  N   UNL     1     -17.664   5.417  23.899  0.00  0.00    -0.107 NA
ATOM     23  C   UNL     1     -16.169   5.399  22.352  0.00  0.00    +0.218 A 
ATOM     26  C   UNL     1     -16.792   4.463  24.127  0.00  0.00    +0.248 A 
BRANCH  26  27
ATOM     27  C   UNL     1     -16.715   3.506  25.193  0.00  0.00    +0.039 A 
ATOM     28  C   UNL     1     -16.529   3.938  26.505  0.00  0.00    +0.015 A 
ATOM     29  C   UNL     1     -16.828   2.143  24.916  0.00  0.00    +0.015 A 
ATOM     30  C   UNL     1     -16.454   3.008  27.542  0.00  0.00    +0.033 A 
ATOM     31  C   UNL     1     -16.754   1.213  25.952  0.00  0.00    +0.033 A 
ATOM     32  C   UNL     1     -16.567   1.645  27.265  0.00  0.00    +0.126 A 
BRANCH  32   8
ATOM      3  O   UNL     1     -15.366   0.355  28.753  0.00  0.00    -0.126 OA
ATOM      4  O   UNL     1     -17.557   0.232  28.794  0.00  0.00    -0.126 OA
ATOM      8  N   UNL     1     -16.493   0.698  28.321  0.00  0.00    +0.056 N 
ENDBRANCH  32   8
ENDBRANCH  26  27
ENDBRANCH  17  23
ENDBRANCH  12  17
TORSDOF 7
ENDMDL
MODEL 6
REMARK VINA RESULT:      -6.7      3.251      6.763
REMARK  Name = 45783989
REMARK  10 active torsions:
REMARK  status: ('A' for Active; 'I' for Inactive)
REMARK    1  A    between atoms: N_5  and  C_14
REMARK    2  A    between atoms: N_8  and  C_32
REMARK    3  A    between atoms: C_9  and  C_13
REMARK    4  A    between atoms: C_10  and  C_14
REMARK    5  A    between atoms: C_12  and  C_17
REMARK    6  A    between atoms: C_13  and  C_18
REMARK    7  A    between atoms: C_13  and  C_19
REMARK    8  A    between atoms: C_16  and  C_20
REMARK    9  A    between atoms: C_17  and  C_23
REMARK   10  A    between atoms: C_26  and  C_27
REMARK                            x       y       z     vdW  Elec       q    Type
REMARK                         _______ _______ _______ _____ _____    ______ ____
ROOT
ATOM      9  C   UNL     1      14.364  11.219  19.533  0.00  0.00    +0.000 C 
ATOM     10  C   UNL     1      13.117  10.955  20.407  0.00  0.00    +0.029 C 
ATOM     11  C   UNL     1      14.903   9.903  18.954  0.00  0.00    +0.012 C 
ATOM     12  C   UNL     1      13.856   9.122  18.131  0.00  0.00    +0.024 C 
ATOM     15  C   UNL     1      12.158   9.981  19.770  0.00  0.00    -0.023 C 
ATOM     16  C   UNL     1      12.464   9.164  18.746  0.00  0.00    -0.073 C 
ATOM     20  C   UNL     1      11.406   8.293  18.128  0.00  0.00    +0.039 C 
ENDROOT
BRANCH   9  13
ATOM     13  C   UNL     1      14.063  12.232  18.420  0.00  0.00    -0.013 C 
ATOM     18  C   UNL     1      13.289  13.422  18.980  0.00  0.00    +0.007 C 
ATOM     19  C   UNL     1      15.357  12.693  17.756  0.00  0.00    +0.007 C 
ENDBRANCH   9  13
BRANCH  10  14
ATOM     14  C   UNL     1      13.500  10.445  21.800  0.00  0.00    +0.092 C 
BRANCH  14   5
ATOM      1  O   UNL     1      11.877  11.625  25.487  0.00  0.00    -0.377 OA
ATOM      5  N   UNL     1      12.845  11.239  22.838  0.00  0.00    -0.297 NA
ATOM     21  C   UNL     1      11.627  10.570  23.316  0.00  0.00    +0.112 C 
ATOM     22  C   UNL     1      13.759  11.485  23.962  0.00  0.00    +0.112 C 
ATOM     24  C   UNL     1      10.968  11.412  24.406  0.00  0.00    +0.175 C 
ATOM     25  C   UNL     1      13.051  12.303  25.037  0.00  0.00    +0.175 C 
ENDBRANCH  14   5
ENDBRANCH  10  14
BRANCH  12  17
ATOM     17  C   UNL     1      14.369   7.693  17.916  0.00  0.00    +0.105 C 
BRANCH  17  23
ATOM      2  O   UNL     1      16.397   7.047  19.110  0.00  0.00    -0.420 OA
ATOM      6  N   UNL     1      14.514   6.773  20.287  0.00  0.00    -0.112 NA
ATOM      7  N   UNL     1      15.574   6.372  21.078  0.00  0.00    -0.107 NA
ATOM     23  C   UNL     1      15.041   7.160  19.149  0.00  0.00    +0.218 A 
ATOM     26  C   UNL     1      16.653   6.549  20.351  0.00  0.00    +0.248 A 
BRANCH  26  27
ATOM     27  C   UNL     1      18.032   6.303  20.656  0.00  0.00    +0.039 A 
ATOM     28  C   UNL     1      18.654   7.005  21.687  0.00  0.00    +0.015 A 
ATOM     29  C   UNL     1      18.752   5.360  19.922  0.00  0.00    +0.015 A 
ATOM     30  C   UNL     1      19.996   6.767  21.985  0.00  0.00    +0.033 A 
ATOM     31  C   UNL     1      20.093   5.121  20.218  0.00  0.00    +0.033 A 
ATOM     32  C   UNL     1      20.715   5.824  21.249  0.00  0.00    +0.126 A 
BRANCH  32   8
ATOM      3  O   UNL     1      22.806   5.024  20.692  0.00  0.00    -0.126 OA
ATOM      4  O   UNL     1      22.525   5.925  22.674  0.00  0.00    -0.126 OA
ATOM      8  N   UNL     1      22.081   5.579  21.553  0.00  0.00    +0.056 N 
ENDBRANCH  32   8
ENDBRANCH  26  27
ENDBRANCH  17  23
ENDBRANCH  12  17
TORSDOF 7
ENDMDL
MODEL 7
REMARK VINA RESULT:      -6.6     29.851     31.855
REMARK  Name = 45783989
REMARK  10 active torsions:
REMARK  status: ('A' for Active; 'I' for Inactive)
REMARK    1  A    between atoms: N_5  and  C_14
REMARK    2  A    between atoms: N_8  and  C_32
REMARK    3  A    between atoms: C_9  and  C_13
REMARK    4  A    between atoms: C_10  and  C_14
REMARK    5  A    between atoms: C_12  and  C_17
REMARK    6  A    between atoms: C_13  and  C_18
REMARK    7  A    between atoms: C_13  and  C_19
REMARK    8  A    between atoms: C_16  and  C_20
REMARK    9  A    between atoms: C_17  and  C_23
REMARK   10  A    between atoms: C_26  and  C_27
REMARK                            x       y       z     vdW  Elec       q    Type
REMARK                         _______ _______ _______ _____ _____    ______ ____
ROOT
ATOM      9  C   UNL     1     -11.353   9.557  36.321  0.00  0.00    +0.000 C 
ATOM     10  C   UNL     1     -11.049  10.658  35.279  0.00  0.00    +0.029 C 
ATOM     11  C   UNL     1     -12.606   8.766  35.918  0.00  0.00    +0.012 C 
ATOM     12  C   UNL     1     -12.501   8.130  34.515  0.00  0.00    +0.024 C 
ATOM     15  C   UNL     1     -11.185  10.166  33.860  0.00  0.00    -0.023 C 
ATOM     16  C   UNL     1     -11.819   9.036  33.500  0.00  0.00    -0.073 C 
ATOM     20  C   UNL     1     -11.821   8.593  32.063  0.00  0.00    +0.039 C 
ENDROOT
BRANCH   9  13
ATOM     13  C   UNL     1     -10.149   8.627  36.520  0.00  0.00    -0.013 C 
ATOM     18  C   UNL     1      -8.875   9.442  36.723  0.00  0.00    +0.007 C 
ATOM     19  C   UNL     1     -10.388   7.693  37.703  0.00  0.00    +0.007 C 
ENDBRANCH   9  13
BRANCH  10  14
ATOM     14  C   UNL     1     -11.944  11.885  35.475  0.00  0.00    +0.092 C 
BRANCH  14   5
ATOM      1  O   UNL     1     -14.510  13.745  32.723  0.00  0.00    -0.377 OA
ATOM      5  N   UNL     1     -12.674  12.193  34.247  0.00  0.00    -0.297 NA
ATOM     21  C   UNL     1     -14.124  12.100  34.464  0.00  0.00    +0.112 C 
ATOM     22  C   UNL     1     -12.324  13.533  33.753  0.00  0.00    +0.112 C 
ATOM     24  C   UNL     1     -14.864  12.436  33.171  0.00  0.00    +0.175 C 
ATOM     25  C   UNL     1     -13.106  13.836  32.479  0.00  0.00    +0.175 C 
ENDBRANCH  14   5
ENDBRANCH  10  14
BRANCH  12  17
ATOM     17  C   UNL     1     -13.902   7.688  34.073  0.00  0.00    +0.105 C 
BRANCH  17  23
ATOM      2  O   UNL     1     -14.005   5.456  33.090  0.00  0.00    -0.420 OA
ATOM      6  N   UNL     1     -14.310   5.496  35.305  0.00  0.00    -0.112 NA
ATOM      7  N   UNL     1     -14.393   4.181  34.886  0.00  0.00    -0.107 NA
ATOM     23  C   UNL     1     -14.082   6.204  34.224  0.00  0.00    +0.218 A 
ATOM     26  C   UNL     1     -14.209   4.205  33.586  0.00  0.00    +0.248 A 
BRANCH  26  27
ATOM     27  C   UNL     1     -14.191   3.139  32.629  0.00  0.00    +0.039 A 
ATOM     28  C   UNL     1     -14.861   1.947  32.899  0.00  0.00    +0.015 A 
ATOM     29  C   UNL     1     -13.501   3.293  31.426  0.00  0.00    +0.015 A 
ATOM     30  C   UNL     1     -14.844   0.909  31.967  0.00  0.00    +0.033 A 
ATOM     31  C   UNL     1     -13.483   2.256  30.494  0.00  0.00    +0.033 A 
ATOM     32  C   UNL     1     -14.154   1.064  30.765  0.00  0.00    +0.126 A 
BRANCH  32   8
ATOM      3  O   UNL     1     -15.118  -0.133  29.045  0.00  0.00    -0.126 OA
ATOM      4  O   UNL     1     -13.143  -0.755  29.772  0.00  0.00    -0.126 OA
ATOM      8  N   UNL     1     -14.138   0.008  29.815  0.00  0.00    +0.056 N 
ENDBRANCH  32   8
ENDBRANCH  26  27
ENDBRANCH  17  23
ENDBRANCH  12  17
TORSDOF 7
ENDMDL
MODEL 8
REMARK VINA RESULT:      -6.6     29.699     31.619
REMARK  Name = 45783989
REMARK  10 active torsions:
REMARK  status: ('A' for Active; 'I' for Inactive)
REMARK    1  A    between atoms: N_5  and  C_14
REMARK    2  A    between atoms: N_8  and  C_32
REMARK    3  A    between atoms: C_9  and  C_13
REMARK    4  A    between atoms: C_10  and  C_14
REMARK    5  A    between atoms: C_12  and  C_17
REMARK    6  A    between atoms: C_13  and  C_18
REMARK    7  A    between atoms: C_13  and  C_19
REMARK    8  A    between atoms: C_16  and  C_20
REMARK    9  A    between atoms: C_17  and  C_23
REMARK   10  A    between atoms: C_26  and  C_27
REMARK                            x       y       z     vdW  Elec       q    Type
REMARK                         _______ _______ _______ _____ _____    ______ ____
ROOT
ATOM      9  C   UNL     1     -11.377   9.488  36.361  0.00  0.00    +0.000 C 
ATOM     10  C   UNL     1     -11.097  10.601  35.326  0.00  0.00    +0.029 C 
ATOM     11  C   UNL     1     -12.628   8.690  35.967  0.00  0.00    +0.012 C 
ATOM     12  C   UNL     1     -12.536   8.067  34.557  0.00  0.00    +0.024 C 
ATOM     15  C   UNL     1     -11.248  10.122  33.905  0.00  0.00    -0.023 C 
ATOM     16  C   UNL     1     -11.875   8.989  33.542  0.00  0.00    -0.073 C 
ATOM     20  C   UNL     1     -11.893   8.560  32.101  0.00  0.00    +0.039 C 
ENDROOT
BRANCH   9  13
ATOM     13  C   UNL     1     -10.162   8.567  36.536  0.00  0.00    -0.013 C 
ATOM     18  C   UNL     1      -8.891   9.392  36.718  0.00  0.00    +0.007 C 
ATOM     19  C   UNL     1     -10.372   7.628  37.720  0.00  0.00    +0.007 C 
ENDBRANCH   9  13
BRANCH  10  14
ATOM     14  C   UNL     1     -12.001  11.819  35.545  0.00  0.00    +0.092 C 
BRANCH  14   5
ATOM      1  O   UNL     1      -9.795  15.174  36.770  0.00  0.00    -0.377 OA
ATOM      5  N   UNL     1     -11.220  13.054  35.513  0.00  0.00    -0.297 NA
ATOM     21  C   UNL     1     -11.918  14.131  36.227  0.00  0.00    +0.112 C 
ATOM     22  C   UNL     1      -9.887  12.845  36.095  0.00  0.00    +0.112 C 
ATOM     24  C   UNL     1     -11.079  15.406  36.189  0.00  0.00    +0.175 C 
ATOM     25  C   UNL     1      -9.096  14.149  36.062  0.00  0.00    +0.175 C 
ENDBRANCH  14   5
ENDBRANCH  10  14
BRANCH  12  17
ATOM     17  C   UNL     1     -13.938   7.616  34.129  0.00  0.00    +0.105 C 
BRANCH  17  23
ATOM      2  O   UNL     1     -14.029   5.397  33.118  0.00  0.00    -0.420 OA
ATOM      6  N   UNL     1     -14.308   5.405  35.337  0.00  0.00    -0.112 NA
ATOM      7  N   UNL     1     -14.383   4.095  34.903  0.00  0.00    -0.107 NA
ATOM     23  C   UNL     1     -14.101   6.129  34.263  0.00  0.00    +0.218 A 
ATOM     26  C   UNL     1     -14.214   4.138  33.601  0.00  0.00    +0.248 A 
BRANCH  26  27
ATOM     27  C   UNL     1     -14.196   3.083  32.629  0.00  0.00    +0.039 A 
ATOM     28  C   UNL     1     -14.778   1.852  32.925  0.00  0.00    +0.015 A 
ATOM     29  C   UNL     1     -13.595   3.290  31.387  0.00  0.00    +0.015 A 
ATOM     30  C   UNL     1     -14.761   0.826  31.980  0.00  0.00    +0.033 A 
ATOM     31  C   UNL     1     -13.576   2.265  30.442  0.00  0.00    +0.033 A 
ATOM     32  C   UNL     1     -14.159   1.034  30.739  0.00  0.00    +0.126 A 
BRANCH  32   8
ATOM      3  O   UNL     1     -15.113  -0.126  28.987  0.00  0.00    -0.126 OA
ATOM      4  O   UNL     1     -13.159  -0.787  29.738  0.00  0.00    -0.126 OA
ATOM      8  N   UNL     1     -14.143  -0.010  29.775  0.00  0.00    +0.056 N 
ENDBRANCH  32   8
ENDBRANCH  26  27
ENDBRANCH  17  23
ENDBRANCH  12  17
TORSDOF 7
ENDMDL
MODEL 9
REMARK VINA RESULT:      -6.5     27.310     29.961
REMARK  Name = 45783989
REMARK  10 active torsions:
REMARK  status: ('A' for Active; 'I' for Inactive)
REMARK    1  A    between atoms: N_5  and  C_14
REMARK    2  A    between atoms: N_8  and  C_32
REMARK    3  A    between atoms: C_9  and  C_13
REMARK    4  A    between atoms: C_10  and  C_14
REMARK    5  A    between atoms: C_12  and  C_17
REMARK    6  A    between atoms: C_13  and  C_18
REMARK    7  A    between atoms: C_13  and  C_19
REMARK    8  A    between atoms: C_16  and  C_20
REMARK    9  A    between atoms: C_17  and  C_23
REMARK   10  A    between atoms: C_26  and  C_27
REMARK                            x       y       z     vdW  Elec       q    Type
REMARK                         _______ _______ _______ _____ _____    ______ ____
ROOT
ATOM      9  C   UNL     1      -7.465 -12.124  17.225  0.00  0.00    +0.000 C 
ATOM     10  C   UNL     1      -7.460 -12.032  18.768  0.00  0.00    +0.029 C 
ATOM     11  C   UNL     1      -6.354 -11.247  16.630  0.00  0.00    +0.012 C 
ATOM     12  C   UNL     1      -4.947 -11.599  17.161  0.00  0.00    +0.024 C 
ATOM     15  C   UNL     1      -6.070 -12.107  19.348  0.00  0.00    -0.023 C 
ATOM     16  C   UNL     1      -4.937 -11.929  18.646  0.00  0.00    -0.073 C 
ATOM     20  C   UNL     1      -3.599 -12.112  19.307  0.00  0.00    +0.039 C 
ENDROOT
BRANCH   9  13
ATOM     13  C   UNL     1      -7.338 -13.578  16.751  0.00  0.00    -0.013 C 
ATOM     18  C   UNL     1      -8.411 -14.445  17.402  0.00  0.00    +0.007 C 
ATOM     19  C   UNL     1      -7.432 -13.652  15.230  0.00  0.00    +0.007 C 
ENDBRANCH   9  13
BRANCH  10  14
ATOM     14  C   UNL     1      -8.143 -10.752  19.261  0.00  0.00    +0.092 C 
BRANCH  14   5
ATOM      1  O   UNL     1     -12.004 -12.151  20.129  0.00  0.00    -0.377 OA
ATOM      5  N   UNL     1      -9.375 -11.068  19.979  0.00  0.00    -0.297 NA
ATOM     21  C   UNL     1     -10.524 -10.384  19.371  0.00  0.00    +0.112 C 
ATOM     22  C   UNL     1      -9.608 -12.519  20.003  0.00  0.00    +0.112 C 
ATOM     24  C   UNL     1     -11.800 -10.738  20.132  0.00  0.00    +0.175 C 
ATOM     25  C   UNL     1     -10.905 -12.823  20.747  0.00  0.00    +0.175 C 
ENDBRANCH  14   5
ENDBRANCH  10  14
BRANCH  12  17
ATOM     17  C   UNL     1      -3.988 -10.458  16.796  0.00  0.00    +0.105 C 
BRANCH  17  23
ATOM      2  O   UNL     1      -3.915 -10.693  14.368  0.00  0.00    -0.420 OA
ATOM      6  N   UNL     1      -1.965 -11.100  15.387  0.00  0.00    -0.112 NA
ATOM      7  N   UNL     1      -1.780 -11.269  14.027  0.00  0.00    -0.107 NA
ATOM     23  C   UNL     1      -3.225 -10.764  15.540  0.00  0.00    +0.218 A 
ATOM     26  C   UNL     1      -2.944 -11.021  13.472  0.00  0.00    +0.248 A 
BRANCH  26  27
ATOM     27  C   UNL     1      -3.342 -11.042  12.095  0.00  0.00    +0.039 A 
ATOM     28  C   UNL     1      -3.466 -12.258  11.424  0.00  0.00    +0.015 A 
ATOM     29  C   UNL     1      -3.605  -9.846  11.426  0.00  0.00    +0.015 A 
ATOM     30  C   UNL     1      -3.853 -12.279  10.084  0.00  0.00    +0.033 A 
ATOM     31  C   UNL     1      -3.992  -9.867  10.087  0.00  0.00    +0.033 A 
ATOM     32  C   UNL     1      -4.116 -11.083   9.416  0.00  0.00    +0.126 A 
BRANCH  32   8
ATOM      3  O   UNL     1      -4.354 -12.158   7.389  0.00  0.00    -0.126 OA
ATOM      4  O   UNL     1      -5.010 -10.070   7.548  0.00  0.00    -0.126 OA
ATOM      8  N   UNL     1      -4.512 -11.105   8.052  0.00  0.00    +0.056 N 
ENDBRANCH  32   8
ENDBRANCH  26  27
ENDBRANCH  17  23
ENDBRANCH  12  17
TORSDOF 7
ENDMDL
MODEL 10
REMARK VINA RESULT:      -6.5     27.447     30.476
REMARK  Name = 45783989
REMARK  10 active torsions:
REMARK  status: ('A' for Active; 'I' for Inactive)
REMARK    1  A    between atoms: N_5  and  C_14
REMARK    2  A    between atoms: N_8  and  C_32
REMARK    3  A    between atoms: C_9  and  C_13
REMARK    4  A    between atoms: C_10  and  C_14
REMARK    5  A    between atoms: C_12  and  C_17
REMARK    6  A    between atoms: C_13  and  C_18
REMARK    7  A    between atoms: C_13  and  C_19
REMARK    8  A    between atoms: C_16  and  C_20
REMARK    9  A    between atoms: C_17  and  C_23
REMARK   10  A    between atoms: C_26  and  C_27
REMARK                            x       y       z     vdW  Elec       q    Type
REMARK                         _______ _______ _______ _____ _____    ______ ____
ROOT
ATOM      9  C   UNL     1      -5.693 -12.076   9.011  0.00  0.00    +0.000 C 
ATOM     10  C   UNL     1      -5.944 -10.884   8.059  0.00  0.00    +0.029 C 
ATOM     11  C   UNL     1      -4.413 -11.851   9.828  0.00  0.00    +0.012 C 
ATOM     12  C   UNL     1      -4.429 -10.538  10.642  0.00  0.00    +0.024 C 
ATOM     15  C   UNL     1      -5.720  -9.551   8.727  0.00  0.00    -0.023 C 
ATOM     16  C   UNL     1      -5.057  -9.378   9.885  0.00  0.00    -0.073 C 
ATOM     20  C   UNL     1      -4.966  -8.012  10.509  0.00  0.00    +0.039 C 
ENDROOT
BRANCH   9  13
ATOM     13  C   UNL     1      -6.900 -12.324   9.927  0.00  0.00    -0.013 C 
ATOM     18  C   UNL     1      -8.182 -12.410   9.105  0.00  0.00    +0.007 C 
ATOM     19  C   UNL     1      -6.695 -13.595  10.745  0.00  0.00    +0.007 C 
ENDBRANCH   9  13
BRANCH  10  14
ATOM     14  C   UNL     1      -5.071 -10.971   6.803  0.00  0.00    +0.092 C 
BRANCH  14   5
ATOM      1  O   UNL     1      -6.558 -11.406   2.901  0.00  0.00    -0.377 OA
ATOM      5  N   UNL     1      -5.856 -11.434   5.660  0.00  0.00    -0.297 NA
ATOM     21  C   UNL     1      -6.628 -10.329   5.075  0.00  0.00    +0.112 C 
ATOM     22  C   UNL     1      -4.987 -12.037   4.640  0.00  0.00    +0.112 C 
ATOM     24  C   UNL     1      -7.430 -10.835   3.878  0.00  0.00    +0.175 C 
ATOM     25  C   UNL     1      -5.826 -12.501   3.453  0.00  0.00    +0.175 C 
ENDBRANCH  14   5
ENDBRANCH  10  14
BRANCH  12  17
ATOM     17  C   UNL     1      -3.001 -10.239  11.115  0.00  0.00    +0.105 C 
BRANCH  17  23
ATOM      2  O   UNL     1      -3.875 -10.379  13.390  0.00  0.00    -0.420 OA
ATOM      6  N   UNL     1      -1.769 -11.099  13.172  0.00  0.00    -0.112 NA
ATOM      7  N   UNL     1      -2.131 -11.234  14.499  0.00  0.00    -0.107 NA
ATOM     23  C   UNL     1      -2.817 -10.597  12.562  0.00  0.00    +0.218 A 
ATOM     26  C   UNL     1      -3.369 -10.802  14.580  0.00  0.00    +0.248 A 
BRANCH  26  27
ATOM     27  C   UNL     1      -4.251 -10.708  15.707  0.00  0.00    +0.039 A 
ATOM     28  C   UNL     1      -5.517 -10.146  15.556  0.00  0.00    +0.015 A 
ATOM     29  C   UNL     1      -3.841 -11.180  16.954  0.00  0.00    +0.015 A 
ATOM     30  C   UNL     1      -6.376 -10.055  16.651  0.00  0.00    +0.033 A 
ATOM     31  C   UNL     1      -4.698 -11.089  18.050  0.00  0.00    +0.033 A 
ATOM     32  C   UNL     1      -5.966 -10.526  17.898  0.00  0.00    +0.126 A 
BRANCH  32   8
ATOM      3  O   UNL     1      -6.351 -10.308  20.163  0.00  0.00    -0.126 OA
ATOM      4  O   UNL     1      -8.079 -10.483  18.820  0.00  0.00    -0.126 OA
ATOM      8  N   UNL     1      -6.840 -10.435  19.014  0.00  0.00    +0.056 N 
ENDBRANCH  32   8
ENDBRANCH  26  27
ENDBRANCH  17  23
ENDBRANCH  12  17
TORSDOF 7
ENDMDL
