MODEL 1
REMARK VINA RESULT:      -7.0      0.000      0.000
REMARK  Name = 11887598
REMARK  8 active torsions:
REMARK  status: ('A' for Active; 'I' for Inactive)
REMARK    1  A    between atoms: S_1  and  N_7
REMARK    2  A    between atoms: S_1  and  C_27
REMARK    3  A    between atoms: N_8  and  C_19
REMARK    4  A    between atoms: C_12  and  C_15
REMARK    5  A    between atoms: C_15  and  C_19
REMARK    6  A    between atoms: C_19  and  C_25
REMARK    7  A    between atoms: C_20  and  C_23
REMARK    8  A    between atoms: C_26  and  C_28
REMARK                            x       y       z     vdW  Elec       q    Type
REMARK                         _______ _______ _______ _____ _____    ______ ____
ROOT
ATOM      6  O   UNL     1      13.721  13.566  21.962  0.00  0.00    -0.270 OA
ATOM      7  N   UNL     1      12.969   8.735  20.629  0.00  0.00    -0.162 NA
ATOM      9  N   UNL     1      12.821  11.430  21.659  0.00  0.00    -0.294 N 
ATOM     20  C   UNL     1      14.041   9.719  20.310  0.00  0.00    +0.183 C 
ATOM     21  C   UNL     1      13.586  11.170  20.440  0.00  0.00    +0.138 C 
ATOM     22  C   UNL     1      11.663   9.332  21.010  0.00  0.00    +0.129 C 
ATOM     24  C   UNL     1      11.888  10.381  22.088  0.00  0.00    +0.125 C 
ATOM     26  C   UNL     1      12.951  12.668  22.296  0.00  0.00    +0.248 C 
ENDROOT
BRANCH  26  28
ATOM     11  N   UNL     1      11.734  12.709  25.840  0.00  0.00    -0.263 NA
ATOM     28  C   UNL     1      12.099  12.934  23.466  0.00  0.00    +0.055 A 
ATOM     33  C   UNL     1      10.907  13.629  23.333  0.00  0.00    +0.016 A 
ATOM     34  C   UNL     1      12.468  12.499  24.725  0.00  0.00    +0.123 A 
ATOM     36  C   UNL     1      10.123  13.866  24.457  0.00  0.00    +0.020 A 
ATOM     37  C   UNL     1      10.576  13.389  25.676  0.00  0.00    +0.111 A 
ENDBRANCH  26  28
BRANCH  20  23
ATOM      2  O   UNL     1      15.034   8.490  22.096  0.00  0.00    -0.274 OA
ATOM      8  N   UNL     1      16.216  10.256  21.146  0.00  0.00    -0.303 N 
ATOM     23  C   UNL     1      15.135   9.402  21.279  0.00  0.00    +0.234 C 
ATOM     38  H   UNL     1      16.156  11.030  20.492  0.00  0.00    +0.149 HD
BRANCH   8  19
ATOM     19  C   UNL     1      17.394  10.175  21.980  0.00  0.00    +0.159 C 
BRANCH  19  25
ATOM      5  O   UNL     1      18.535  11.766  23.420  0.00  0.00    -0.274 OA
ATOM     10  N   UNL     1      16.732  12.494  22.198  0.00  0.00    -0.328 N 
ATOM     25  C   UNL     1      17.641  11.541  22.609  0.00  0.00    +0.231 C 
ATOM     39  H   UNL     1      16.781  13.444  22.549  0.00  0.00    +0.145 HD
ATOM     40  H   UNL     1      15.985  12.289  21.543  0.00  0.00    +0.145 HD
ENDBRANCH  19  25
BRANCH  19  15
ATOM     15  C   UNL     1      18.611   9.647  21.214  0.00  0.00    +0.035 C 
BRANCH  15  12
ATOM     12  C   UNL     1      18.879   8.157  21.416  0.00  0.00    -0.009 C 
ATOM     13  C   UNL     1      18.101   7.322  20.389  0.00  0.00    +0.003 C 
ATOM     14  C   UNL     1      20.382   7.860  21.336  0.00  0.00    +0.003 C 
ATOM     16  C   UNL     1      18.393   5.830  20.538  0.00  0.00    +0.000 C 
ATOM     17  C   UNL     1      20.671   6.367  21.482  0.00  0.00    +0.000 C 
ATOM     18  C   UNL     1      19.889   5.540  20.465  0.00  0.00    +0.000 C 
ENDBRANCH  15  12
ENDBRANCH  19  15
ENDBRANCH   8  19
ENDBRANCH  20  23
BRANCH   7   1
ATOM      1  S   UNL     1      12.902   7.327  19.661  0.00  0.00    +0.062 S 
ATOM      3  O   UNL     1      11.668   6.623  19.935  0.00  0.00    -0.153 OA
ATOM      4  O   UNL     1      14.179   6.647  19.731  0.00  0.00    -0.153 OA
BRANCH   1  27
ATOM     27  C   UNL     1      12.763   8.058  18.060  0.00  0.00    +0.106 A 
ATOM     29  C   UNL     1      13.902   8.231  17.292  0.00  0.00    +0.028 A 
ATOM     30  C   UNL     1      11.515   8.447  17.600  0.00  0.00    +0.028 A 
ATOM     31  C   UNL     1      13.791   8.810  16.028  0.00  0.00    +0.002 A 
ATOM     32  C   UNL     1      11.404   9.026  16.335  0.00  0.00    +0.002 A 
ATOM     35  C   UNL     1      12.543   9.207  15.549  0.00  0.00    +0.000 A 
ENDBRANCH   1  27
ENDBRANCH   7   1
TORSDOF 8
ENDMDL
MODEL 2
REMARK VINA RESULT:      -6.9     26.748     30.564
REMARK  Name = 11887598
REMARK  8 active torsions:
REMARK  status: ('A' for Active; 'I' for Inactive)
REMARK    1  A    between atoms: S_1  and  N_7
REMARK    2  A    between atoms: S_1  and  C_27
REMARK    3  A    between atoms: N_8  and  C_19
REMARK    4  A    between atoms: C_12  and  C_15
REMARK    5  A    between atoms: C_15  and  C_19
REMARK    6  A    between atoms: C_19  and  C_25
REMARK    7  A    between atoms: C_20  and  C_23
REMARK    8  A    between atoms: C_26  and  C_28
REMARK                            x       y       z     vdW  Elec       q    Type
REMARK                         _______ _______ _______ _____ _____    ______ ____
ROOT
ATOM      6  O   UNL     1      -4.117  -9.186   8.883  0.00  0.00    -0.270 OA
ATOM      7  N   UNL     1      -4.768 -13.072  12.070  0.00  0.00    -0.162 NA
ATOM      9  N   UNL     1      -4.977 -11.026  10.042  0.00  0.00    -0.294 N 
ATOM     20  C   UNL     1      -3.618 -12.166  11.799  0.00  0.00    +0.183 C 
ATOM     21  C   UNL     1      -3.657 -11.540  10.408  0.00  0.00    +0.138 C 
ATOM     22  C   UNL     1      -5.737 -13.207  10.951  0.00  0.00    +0.129 C 
ATOM     24  C   UNL     1      -6.135 -11.822  10.465  0.00  0.00    +0.125 C 
ATOM     26  C   UNL     1      -5.067  -9.873   9.254  0.00  0.00    +0.248 C 
ENDROOT
BRANCH  26  28
ATOM     11  N   UNL     1      -8.164  -9.509   7.177  0.00  0.00    -0.263 NA
ATOM     28  C   UNL     1      -6.404  -9.434   8.824  0.00  0.00    +0.055 A 
ATOM     33  C   UNL     1      -7.154  -8.572   9.609  0.00  0.00    +0.016 A 
ATOM     34  C   UNL     1      -6.944  -9.872   7.630  0.00  0.00    +0.123 A 
ATOM     36  C   UNL     1      -8.415  -8.174   9.177  0.00  0.00    +0.020 A 
ATOM     37  C   UNL     1      -8.870  -8.666   7.964  0.00  0.00    +0.111 A 
ENDBRANCH  26  28
BRANCH  20  23
ATOM      2  O   UNL     1      -4.404 -10.120  12.738  0.00  0.00    -0.274 OA
ATOM      8  N   UNL     1      -2.916 -11.427  13.963  0.00  0.00    -0.303 N 
ATOM     23  C   UNL     1      -3.708 -11.124  12.868  0.00  0.00    +0.234 C 
ATOM     38  H   UNL     1      -2.315 -12.245  13.926  0.00  0.00    +0.149 HD
BRANCH   8  19
ATOM     19  C   UNL     1      -2.808 -10.570  15.121  0.00  0.00    +0.159 C 
BRANCH  19  25
ATOM      5  O   UNL     1      -0.614 -10.572  16.166  0.00  0.00    -0.274 OA
ATOM     10  N   UNL     1      -0.960  -9.209  14.350  0.00  0.00    -0.328 N 
ATOM     25  C   UNL     1      -1.354 -10.148  15.282  0.00  0.00    +0.231 C 
ATOM     39  H   UNL     1      -0.017  -8.839  14.352  0.00  0.00    +0.145 HD
ATOM     40  H   UNL     1      -1.588  -8.852  13.638  0.00  0.00    +0.145 HD
ENDBRANCH  19  25
BRANCH  19  15
ATOM     15  C   UNL     1      -3.378 -11.227  16.383  0.00  0.00    +0.035 C 
BRANCH  15  12
ATOM     12  C   UNL     1      -4.490 -10.426  17.057  0.00  0.00    -0.009 C 
ATOM     13  C   UNL     1      -5.665 -10.212  16.092  0.00  0.00    +0.003 C 
ATOM     14  C   UNL     1      -4.959 -11.123  18.341  0.00  0.00    +0.003 C 
ATOM     16  C   UNL     1      -6.814  -9.459  16.760  0.00  0.00    +0.000 C 
ATOM     17  C   UNL     1      -6.108 -10.368  19.005  0.00  0.00    +0.000 C 
ATOM     18  C   UNL     1      -7.270 -10.150  18.041  0.00  0.00    +0.000 C 
ENDBRANCH  15  12
ENDBRANCH  19  15
ENDBRANCH   8  19
ENDBRANCH  20  23
BRANCH   7   1
ATOM      1  S   UNL     1      -4.436 -14.496  12.956  0.00  0.00    +0.062 S 
ATOM      3  O   UNL     1      -3.038 -14.505  13.330  0.00  0.00    -0.153 OA
ATOM      4  O   UNL     1      -5.032 -15.625  12.273  0.00  0.00    -0.153 OA
BRANCH   1  27
ATOM     27  C   UNL     1      -5.382 -14.181  14.413  0.00  0.00    +0.106 A 
ATOM     29  C   UNL     1      -6.596 -13.524  14.304  0.00  0.00    +0.028 A 
ATOM     30  C   UNL     1      -4.894 -14.597  15.641  0.00  0.00    +0.028 A 
ATOM     31  C   UNL     1      -7.343 -13.274  15.455  0.00  0.00    +0.002 A 
ATOM     32  C   UNL     1      -5.640 -14.347  16.793  0.00  0.00    +0.002 A 
ATOM     35  C   UNL     1      -6.866 -13.686  16.700  0.00  0.00    +0.000 A 
ENDBRANCH   1  27
ENDBRANCH   7   1
TORSDOF 8
ENDMDL
MODEL 3
REMARK VINA RESULT:      -6.6     27.382     30.603
REMARK  Name = 11887598
REMARK  8 active torsions:
REMARK  status: ('A' for Active; 'I' for Inactive)
REMARK    1  A    between atoms: S_1  and  N_7
REMARK    2  A    between atoms: S_1  and  C_27
REMARK    3  A    between atoms: N_8  and  C_19
REMARK    4  A    between atoms: C_12  and  C_15
REMARK    5  A    between atoms: C_15  and  C_19
REMARK    6  A    between atoms: C_19  and  C_25
REMARK    7  A    between atoms: C_20  and  C_23
REMARK    8  A    between atoms: C_26  and  C_28
REMARK                            x       y       z     vdW  Elec       q    Type
REMARK                         _______ _______ _______ _____ _____    ______ ____
ROOT
ATOM      6  O   UNL     1      -6.904 -10.139  19.784  0.00  0.00    -0.270 OA
ATOM      7  N   UNL     1      -7.298 -10.488  14.744  0.00  0.00    -0.162 NA
ATOM      9  N   UNL     1      -7.653 -10.560  17.610  0.00  0.00    -0.294 N 
ATOM     20  C   UNL     1      -6.283  -9.867  15.640  0.00  0.00    +0.183 C 
ATOM     21  C   UNL     1      -6.836  -9.502  17.015  0.00  0.00    +0.138 C 
ATOM     22  C   UNL     1      -8.652 -10.639  15.338  0.00  0.00    +0.129 C 
ATOM     24  C   UNL     1      -8.528 -11.308  16.699  0.00  0.00    +0.125 C 
ATOM     26  C   UNL     1      -7.623 -10.749  18.996  0.00  0.00    +0.248 C 
ENDROOT
BRANCH  26  28
ATOM     11  N   UNL     1      -8.862 -14.018  20.344  0.00  0.00    -0.263 NA
ATOM     28  C   UNL     1      -8.526 -11.758  19.574  0.00  0.00    +0.055 A 
ATOM     33  C   UNL     1      -9.838 -11.438  19.890  0.00  0.00    +0.016 A 
ATOM     34  C   UNL     1      -8.087 -13.046  19.816  0.00  0.00    +0.123 A 
ATOM     36  C   UNL     1     -10.667 -12.413  20.435  0.00  0.00    +0.020 A 
ATOM     37  C   UNL     1     -10.136 -13.676  20.640  0.00  0.00    +0.111 A 
ENDBRANCH  26  28
BRANCH  20  23
ATOM      2  O   UNL     1      -5.315 -11.887  16.457  0.00  0.00    -0.274 OA
ATOM      8  N   UNL     1      -4.097 -10.570  14.972  0.00  0.00    -0.303 N 
ATOM     23  C   UNL     1      -5.201 -10.894  15.742  0.00  0.00    +0.234 C 
ATOM     38  H   UNL     1      -4.079  -9.678  14.486  0.00  0.00    +0.149 HD
BRANCH   8  19
ATOM     19  C   UNL     1      -2.907 -11.387  14.914  0.00  0.00    +0.159 C 
BRANCH  19  25
ATOM      5  O   UNL     1      -1.146  -9.712  14.903  0.00  0.00    -0.274 OA
ATOM     10  N   UNL     1      -1.411 -11.009  16.780  0.00  0.00    -0.328 N 
ATOM     25  C   UNL     1      -1.745 -10.599  15.505  0.00  0.00    +0.231 C 
ATOM     39  H   UNL     1      -0.648 -10.570  17.283  0.00  0.00    +0.145 HD
ATOM     40  H   UNL     1      -1.900 -11.757  17.258  0.00  0.00    +0.145 HD
ENDBRANCH  19  25
BRANCH  19  15
ATOM     15  C   UNL     1      -2.619 -11.893  13.497  0.00  0.00    +0.035 C 
BRANCH  15  12
ATOM     12  C   UNL     1      -2.471 -13.410  13.393  0.00  0.00    -0.009 C 
ATOM     13  C   UNL     1      -3.403 -14.115  14.389  0.00  0.00    +0.003 C 
ATOM     14  C   UNL     1      -2.744 -13.885  11.960  0.00  0.00    +0.003 C 
ATOM     16  C   UNL     1      -3.311 -15.635  14.268  0.00  0.00    +0.000 C 
ATOM     17  C   UNL     1      -2.654 -15.405  11.843  0.00  0.00    +0.000 C 
ATOM     18  C   UNL     1      -3.574 -16.102  12.840  0.00  0.00    +0.000 C 
ENDBRANCH  15  12
ENDBRANCH  19  15
ENDBRANCH   8  19
ENDBRANCH  20  23
BRANCH   7   1
ATOM      1  S   UNL     1      -7.243 -10.045  13.094  0.00  0.00    +0.062 S 
ATOM      3  O   UNL     1      -6.121  -9.155  12.879  0.00  0.00    -0.153 OA
ATOM      4  O   UNL     1      -8.576  -9.679  12.661  0.00  0.00    -0.153 OA
BRANCH   1  27
ATOM     27  C   UNL     1      -6.844 -11.603  12.367  0.00  0.00    +0.106 A 
ATOM     29  C   UNL     1      -6.964 -12.755  13.126  0.00  0.00    +0.028 A 
ATOM     30  C   UNL     1      -6.416 -11.646  11.051  0.00  0.00    +0.028 A 
ATOM     31  C   UNL     1      -6.646 -13.986  12.552  0.00  0.00    +0.002 A 
ATOM     32  C   UNL     1      -6.098 -12.877  10.476  0.00  0.00    +0.002 A 
ATOM     35  C   UNL     1      -6.214 -14.048  11.227  0.00  0.00    +0.000 A 
ENDBRANCH   1  27
ENDBRANCH   7   1
TORSDOF 8
ENDMDL
MODEL 4
REMARK VINA RESULT:      -6.5     28.204     30.931
REMARK  Name = 11887598
REMARK  8 active torsions:
REMARK  status: ('A' for Active; 'I' for Inactive)
REMARK    1  A    between atoms: S_1  and  N_7
REMARK    2  A    between atoms: S_1  and  C_27
REMARK    3  A    between atoms: N_8  and  C_19
REMARK    4  A    between atoms: C_12  and  C_15
REMARK    5  A    between atoms: C_15  and  C_19
REMARK    6  A    between atoms: C_19  and  C_25
REMARK    7  A    between atoms: C_20  and  C_23
REMARK    8  A    between atoms: C_26  and  C_28
REMARK                            x       y       z     vdW  Elec       q    Type
REMARK                         _______ _______ _______ _____ _____    ______ ____
ROOT
ATOM      6  O   UNL     1      -7.531 -12.292  11.274  0.00  0.00    -0.270 OA
ATOM      7  N   UNL     1      -9.311 -10.236  15.549  0.00  0.00    -0.162 NA
ATOM      9  N   UNL     1      -8.282 -10.801  12.910  0.00  0.00    -0.294 N 
ATOM     20  C   UNL     1      -9.121 -11.644  15.106  0.00  0.00    +0.183 C 
ATOM     21  C   UNL     1      -9.106 -11.802  13.588  0.00  0.00    +0.138 C 
ATOM     22  C   UNL     1      -9.452  -9.245  14.451  0.00  0.00    +0.129 C 
ATOM     24  C   UNL     1      -8.319  -9.439  13.455  0.00  0.00    +0.125 C 
ATOM     26  C   UNL     1      -7.580 -11.162  11.755  0.00  0.00    +0.248 C 
ENDROOT
BRANCH  26  28
ATOM     11  N   UNL     1      -6.825  -8.358   9.387  0.00  0.00    -0.263 NA
ATOM     28  C   UNL     1      -6.836 -10.111  11.044  0.00  0.00    +0.055 A 
ATOM     33  C   UNL     1      -5.500  -9.870  11.330  0.00  0.00    +0.016 A 
ATOM     34  C   UNL     1      -7.450  -9.338  10.076  0.00  0.00    +0.123 A 
ATOM     36  C   UNL     1      -4.822  -8.869  10.642  0.00  0.00    +0.020 A 
ATOM     37  C   UNL     1      -5.523  -8.149   9.688  0.00  0.00    +0.111 A 
ENDBRANCH  26  28
BRANCH  20  23
ATOM      2  O   UNL     1      -7.196 -13.035  15.313  0.00  0.00    -0.274 OA
ATOM      8  N   UNL     1      -7.431 -11.212  16.741  0.00  0.00    -0.303 N 
ATOM     23  C   UNL     1      -7.814 -12.050  15.709  0.00  0.00    +0.234 C 
ATOM     38  H   UNL     1      -8.064 -10.476  17.040  0.00  0.00    +0.149 HD
BRANCH   8  19
ATOM     19  C   UNL     1      -6.218 -11.400  17.503  0.00  0.00    +0.159 C 
BRANCH  19  25
ATOM      5  O   UNL     1      -6.655 -12.319  19.710  0.00  0.00    -0.274 OA
ATOM     10  N   UNL     1      -6.781 -10.044  19.428  0.00  0.00    -0.328 N 
ATOM     25  C   UNL     1      -6.558 -11.332  18.987  0.00  0.00    +0.231 C 
ATOM     39  H   UNL     1      -7.024  -9.861  20.395  0.00  0.00    +0.145 HD
ATOM     40  H   UNL     1      -6.718  -9.238  18.815  0.00  0.00    +0.145 HD
ENDBRANCH  19  25
BRANCH  19  15
ATOM     15  C   UNL     1      -5.120 -10.410  17.100  0.00  0.00    +0.035 C 
BRANCH  15  12
ATOM     12  C   UNL     1      -4.083 -10.984  16.137  0.00  0.00    -0.009 C 
ATOM     13  C   UNL     1      -4.422 -10.608  14.688  0.00  0.00    +0.003 C 
ATOM     14  C   UNL     1      -2.674 -10.506  16.510  0.00  0.00    +0.003 C 
ATOM     16  C   UNL     1      -3.370 -11.126  13.710  0.00  0.00    +0.000 C 
ATOM     17  C   UNL     1      -1.624 -11.024  15.529  0.00  0.00    +0.000 C 
ATOM     18  C   UNL     1      -1.969 -10.656  14.089  0.00  0.00    +0.000 C 
ENDBRANCH  15  12
ENDBRANCH  19  15
ENDBRANCH   8  19
ENDBRANCH  20  23
BRANCH   7   1
ATOM      1  S   UNL     1     -10.299  -9.986  16.922  0.00  0.00    +0.062 S 
ATOM      3  O   UNL     1      -9.462  -9.642  18.052  0.00  0.00    -0.153 OA
ATOM      4  O   UNL     1     -11.262 -11.064  17.011  0.00  0.00    -0.153 OA
BRANCH   1  27
ATOM     27  C   UNL     1     -11.160  -8.528  16.423  0.00  0.00    +0.106 A 
ATOM     29  C   UNL     1     -10.603  -7.288  16.688  0.00  0.00    +0.028 A 
ATOM     30  C   UNL     1     -12.380  -8.649  15.778  0.00  0.00    +0.028 A 
ATOM     31  C   UNL     1     -11.284  -6.136  16.295  0.00  0.00    +0.002 A 
ATOM     32  C   UNL     1     -13.061  -7.497  15.385  0.00  0.00    +0.002 A 
ATOM     35  C   UNL     1     -12.513  -6.239  15.644  0.00  0.00    +0.000 A 
ENDBRANCH   1  27
ENDBRANCH   7   1
TORSDOF 8
ENDMDL
MODEL 5
REMARK VINA RESULT:      -6.4     28.310     31.179
REMARK  Name = 11887598
REMARK  8 active torsions:
REMARK  status: ('A' for Active; 'I' for Inactive)
REMARK    1  A    between atoms: S_1  and  N_7
REMARK    2  A    between atoms: S_1  and  C_27
REMARK    3  A    between atoms: N_8  and  C_19
REMARK    4  A    between atoms: C_12  and  C_15
REMARK    5  A    between atoms: C_15  and  C_19
REMARK    6  A    between atoms: C_19  and  C_25
REMARK    7  A    between atoms: C_20  and  C_23
REMARK    8  A    between atoms: C_26  and  C_28
REMARK                            x       y       z     vdW  Elec       q    Type
REMARK                         _______ _______ _______ _____ _____    ______ ____
ROOT
ATOM      6  O   UNL     1      -6.309 -14.559  17.105  0.00  0.00    -0.270 OA
ATOM      7  N   UNL     1      -3.739 -11.478  14.010  0.00  0.00    -0.162 NA
ATOM      9  N   UNL     1      -5.291 -12.701  16.117  0.00  0.00    -0.294 N 
ATOM     20  C   UNL     1      -3.954 -12.952  14.023  0.00  0.00    +0.183 C 
ATOM     21  C   UNL     1      -4.292 -13.500  15.406  0.00  0.00    +0.138 C 
ATOM     22  C   UNL     1      -3.888 -10.810  15.329  0.00  0.00    +0.129 C 
ATOM     24  C   UNL     1      -5.201 -11.245  15.963  0.00  0.00    +0.125 C 
ATOM     26  C   UNL     1      -6.209 -13.343  16.954  0.00  0.00    +0.248 C 
ENDROOT
BRANCH  26  28
ATOM     11  N   UNL     1      -7.639 -11.334  19.775  0.00  0.00    -0.263 NA
ATOM     28  C   UNL     1      -7.140 -12.506  17.727  0.00  0.00    +0.055 A 
ATOM     33  C   UNL     1      -8.349 -12.100  17.182  0.00  0.00    +0.016 A 
ATOM     34  C   UNL     1      -6.831 -12.102  19.012  0.00  0.00    +0.123 A 
ATOM     36  C   UNL     1      -9.209 -11.308  17.937  0.00  0.00    +0.020 A 
ATOM     37  C   UNL     1      -8.811 -10.956  19.216  0.00  0.00    +0.111 A 
ENDBRANCH  26  28
BRANCH  20  23
ATOM      2  O   UNL     1      -6.252 -13.062  13.400  0.00  0.00    -0.274 OA
ATOM      8  N   UNL     1      -4.625 -13.520  11.799  0.00  0.00    -0.303 N 
ATOM     23  C   UNL     1      -5.077 -13.171  13.060  0.00  0.00    +0.234 C 
ATOM     38  H   UNL     1      -3.630 -13.664  11.654  0.00  0.00    +0.149 HD
BRANCH   8  19
ATOM     19  C   UNL     1      -5.511 -13.808  10.694  0.00  0.00    +0.159 C 
BRANCH  19  25
ATOM      5  O   UNL     1      -5.316 -16.198  10.295  0.00  0.00    -0.274 OA
ATOM     10  N   UNL     1      -7.146 -15.427  11.449  0.00  0.00    -0.328 N 
ATOM     25  C   UNL     1      -5.947 -15.265  10.785  0.00  0.00    +0.231 C 
ATOM     39  H   UNL     1      -7.552 -16.348  11.572  0.00  0.00    +0.145 HD
ATOM     40  H   UNL     1      -7.668 -14.645  11.831  0.00  0.00    +0.145 HD
ENDBRANCH  19  25
BRANCH  19  15
ATOM     15  C   UNL     1      -4.882 -13.462   9.341  0.00  0.00    +0.035 C 
BRANCH  15  12
ATOM     12  C   UNL     1      -5.336 -12.122   8.765  0.00  0.00    -0.009 C 
ATOM     13  C   UNL     1      -4.772 -11.920   7.352  0.00  0.00    +0.003 C 
ATOM     14  C   UNL     1      -6.867 -12.025   8.761  0.00  0.00    +0.003 C 
ATOM     16  C   UNL     1      -5.256 -10.610   6.733  0.00  0.00    +0.000 C 
ATOM     17  C   UNL     1      -7.348 -10.715   8.140  0.00  0.00    +0.000 C 
ATOM     18  C   UNL     1      -6.778 -10.514   6.738  0.00  0.00    +0.000 C 
ENDBRANCH  15  12
ENDBRANCH  19  15
ENDBRANCH   8  19
ENDBRANCH  20  23
BRANCH   7   1
ATOM      1  S   UNL     1      -2.488 -10.890  13.003  0.00  0.00    +0.062 S 
ATOM      3  O   UNL     1      -1.840 -12.009  12.351  0.00  0.00    -0.153 OA
ATOM      4  O   UNL     1      -1.718  -9.907  13.735  0.00  0.00    -0.153 OA
BRANCH   1  27
ATOM     27  C   UNL     1      -3.443 -10.037  11.788  0.00  0.00    +0.106 A 
ATOM     29  C   UNL     1      -4.782  -9.783  12.034  0.00  0.00    +0.028 A 
ATOM     30  C   UNL     1      -2.837  -9.638  10.608  0.00  0.00    +0.028 A 
ATOM     31  C   UNL     1      -5.537  -9.111  11.073  0.00  0.00    +0.002 A 
ATOM     32  C   UNL     1      -3.591  -8.965   9.647  0.00  0.00    +0.002 A 
ATOM     35  C   UNL     1      -4.942  -8.701   9.879  0.00  0.00    +0.000 A 
ENDBRANCH   1  27
ENDBRANCH   7   1
TORSDOF 8
ENDMDL
MODEL 6
REMARK VINA RESULT:      -6.4     28.525     30.992
REMARK  Name = 11887598
REMARK  8 active torsions:
REMARK  status: ('A' for Active; 'I' for Inactive)
REMARK    1  A    between atoms: S_1  and  N_7
REMARK    2  A    between atoms: S_1  and  C_27
REMARK    3  A    between atoms: N_8  and  C_19
REMARK    4  A    between atoms: C_12  and  C_15
REMARK    5  A    between atoms: C_15  and  C_19
REMARK    6  A    between atoms: C_19  and  C_25
REMARK    7  A    between atoms: C_20  and  C_23
REMARK    8  A    between atoms: C_26  and  C_28
REMARK                            x       y       z     vdW  Elec       q    Type
REMARK                         _______ _______ _______ _____ _____    ______ ____
ROOT
ATOM      6  O   UNL     1      -7.413  -8.117   9.214  0.00  0.00    -0.270 OA
ATOM      7  N   UNL     1      -3.968 -10.759  11.828  0.00  0.00    -0.162 NA
ATOM      9  N   UNL     1      -5.692  -9.571   9.837  0.00  0.00    -0.294 N 
ATOM     20  C   UNL     1      -4.914  -9.673  12.208  0.00  0.00    +0.183 C 
ATOM     21  C   UNL     1      -5.336  -8.800  11.030  0.00  0.00    +0.138 C 
ATOM     22  C   UNL     1      -3.605 -10.799  10.388  0.00  0.00    +0.129 C 
ATOM     24  C   UNL     1      -4.876 -10.756   9.552  0.00  0.00    +0.125 C 
ATOM     26  C   UNL     1      -6.714  -9.105   9.003  0.00  0.00    +0.248 C 
ENDROOT
BRANCH  26  28
ATOM     11  N   UNL     1      -8.181 -11.623   6.648  0.00  0.00    -0.263 NA
ATOM     28  C   UNL     1      -6.985  -9.851   7.764  0.00  0.00    +0.055 A 
ATOM     33  C   UNL     1      -6.343  -9.518   6.580  0.00  0.00    +0.016 A 
ATOM     34  C   UNL     1      -7.886 -10.899   7.750  0.00  0.00    +0.123 A 
ATOM     36  C   UNL     1      -6.620 -10.240   5.425  0.00  0.00    +0.020 A 
ATOM     37  C   UNL     1      -7.537 -11.275   5.511  0.00  0.00    +0.111 A 
ENDBRANCH  26  28
BRANCH  20  23
ATOM      2  O   UNL     1      -6.538 -11.416  12.298  0.00  0.00    -0.274 OA
ATOM      8  N   UNL     1      -6.572  -9.755  13.930  0.00  0.00    -0.303 N 
ATOM     23  C   UNL     1      -6.084 -10.391  12.801  0.00  0.00    +0.234 C 
ATOM     38  H   UNL     1      -6.170  -8.865  14.207  0.00  0.00    +0.149 HD
BRANCH   8  19
ATOM     19  C   UNL     1      -7.713 -10.235  14.676  0.00  0.00    +0.159 C 
BRANCH  19  25
ATOM      5  O   UNL     1      -9.571  -9.573  13.257  0.00  0.00    -0.274 OA
ATOM     10  N   UNL     1      -9.223  -8.420  15.212  0.00  0.00    -0.328 N 
ATOM     25  C   UNL     1      -8.931  -9.406  14.292  0.00  0.00    +0.231 C 
ATOM     39  H   UNL     1     -10.006  -7.792  15.071  0.00  0.00    +0.145 HD
ATOM     40  H   UNL     1      -8.673  -8.279  16.053  0.00  0.00    +0.145 HD
ENDBRANCH  19  25
BRANCH  19  15
ATOM     15  C   UNL     1      -7.455 -10.245  16.186  0.00  0.00    +0.035 C 
BRANCH  15  12
ATOM     12  C   UNL     1      -6.263 -11.100  16.612  0.00  0.00    -0.009 C 
ATOM     13  C   UNL     1      -5.098 -10.214  17.075  0.00  0.00    +0.003 C 
ATOM     14  C   UNL     1      -6.670 -12.087  17.713  0.00  0.00    +0.003 C 
ATOM     16  C   UNL     1      -3.912 -11.049  17.556  0.00  0.00    +0.000 C 
ATOM     17  C   UNL     1      -5.482 -12.918  18.193  0.00  0.00    +0.000 C 
ATOM     18  C   UNL     1      -4.323 -12.035  18.645  0.00  0.00    +0.000 C 
ENDBRANCH  15  12
ENDBRANCH  19  15
ENDBRANCH   8  19
ENDBRANCH  20  23
BRANCH   7   1
ATOM      1  S   UNL     1      -2.711 -11.108  12.933  0.00  0.00    +0.062 S 
ATOM      3  O   UNL     1      -2.885 -10.297  14.119  0.00  0.00    -0.153 OA
ATOM      4  O   UNL     1      -1.450 -11.125  12.221  0.00  0.00    -0.153 OA
BRANCH   1  27
ATOM     27  C   UNL     1      -3.121 -12.773  13.352  0.00  0.00    +0.106 A 
ATOM     29  C   UNL     1      -2.720 -13.801  12.516  0.00  0.00    +0.028 A 
ATOM     30  C   UNL     1      -3.837 -13.022  14.511  0.00  0.00    +0.028 A 
ATOM     31  C   UNL     1      -3.046 -15.116  12.847  0.00  0.00    +0.002 A 
ATOM     32  C   UNL     1      -4.163 -14.338  14.843  0.00  0.00    +0.002 A 
ATOM     35  C   UNL     1      -3.766 -15.386  14.010  0.00  0.00    +0.000 A 
ENDBRANCH   1  27
ENDBRANCH   7   1
TORSDOF 8
ENDMDL
MODEL 7
REMARK VINA RESULT:      -6.4     15.343     18.683
REMARK  Name = 11887598
REMARK  8 active torsions:
REMARK  status: ('A' for Active; 'I' for Inactive)
REMARK    1  A    between atoms: S_1  and  N_7
REMARK    2  A    between atoms: S_1  and  C_27
REMARK    3  A    between atoms: N_8  and  C_19
REMARK    4  A    between atoms: C_12  and  C_15
REMARK    5  A    between atoms: C_15  and  C_19
REMARK    6  A    between atoms: C_19  and  C_25
REMARK    7  A    between atoms: C_20  and  C_23
REMARK    8  A    between atoms: C_26  and  C_28
REMARK                            x       y       z     vdW  Elec       q    Type
REMARK                         _______ _______ _______ _____ _____    ______ ____
ROOT
ATOM      6  O   UNL     1      15.580  10.382   3.665  0.00  0.00    -0.270 OA
ATOM      7  N   UNL     1      12.403   6.870   5.468  0.00  0.00    -0.162 NA
ATOM      9  N   UNL     1      14.588   8.679   4.923  0.00  0.00    -0.294 N 
ATOM     20  C   UNL     1      12.280   7.889   4.390  0.00  0.00    +0.183 C 
ATOM     21  C   UNL     1      13.224   9.074   4.569  0.00  0.00    +0.138 C 
ATOM     22  C   UNL     1      13.410   7.182   6.516  0.00  0.00    +0.129 C 
ATOM     24  C   UNL     1      14.727   7.549   5.849  0.00  0.00    +0.125 C 
ATOM     26  C   UNL     1      15.664   9.431   4.439  0.00  0.00    +0.248 C 
ENDROOT
BRANCH  26  28
ATOM     11  N   UNL     1      18.775   9.291   6.524  0.00  0.00    -0.263 NA
ATOM     28  C   UNL     1      17.017   9.065   4.888  0.00  0.00    +0.055 A 
ATOM     33  C   UNL     1      17.797   8.187   4.149  0.00  0.00    +0.016 A 
ATOM     34  C   UNL     1      17.542   9.586   6.056  0.00  0.00    +0.123 A 
ATOM     36  C   UNL     1      19.072   7.860   4.599  0.00  0.00    +0.020 A 
ATOM     37  C   UNL     1      19.510   8.434   5.780  0.00  0.00    +0.111 A 
ENDBRANCH  26  28
BRANCH  20  23
ATOM      2  O   UNL     1      13.630   7.301   2.515  0.00  0.00    -0.274 OA
ATOM      8  N   UNL     1      11.548   6.290   2.770  0.00  0.00    -0.303 N 
ATOM     23  C   UNL     1      12.580   7.138   3.133  0.00  0.00    +0.234 C 
ATOM     38  H   UNL     1      10.688   6.300   3.311  0.00  0.00    +0.149 HD
BRANCH   8  19
ATOM     19  C   UNL     1      11.581   5.469   1.581  0.00  0.00    +0.159 C 
BRANCH  19  25
ATOM      5  O   UNL     1       9.685   4.441   0.460  0.00  0.00    -0.274 OA
ATOM     10  N   UNL     1       9.553   6.665   1.016  0.00  0.00    -0.328 N 
ATOM     25  C   UNL     1      10.186   5.440   0.969  0.00  0.00    +0.231 C 
ATOM     39  H   UNL     1       8.621   6.783   0.634  0.00  0.00    +0.145 HD
ATOM     40  H   UNL     1       9.986   7.488   1.421  0.00  0.00    +0.145 HD
ENDBRANCH  19  25
BRANCH  19  15
ATOM     15  C   UNL     1      12.135   4.068   1.859  0.00  0.00    +0.035 C 
BRANCH  15  12
ATOM     12  C   UNL     1      13.279   3.654   0.936  0.00  0.00    -0.009 C 
ATOM     13  C   UNL     1      13.166   4.365  -0.419  0.00  0.00    +0.003 C 
ATOM     14  C   UNL     1      14.636   3.941   1.592  0.00  0.00    +0.003 C 
ATOM     16  C   UNL     1      14.329   4.008  -1.343  0.00  0.00    +0.000 C 
ATOM     17  C   UNL     1      15.797   3.584   0.665  0.00  0.00    +0.000 C 
ATOM     18  C   UNL     1      15.676   4.286  -0.684  0.00  0.00    +0.000 C 
ENDBRANCH  15  12
ENDBRANCH  19  15
ENDBRANCH   8  19
ENDBRANCH  20  23
BRANCH   7   1
ATOM      1  S   UNL     1      10.955   6.139   6.008  0.00  0.00    +0.062 S 
ATOM      3  O   UNL     1      11.024   5.955   7.443  0.00  0.00    -0.153 OA
ATOM      4  O   UNL     1      10.630   5.033   5.131  0.00  0.00    -0.153 OA
BRANCH   1  27
ATOM     27  C   UNL     1       9.811   7.443   5.685  0.00  0.00    +0.106 A 
ATOM     29  C   UNL     1       9.881   8.608   6.431  0.00  0.00    +0.028 A 
ATOM     30  C   UNL     1       8.859   7.279   4.692  0.00  0.00    +0.028 A 
ATOM     31  C   UNL     1       8.976   9.637   6.177  0.00  0.00    +0.002 A 
ATOM     32  C   UNL     1       7.953   8.308   4.437  0.00  0.00    +0.002 A 
ATOM     35  C   UNL     1       8.011   9.488   5.180  0.00  0.00    +0.000 A 
ENDBRANCH   1  27
ENDBRANCH   7   1
TORSDOF 8
ENDMDL
MODEL 8
REMARK VINA RESULT:      -6.3     23.336     25.180
REMARK  Name = 11887598
REMARK  8 active torsions:
REMARK  status: ('A' for Active; 'I' for Inactive)
REMARK    1  A    between atoms: S_1  and  N_7
REMARK    2  A    between atoms: S_1  and  C_27
REMARK    3  A    between atoms: N_8  and  C_19
REMARK    4  A    between atoms: C_12  and  C_15
REMARK    5  A    between atoms: C_15  and  C_19
REMARK    6  A    between atoms: C_19  and  C_25
REMARK    7  A    between atoms: C_20  and  C_23
REMARK    8  A    between atoms: C_26  and  C_28
REMARK                            x       y       z     vdW  Elec       q    Type
REMARK                         _______ _______ _______ _____ _____    ______ ____
ROOT
ATOM      6  O   UNL     1       6.914 -11.886  36.479  0.00  0.00    -0.270 OA
ATOM      7  N   UNL     1       7.784  -7.035  37.656  0.00  0.00    -0.162 NA
ATOM      9  N   UNL     1       6.702  -9.676  37.212  0.00  0.00    -0.294 N 
ATOM     20  C   UNL     1       8.662  -8.130  37.159  0.00  0.00    +0.183 C 
ATOM     21  C   UNL     1       8.132  -9.523  37.484  0.00  0.00    +0.138 C 
ATOM     22  C   UNL     1       6.563  -7.485  38.372  0.00  0.00    +0.129 C 
ATOM     24  C   UNL     1       5.845  -8.528  37.529  0.00  0.00    +0.125 C 
ATOM     26  C   UNL     1       6.222 -10.907  36.752  0.00  0.00    +0.248 C 
ENDROOT
BRANCH  26  28
ATOM     11  N   UNL     1       2.634 -11.666  37.522  0.00  0.00    -0.263 NA
ATOM     28  C   UNL     1       4.769 -11.058  36.577  0.00  0.00    +0.055 A 
ATOM     33  C   UNL     1       4.164 -10.754  35.367  0.00  0.00    +0.016 A 
ATOM     34  C   UNL     1       3.973 -11.506  37.615  0.00  0.00    +0.123 A 
ATOM     36  C   UNL     1       2.788 -10.906  35.232  0.00  0.00    +0.020 A 
ATOM     37  C   UNL     1       2.075 -11.362  36.329  0.00  0.00    +0.111 A 
ENDBRANCH  26  28
BRANCH  20  23
ATOM      2  O   UNL     1       9.492  -8.555  34.964  0.00  0.00    -0.274 OA
ATOM      8  N   UNL     1       7.887  -6.894  35.263  0.00  0.00    -0.303 N 
ATOM     23  C   UNL     1       8.735  -7.905  35.682  0.00  0.00    +0.234 C 
ATOM     38  H   UNL     1       7.369  -6.366  35.958  0.00  0.00    +0.149 HD
BRANCH   8  19
ATOM     19  C   UNL     1       7.787  -6.467  33.886  0.00  0.00    +0.159 C 
BRANCH  19  25
ATOM      5  O   UNL     1       6.608  -4.373  33.525  0.00  0.00    -0.274 OA
ATOM     10  N   UNL     1       8.801  -4.292  34.204  0.00  0.00    -0.328 N 
ATOM     25  C   UNL     1       7.640  -4.951  33.855  0.00  0.00    +0.231 C 
ATOM     39  H   UNL     1       8.839  -3.279  34.215  0.00  0.00    +0.145 HD
ATOM     40  H   UNL     1       9.652  -4.782  34.454  0.00  0.00    +0.145 HD
ENDBRANCH  19  25
BRANCH  19  15
ATOM     15  C   UNL     1       6.661  -7.187  33.137  0.00  0.00    +0.035 C 
BRANCH  15  12
ATOM     12  C   UNL     1       7.114  -8.429  32.371  0.00  0.00    -0.009 C 
ATOM     13  C   UNL     1       6.751  -9.705  33.144  0.00  0.00    +0.003 C 
ATOM     14  C   UNL     1       6.503  -8.451  30.964  0.00  0.00    +0.003 C 
ATOM     16  C   UNL     1       7.147 -10.963  32.374  0.00  0.00    +0.000 C 
ATOM     17  C   UNL     1       6.899  -9.711  30.197  0.00  0.00    +0.000 C 
ATOM     18  C   UNL     1       6.545 -10.977  30.973  0.00  0.00    +0.000 C 
ENDBRANCH  15  12
ENDBRANCH  19  15
ENDBRANCH   8  19
ENDBRANCH  20  23
BRANCH   7   1
ATOM      1  S   UNL     1       8.561  -5.649  38.287  0.00  0.00    +0.062 S 
ATOM      3  O   UNL     1       9.471  -5.122  37.293  0.00  0.00    -0.153 OA
ATOM      4  O   UNL     1       9.014  -5.936  39.633  0.00  0.00    -0.153 OA
BRANCH   1  27
ATOM     27  C   UNL     1       7.187  -4.547  38.400  0.00  0.00    +0.106 A 
ATOM     29  C   UNL     1       6.716  -4.176  39.648  0.00  0.00    +0.028 A 
ATOM     30  C   UNL     1       6.602  -4.073  37.237  0.00  0.00    +0.028 A 
ATOM     31  C   UNL     1       5.629  -3.307  39.737  0.00  0.00    +0.002 A 
ATOM     32  C   UNL     1       5.515  -3.203  37.326  0.00  0.00    +0.002 A 
ATOM     35  C   UNL     1       5.028  -2.819  38.576  0.00  0.00    +0.000 A 
ENDBRANCH   1  27
ENDBRANCH   7   1
TORSDOF 8
ENDMDL
MODEL 9
REMARK VINA RESULT:      -6.3     14.843     18.908
REMARK  Name = 11887598
REMARK  8 active torsions:
REMARK  status: ('A' for Active; 'I' for Inactive)
REMARK    1  A    between atoms: S_1  and  N_7
REMARK    2  A    between atoms: S_1  and  C_27
REMARK    3  A    between atoms: N_8  and  C_19
REMARK    4  A    between atoms: C_12  and  C_15
REMARK    5  A    between atoms: C_15  and  C_19
REMARK    6  A    between atoms: C_19  and  C_25
REMARK    7  A    between atoms: C_20  and  C_23
REMARK    8  A    between atoms: C_26  and  C_28
REMARK                            x       y       z     vdW  Elec       q    Type
REMARK                         _______ _______ _______ _____ _____    ______ ____
ROOT
ATOM      6  O   UNL     1      10.727   3.899   0.971  0.00  0.00    -0.270 OA
ATOM      7  N   UNL     1      10.642   8.184   3.677  0.00  0.00    -0.162 NA
ATOM      9  N   UNL     1      11.243   5.976   1.913  0.00  0.00    -0.294 N 
ATOM     20  C   UNL     1       9.661   7.077   3.501  0.00  0.00    +0.183 C 
ATOM     21  C   UNL     1       9.847   6.308   2.196  0.00  0.00    +0.138 C 
ATOM     22  C   UNL     1      11.614   8.344   2.564  0.00  0.00    +0.129 C 
ATOM     24  C   UNL     1      12.244   6.994   2.254  0.00  0.00    +0.125 C 
ATOM     26  C   UNL     1      11.542   4.770   1.271  0.00  0.00    +0.248 C 
ENDROOT
BRANCH  26  28
ATOM     11  N   UNL     1      14.759   4.780  -0.651  0.00  0.00    -0.263 NA
ATOM     28  C   UNL     1      12.946   4.507   0.916  0.00  0.00    +0.055 A 
ATOM     33  C   UNL     1      13.767   3.776   1.762  0.00  0.00    +0.016 A 
ATOM     34  C   UNL     1      13.480   4.985  -0.266  0.00  0.00    +0.123 A 
ATOM     36  C   UNL     1      15.090   3.544   1.400  0.00  0.00    +0.020 A 
ATOM     37  C   UNL     1      15.533   4.062   0.194  0.00  0.00    +0.111 A 
ENDBRANCH  26  28
BRANCH  20  23
ATOM      2  O   UNL     1       9.299   5.121   4.814  0.00  0.00    -0.274 OA
ATOM      8  N   UNL     1      10.771   6.747   5.593  0.00  0.00    -0.303 N 
ATOM     23  C   UNL     1       9.880   6.195   4.689  0.00  0.00    +0.234 C 
ATOM     38  H   UNL     1      11.128   7.683   5.426  0.00  0.00    +0.149 HD
BRANCH   8  19
ATOM     19  C   UNL     1      11.136   6.104   6.835  0.00  0.00    +0.159 C 
BRANCH  19  25
ATOM      5  O   UNL     1       9.413   5.364   8.381  0.00  0.00    -0.274 OA
ATOM     10  N   UNL     1       9.679   7.619   8.036  0.00  0.00    -0.328 N 
ATOM     25  C   UNL     1      10.001   6.293   7.834  0.00  0.00    +0.231 C 
ATOM     39  H   UNL     1       8.934   7.881   8.672  0.00  0.00    +0.145 HD
ATOM     40  H   UNL     1      10.159   8.376   7.562  0.00  0.00    +0.145 HD
ENDBRANCH  19  25
BRANCH  19  15
ATOM     15  C   UNL     1      12.484   6.598   7.370  0.00  0.00    +0.035 C 
BRANCH  15  12
ATOM     12  C   UNL     1      13.173   7.626   6.475  0.00  0.00    -0.009 C 
ATOM     13  C   UNL     1      12.986   9.043   7.034  0.00  0.00    +0.003 C 
ATOM     14  C   UNL     1      14.662   7.295   6.315  0.00  0.00    +0.003 C 
ATOM     16  C   UNL     1      13.711  10.085   6.184  0.00  0.00    +0.000 C 
ATOM     17  C   UNL     1      15.385   8.339   5.467  0.00  0.00    +0.000 C 
ATOM     18  C   UNL     1      15.189   9.747   6.021  0.00  0.00    +0.000 C 
ENDBRANCH  15  12
ENDBRANCH  19  15
ENDBRANCH   8  19
ENDBRANCH  20  23
BRANCH   7   1
ATOM      1  S   UNL     1      10.057   9.628   4.381  0.00  0.00    +0.062 S 
ATOM      3  O   UNL     1      10.898  10.731   3.967  0.00  0.00    -0.153 OA
ATOM      4  O   UNL     1       9.779   9.389   5.782  0.00  0.00    -0.153 OA
BRANCH   1  27
ATOM     27  C   UNL     1       8.514   9.780   3.539  0.00  0.00    +0.106 A 
ATOM     29  C   UNL     1       7.340   9.803   4.273  0.00  0.00    +0.028 A 
ATOM     30  C   UNL     1       8.502   9.873   2.157  0.00  0.00    +0.028 A 
ATOM     31  C   UNL     1       6.120   9.922   3.608  0.00  0.00    +0.002 A 
ATOM     32  C   UNL     1       7.282   9.992   1.490  0.00  0.00    +0.002 A 
ATOM     35  C   UNL     1       6.091  10.017   2.216  0.00  0.00    +0.000 A 
ENDBRANCH   1  27
ENDBRANCH   7   1
TORSDOF 8
ENDMDL
MODEL 10
REMARK VINA RESULT:      -6.3     28.401     31.522
REMARK  Name = 11887598
REMARK  8 active torsions:
REMARK  status: ('A' for Active; 'I' for Inactive)
REMARK    1  A    between atoms: S_1  and  N_7
REMARK    2  A    between atoms: S_1  and  C_27
REMARK    3  A    between atoms: N_8  and  C_19
REMARK    4  A    between atoms: C_12  and  C_15
REMARK    5  A    between atoms: C_15  and  C_19
REMARK    6  A    between atoms: C_19  and  C_25
REMARK    7  A    between atoms: C_20  and  C_23
REMARK    8  A    between atoms: C_26  and  C_28
REMARK                            x       y       z     vdW  Elec       q    Type
REMARK                         _______ _______ _______ _____ _____    ______ ____
ROOT
ATOM      6  O   UNL     1     -10.296 -11.332  13.014  0.00  0.00    -0.270 OA
ATOM      7  N   UNL     1      -6.210  -9.784  10.447  0.00  0.00    -0.162 NA
ATOM      9  N   UNL     1      -8.287 -10.316  12.383  0.00  0.00    -0.294 N 
ATOM     20  C   UNL     1      -7.307 -10.738  10.126  0.00  0.00    +0.183 C 
ATOM     21  C   UNL     1      -7.982 -11.321  11.364  0.00  0.00    +0.138 C 
ATOM     22  C   UNL     1      -5.969  -9.570  11.898  0.00  0.00    +0.129 C 
ATOM     24  C   UNL     1      -7.291  -9.257  12.583  0.00  0.00    +0.125 C 
ATOM     26  C   UNL     1      -9.445 -10.456  13.156  0.00  0.00    +0.248 C 
ENDROOT
BRANCH  26  28
ATOM     11  N   UNL     1      -9.071  -8.643  16.414  0.00  0.00    -0.263 NA
ATOM     28  C   UNL     1      -9.675  -9.483  14.235  0.00  0.00    +0.055 A 
ATOM     33  C   UNL     1     -10.664  -8.517  14.120  0.00  0.00    +0.016 A 
ATOM     34  C   UNL     1      -8.912  -9.507  15.387  0.00  0.00    +0.123 A 
ATOM     36  C   UNL     1     -10.858  -7.609  15.156  0.00  0.00    +0.020 A 
ATOM     37  C   UNL     1     -10.044  -7.714  16.271  0.00  0.00    +0.111 A 
ENDBRANCH  26  28
BRANCH  20  23
ATOM      2  O   UNL     1      -9.471 -10.183   9.295  0.00  0.00    -0.274 OA
ATOM      8  N   UNL     1      -7.635  -8.943   8.580  0.00  0.00    -0.303 N 
ATOM     23  C   UNL     1      -8.268  -9.937   9.306  0.00  0.00    +0.234 C 
ATOM     38  H   UNL     1      -6.621  -8.886   8.601  0.00  0.00    +0.149 HD
BRANCH   8  19
ATOM     19  C   UNL     1      -8.337  -8.045   7.692  0.00  0.00    +0.159 C 
BRANCH  19  25
ATOM      5  O   UNL     1      -8.277  -7.717   5.285  0.00  0.00    -0.274 OA
ATOM     10  N   UNL     1      -6.607  -8.954   6.262  0.00  0.00    -0.328 N 
ATOM     25  C   UNL     1      -7.759  -8.194   6.290  0.00  0.00    +0.231 C 
ATOM     39  H   UNL     1      -6.126  -9.136   5.388  0.00  0.00    +0.145 HD
ATOM     40  H   UNL     1      -6.201  -9.360   7.098  0.00  0.00    +0.145 HD
ENDBRANCH  19  25
BRANCH  19  15
ATOM     15  C   UNL     1      -8.311  -6.597   8.192  0.00  0.00    +0.035 C 
BRANCH  15  12
ATOM     12  C   UNL     1      -9.694  -5.976   8.381  0.00  0.00    -0.009 C 
ATOM     13  C   UNL     1     -10.514  -6.780   9.400  0.00  0.00    +0.003 C 
ATOM     14  C   UNL     1      -9.575  -4.509   8.811  0.00  0.00    +0.003 C 
ATOM     16  C   UNL     1     -11.883  -6.148   9.645  0.00  0.00    +0.000 C 
ATOM     17  C   UNL     1     -10.945  -3.880   9.058  0.00  0.00    +0.000 C 
ATOM     18  C   UNL     1     -11.761  -4.686  10.065  0.00  0.00    +0.000 C 
ENDBRANCH  15  12
ENDBRANCH  19  15
ENDBRANCH   8  19
ENDBRANCH  20  23
BRANCH   7   1
ATOM      1  S   UNL     1      -4.821  -9.841   9.452  0.00  0.00    +0.062 S 
ATOM      3  O   UNL     1      -4.401  -8.489   9.149  0.00  0.00    -0.153 OA
ATOM      4  O   UNL     1      -5.038 -10.807   8.396  0.00  0.00    -0.153 OA
BRANCH   1  27
ATOM     27  C   UNL     1      -3.656 -10.527  10.586  0.00  0.00    +0.106 A 
ATOM     29  C   UNL     1      -2.629  -9.732  11.067  0.00  0.00    +0.028 A 
ATOM     30  C   UNL     1      -3.787 -11.850  10.974  0.00  0.00    +0.028 A 
ATOM     31  C   UNL     1      -1.707 -10.275  11.961  0.00  0.00    +0.002 A 
ATOM     32  C   UNL     1      -2.865 -12.394  11.869  0.00  0.00    +0.002 A 
ATOM     35  C   UNL     1      -1.824 -11.606  12.363  0.00  0.00    +0.000 A 
ENDBRANCH   1  27
ENDBRANCH   7   1
TORSDOF 8
ENDMDL
