MODEL 1
REMARK VINA RESULT:      -6.9      0.000      0.000
REMARK  Name = 75537023
REMARK  2 active torsions:
REMARK  status: ('A' for Active; 'I' for Inactive)
REMARK    1  A    between atoms: N_3  and  C_8
REMARK    2  A    between atoms: N_6  and  C_20
REMARK                            x       y       z     vdW  Elec       q    Type
REMARK                         _______ _______ _______ _____ _____    ______ ____
ROOT
ATOM      1  O   UNL     1     -17.501   3.548  21.877  0.00  0.00    -0.252 OA
ATOM      2  O   UNL     1     -17.612   0.535  28.096  0.00  0.00    -0.252 OA
ATOM      3  N   UNL     1     -15.577   4.439  22.909  0.00  0.00    -0.281 N 
ATOM      4  N   UNL     1     -16.783   2.903  24.020  0.00  0.00    -0.278 N 
ATOM      5  N   UNL     1     -16.973   2.277  26.722  0.00  0.00    -0.282 N 
ATOM      6  N   UNL     1     -15.601   1.611  28.519  0.00  0.00    -0.269 N 
ATOM      7  C   UNL     1     -15.627   3.145  24.867  0.00  0.00    +0.112 C 
ATOM      9  C   UNL     1     -14.941   4.340  24.211  0.00  0.00    +0.133 C 
ATOM     12  C   UNL     1     -16.073   3.374  26.307  0.00  0.00    +0.133 C 
ATOM     13  C   UNL     1     -16.717   3.618  22.815  0.00  0.00    +0.305 C 
ATOM     14  C   UNL     1     -17.785   1.929  24.420  0.00  0.00    +0.128 C 
ATOM     18  C   UNL     1     -18.175   2.145  25.882  0.00  0.00    +0.128 C 
ATOM     19  C   UNL     1     -16.788   1.410  27.817  0.00  0.00    +0.307 C 
ATOM     26  H   UNL     1     -14.804   1.984  28.014  0.00  0.00    +0.156 HD
ENDROOT
BRANCH   3   8
ATOM      8  C   UNL     1     -15.138   5.388  21.915  0.00  0.00    +0.078 C 
ATOM     10  C   UNL     1     -15.855   6.729  22.091  0.00  0.00    +0.022 C 
ATOM     11  C   UNL     1     -13.618   5.560  21.971  0.00  0.00    +0.022 C 
ATOM     15  C   UNL     1     -15.366   7.765  21.083  0.00  0.00    +0.002 C 
ATOM     16  C   UNL     1     -13.131   6.598  20.964  0.00  0.00    +0.002 C 
ATOM     17  C   UNL     1     -13.849   7.933  21.139  0.00  0.00    +0.000 C 
ENDBRANCH   3   8
BRANCH   6  20
ATOM     20  C   UNL     1     -15.369   1.380  29.898  0.00  0.00    +0.035 A 
ATOM     21  C   UNL     1     -15.126   0.085  30.357  0.00  0.00    +0.023 A 
ATOM     22  C   UNL     1     -15.384   2.446  30.796  0.00  0.00    +0.023 A 
ATOM     23  C   UNL     1     -14.898  -0.143  31.714  0.00  0.00    +0.002 A 
ATOM     24  C   UNL     1     -15.155   2.219  32.153  0.00  0.00    +0.002 A 
ATOM     25  C   UNL     1     -14.913   0.924  32.613  0.00  0.00    +0.000 A 
ENDBRANCH   6  20
TORSDOF 2
ENDMDL
MODEL 2
REMARK VINA RESULT:      -6.8     33.476     35.840
REMARK  Name = 75537023
REMARK  2 active torsions:
REMARK  status: ('A' for Active; 'I' for Inactive)
REMARK    1  A    between atoms: N_3  and  C_8
REMARK    2  A    between atoms: N_6  and  C_20
REMARK                            x       y       z     vdW  Elec       q    Type
REMARK                         _______ _______ _______ _____ _____    ______ ____
ROOT
ATOM      1  O   UNL     1      17.478   9.935  20.959  0.00  0.00    -0.252 OA
ATOM      2  O   UNL     1      23.180   6.164  21.974  0.00  0.00    -0.252 OA
ATOM      3  N   UNL     1      16.633   7.733  20.991  0.00  0.00    -0.281 N 
ATOM      4  N   UNL     1      18.823   8.054  21.378  0.00  0.00    -0.278 N 
ATOM      5  N   UNL     1      21.019   6.361  21.183  0.00  0.00    -0.282 N 
ATOM      6  N   UNL     1      21.793   4.305  22.037  0.00  0.00    -0.269 N 
ATOM      7  C   UNL     1      18.618   6.630  21.587  0.00  0.00    +0.112 C 
ATOM      9  C   UNL     1      17.188   6.396  21.109  0.00  0.00    +0.133 C 
ATOM     12  C   UNL     1      19.682   5.833  20.841  0.00  0.00    +0.133 C 
ATOM     13  C   UNL     1      17.625   8.727  21.096  0.00  0.00    +0.305 C 
ATOM     14  C   UNL     1      20.143   8.633  21.569  0.00  0.00    +0.128 C 
ATOM     18  C   UNL     1      21.197   7.786  20.857  0.00  0.00    +0.128 C 
ATOM     19  C   UNL     1      22.089   5.636  21.744  0.00  0.00    +0.307 C 
ATOM     26  H   UNL     1      20.833   4.066  22.258  0.00  0.00    +0.156 HD
ENDROOT
BRANCH   3   8
ATOM      8  C   UNL     1      15.246   7.959  20.663  0.00  0.00    +0.078 C 
ATOM     10  C   UNL     1      14.823   7.091  19.475  0.00  0.00    +0.022 C 
ATOM     11  C   UNL     1      14.358   7.703  21.882  0.00  0.00    +0.022 C 
ATOM     15  C   UNL     1      13.344   7.273  19.145  0.00  0.00    +0.002 C 
ATOM     16  C   UNL     1      12.879   7.884  21.550  0.00  0.00    +0.002 C 
ATOM     17  C   UNL     1      12.459   7.021  20.363  0.00  0.00    +0.000 C 
ENDBRANCH   3   8
BRANCH   6  20
ATOM     20  C   UNL     1      22.688   3.206  22.035  0.00  0.00    +0.035 A 
ATOM     21  C   UNL     1      23.269   2.782  20.840  0.00  0.00    +0.023 A 
ATOM     22  C   UNL     1      22.987   2.548  23.228  0.00  0.00    +0.023 A 
ATOM     23  C   UNL     1      24.150   1.700  20.838  0.00  0.00    +0.002 A 
ATOM     24  C   UNL     1      23.867   1.466  23.225  0.00  0.00    +0.002 A 
ATOM     25  C   UNL     1      24.449   1.042  22.031  0.00  0.00    +0.000 A 
ENDBRANCH   6  20
TORSDOF 2
ENDMDL
MODEL 3
REMARK VINA RESULT:      -6.8     18.617     20.939
REMARK  Name = 75537023
REMARK  2 active torsions:
REMARK  status: ('A' for Active; 'I' for Inactive)
REMARK    1  A    between atoms: N_3  and  C_8
REMARK    2  A    between atoms: N_6  and  C_20
REMARK                            x       y       z     vdW  Elec       q    Type
REMARK                         _______ _______ _______ _____ _____    ______ ____
ROOT
ATOM      1  O   UNL     1      -6.709 -11.580  20.375  0.00  0.00    -0.252 OA
ATOM      2  O   UNL     1      -3.117 -10.672  14.541  0.00  0.00    -0.252 OA
ATOM      3  N   UNL     1      -8.396 -11.040  18.818  0.00  0.00    -0.281 N 
ATOM      4  N   UNL     1      -6.278 -11.231  18.092  0.00  0.00    -0.278 N 
ATOM      5  N   UNL     1      -4.985 -10.254  15.833  0.00  0.00    -0.282 N 
ATOM      6  N   UNL     1      -5.153 -10.334  13.483  0.00  0.00    -0.269 N 
ATOM      7  C   UNL     1      -7.061 -11.017  16.886  0.00  0.00    +0.112 C 
ATOM      9  C   UNL     1      -8.451 -10.672  17.414  0.00  0.00    +0.133 C 
ATOM     12  C   UNL     1      -6.415  -9.936  16.027  0.00  0.00    +0.133 C 
ATOM     13  C   UNL     1      -7.081 -11.320  19.238  0.00  0.00    +0.305 C 
ATOM     14  C   UNL     1      -4.840 -11.425  17.997  0.00  0.00    +0.128 C 
ATOM     18  C   UNL     1      -4.224 -10.361  17.088  0.00  0.00    +0.128 C 
ATOM     19  C   UNL     1      -4.325 -10.429  14.600  0.00  0.00    +0.307 C 
ATOM     26  H   UNL     1      -6.129 -10.588  13.588  0.00  0.00    +0.156 HD
ENDROOT
BRANCH   3   8
ATOM      8  C   UNL     1      -9.556 -10.972  19.672  0.00  0.00    +0.078 C 
ATOM     10  C   UNL     1     -10.574  -9.969  19.123  0.00  0.00    +0.022 C 
ATOM     11  C   UNL     1     -10.179 -12.360  19.843  0.00  0.00    +0.022 C 
ATOM     15  C   UNL     1     -11.835  -9.922  19.982  0.00  0.00    +0.002 C 
ATOM     16  C   UNL     1     -11.441 -12.309  20.700  0.00  0.00    +0.002 C 
ATOM     17  C   UNL     1     -12.453 -11.307  20.153  0.00  0.00    +0.000 C 
ENDBRANCH   3   8
BRANCH   6  20
ATOM     20  C   UNL     1      -4.798  -9.884  12.186  0.00  0.00    +0.035 A 
ATOM     21  C   UNL     1      -5.569  -8.909  11.552  0.00  0.00    +0.023 A 
ATOM     22  C   UNL     1      -3.681 -10.416  11.545  0.00  0.00    +0.023 A 
ATOM     23  C   UNL     1      -5.220  -8.466  10.276  0.00  0.00    +0.002 A 
ATOM     24  C   UNL     1      -3.332  -9.973  10.269  0.00  0.00    +0.002 A 
ATOM     25  C   UNL     1      -4.102  -8.998   9.634  0.00  0.00    +0.000 A 
ENDBRANCH   6  20
TORSDOF 2
ENDMDL
MODEL 4
REMARK VINA RESULT:      -6.7     31.464     35.607
REMARK  Name = 75537023
REMARK  2 active torsions:
REMARK  status: ('A' for Active; 'I' for Inactive)
REMARK    1  A    between atoms: N_3  and  C_8
REMARK    2  A    between atoms: N_6  and  C_20
REMARK                            x       y       z     vdW  Elec       q    Type
REMARK                         _______ _______ _______ _____ _____    ______ ____
ROOT
ATOM      1  O   UNL     1      12.852   6.814  -1.016  0.00  0.00    -0.252 OA
ATOM      2  O   UNL     1      12.004   7.337   5.824  0.00  0.00    -0.252 OA
ATOM      3  N   UNL     1      11.062   5.333  -0.610  0.00  0.00    -0.281 N 
ATOM      4  N   UNL     1      11.890   6.520   1.108  0.00  0.00    -0.278 N 
ATOM      5  N   UNL     1      11.786   6.140   3.860  0.00  0.00    -0.282 N 
ATOM      6  N   UNL     1      10.202   5.895   5.589  0.00  0.00    -0.269 N 
ATOM      7  C   UNL     1      10.746   5.817   1.666  0.00  0.00    +0.112 C 
ATOM      9  C   UNL     1      10.336   4.856   0.554  0.00  0.00    +0.133 C 
ATOM     12  C   UNL     1      11.132   5.149   2.980  0.00  0.00    +0.133 C 
ATOM     13  C   UNL     1      12.035   6.292  -0.267  0.00  0.00    +0.305 C 
ATOM     14  C   UNL     1      12.668   7.420   1.946  0.00  0.00    +0.128 C 
ATOM     18  C   UNL     1      12.995   6.746   3.278  0.00  0.00    +0.128 C 
ATOM     19  C   UNL     1      11.375   6.511   5.156  0.00  0.00    +0.307 C 
ATOM     26  H   UNL     1       9.523   5.617   4.889  0.00  0.00    +0.156 HD
ENDROOT
BRANCH   3   8
ATOM      8  C   UNL     1      10.870   4.758  -1.919  0.00  0.00    +0.078 C 
ATOM     10  C   UNL     1      11.163   3.255  -1.898  0.00  0.00    +0.022 C 
ATOM     11  C   UNL     1       9.456   5.042  -2.429  0.00  0.00    +0.022 C 
ATOM     15  C   UNL     1      10.913   2.615  -3.261  0.00  0.00    +0.002 C 
ATOM     16  C   UNL     1       9.207   4.399  -3.790  0.00  0.00    +0.002 C 
ATOM     17  C   UNL     1       9.502   2.902  -3.769  0.00  0.00    +0.000 C 
ENDBRANCH   3   8
BRANCH   6  20
ATOM     20  C   UNL     1       9.843   5.570   6.921  0.00  0.00    +0.035 A 
ATOM     21  C   UNL     1       9.991   4.263   7.384  0.00  0.00    +0.023 A 
ATOM     22  C   UNL     1       9.341   6.558   7.767  0.00  0.00    +0.023 A 
ATOM     23  C   UNL     1       9.637   3.943   8.695  0.00  0.00    +0.002 A 
ATOM     24  C   UNL     1       8.987   6.238   9.078  0.00  0.00    +0.002 A 
ATOM     25  C   UNL     1       9.135   4.931   9.542  0.00  0.00    +0.000 A 
ENDBRANCH   6  20
TORSDOF 2
ENDMDL
MODEL 5
REMARK VINA RESULT:      -6.5     20.629     23.292
REMARK  Name = 75537023
REMARK  2 active torsions:
REMARK  status: ('A' for Active; 'I' for Inactive)
REMARK    1  A    between atoms: N_3  and  C_8
REMARK    2  A    between atoms: N_6  and  C_20
REMARK                            x       y       z     vdW  Elec       q    Type
REMARK                         _______ _______ _______ _____ _____    ______ ____
ROOT
ATOM      1  O   UNL     1      -2.150 -11.315  14.435  0.00  0.00    -0.252 OA
ATOM      2  O   UNL     1      -4.513  -9.327   8.252  0.00  0.00    -0.252 OA
ATOM      3  N   UNL     1      -4.408 -10.813  14.891  0.00  0.00    -0.281 N 
ATOM      4  N   UNL     1      -3.676 -10.662  12.772  0.00  0.00    -0.278 N 
ATOM      5  N   UNL     1      -4.643  -9.288  10.558  0.00  0.00    -0.282 N 
ATOM      6  N   UNL     1      -6.597  -9.123   9.249  0.00  0.00    -0.269 N 
ATOM      7  C   UNL     1      -5.105 -10.411  12.685  0.00  0.00    +0.112 C 
ATOM      9  C   UNL     1      -5.542 -10.299  14.143  0.00  0.00    +0.133 C 
ATOM     12  C   UNL     1      -5.368  -9.170  11.840  0.00  0.00    +0.133 C 
ATOM     13  C   UNL     1      -3.271 -10.977  14.077  0.00  0.00    +0.305 C 
ATOM     14  C   UNL     1      -2.866 -10.667  11.565  0.00  0.00    +0.128 C 
ATOM     18  C   UNL     1      -3.187  -9.442  10.710  0.00  0.00    +0.128 C 
ATOM     19  C   UNL     1      -5.208  -9.241   9.268  0.00  0.00    +0.307 C 
ATOM     26  H   UNL     1      -7.120  -9.505  10.030  0.00  0.00    +0.156 HD
ENDROOT
BRANCH   3   8
ATOM      8  C   UNL     1      -4.452 -10.983  16.323  0.00  0.00    +0.078 C 
ATOM     10  C   UNL     1      -5.531 -10.092  16.942  0.00  0.00    +0.022 C 
ATOM     11  C   UNL     1      -4.672 -12.455  16.682  0.00  0.00    +0.022 C 
ATOM     15  C   UNL     1      -5.632 -10.297  18.451  0.00  0.00    +0.002 C 
ATOM     16  C   UNL     1      -4.774 -12.657  18.192  0.00  0.00    +0.002 C 
ATOM     17  C   UNL     1      -5.848 -11.765  18.808  0.00  0.00    +0.000 C 
ENDBRANCH   3   8
BRANCH   6  20
ATOM     20  C   UNL     1      -7.393  -8.490   8.261  0.00  0.00    +0.035 A 
ATOM     21  C   UNL     1      -7.765  -9.190   7.113  0.00  0.00    +0.023 A 
ATOM     22  C   UNL     1      -7.802  -7.169   8.436  0.00  0.00    +0.023 A 
ATOM     23  C   UNL     1      -8.548  -8.568   6.141  0.00  0.00    +0.002 A 
ATOM     24  C   UNL     1      -8.585  -6.547   7.464  0.00  0.00    +0.002 A 
ATOM     25  C   UNL     1      -8.957  -7.246   6.315  0.00  0.00    +0.000 A 
ENDBRANCH   6  20
TORSDOF 2
ENDMDL
MODEL 6
REMARK VINA RESULT:      -6.4     18.578     19.582
REMARK  Name = 75537023
REMARK  2 active torsions:
REMARK  status: ('A' for Active; 'I' for Inactive)
REMARK    1  A    between atoms: N_3  and  C_8
REMARK    2  A    between atoms: N_6  and  C_20
REMARK                            x       y       z     vdW  Elec       q    Type
REMARK                         _______ _______ _______ _____ _____    ______ ____
ROOT
ATOM      1  O   UNL     1      -2.641 -11.491  15.823  0.00  0.00    -0.252 OA
ATOM      2  O   UNL     1      -8.071 -10.853  20.051  0.00  0.00    -0.252 OA
ATOM      3  N   UNL     1      -4.319 -10.681  14.377  0.00  0.00    -0.281 N 
ATOM      4  N   UNL     1      -4.795 -10.909  16.561  0.00  0.00    -0.278 N 
ATOM      5  N   UNL     1      -7.202 -11.149  17.932  0.00  0.00    -0.282 N 
ATOM      6  N   UNL     1      -9.227  -9.981  18.239  0.00  0.00    -0.269 N 
ATOM      7  C   UNL     1      -5.979 -10.288  15.991  0.00  0.00    +0.112 C 
ATOM      9  C   UNL     1      -5.728 -10.344  14.487  0.00  0.00    +0.133 C 
ATOM     12  C   UNL     1      -7.231 -11.020  16.460  0.00  0.00    +0.133 C 
ATOM     13  C   UNL     1      -3.774 -11.075  15.615  0.00  0.00    +0.305 C 
ATOM     14  C   UNL     1      -4.737 -11.188  17.987  0.00  0.00    +0.128 C 
ATOM     18  C   UNL     1      -6.026 -11.873  18.442  0.00  0.00    +0.128 C 
ATOM     19  C   UNL     1      -8.176 -10.677  18.834  0.00  0.00    +0.307 C 
ATOM     26  H   UNL     1      -9.043  -9.490  17.371  0.00  0.00    +0.156 HD
ENDROOT
BRANCH   3   8
ATOM      8  C   UNL     1      -3.642 -10.728  13.104  0.00  0.00    +0.078 C 
ATOM     10  C   UNL     1      -4.465 -10.019  12.026  0.00  0.00    +0.022 C 
ATOM     11  C   UNL     1      -2.240 -10.126  13.220  0.00  0.00    +0.022 C 
ATOM     15  C   UNL     1      -3.742 -10.009  10.682  0.00  0.00    +0.002 C 
ATOM     16  C   UNL     1      -1.519 -10.115  11.875  0.00  0.00    +0.002 C 
ATOM     17  C   UNL     1      -2.342  -9.411  10.800  0.00  0.00    +0.000 C 
ENDBRANCH   3   8
BRANCH   6  20
ATOM     20  C   UNL     1     -10.567  -9.897  18.691  0.00  0.00    +0.035 A 
ATOM     21  C   UNL     1     -10.864 -10.116  20.037  0.00  0.00    +0.023 A 
ATOM     22  C   UNL     1     -11.589  -9.596  17.792  0.00  0.00    +0.023 A 
ATOM     23  C   UNL     1     -12.183 -10.034  20.482  0.00  0.00    +0.002 A 
ATOM     24  C   UNL     1     -12.908  -9.514  18.238  0.00  0.00    +0.002 A 
ATOM     25  C   UNL     1     -13.205  -9.733  19.583  0.00  0.00    +0.000 A 
ENDBRANCH   6  20
TORSDOF 2
ENDMDL
MODEL 7
REMARK VINA RESULT:      -6.4     36.733     38.230
REMARK  Name = 75537023
REMARK  2 active torsions:
REMARK  status: ('A' for Active; 'I' for Inactive)
REMARK    1  A    between atoms: N_3  and  C_8
REMARK    2  A    between atoms: N_6  and  C_20
REMARK                            x       y       z     vdW  Elec       q    Type
REMARK                         _______ _______ _______ _____ _____    ______ ____
ROOT
ATOM      1  O   UNL     1      19.151  -5.583  25.899  0.00  0.00    -0.252 OA
ATOM      2  O   UNL     1      22.466 -10.413  22.231  0.00  0.00    -0.252 OA
ATOM      3  N   UNL     1      18.525  -5.061  23.687  0.00  0.00    -0.281 N 
ATOM      4  N   UNL     1      19.804  -6.873  24.046  0.00  0.00    -0.278 N 
ATOM      5  N   UNL     1      21.494  -8.323  22.383  0.00  0.00    -0.282 N 
ATOM      6  N   UNL     1      21.434  -9.522  20.354  0.00  0.00    -0.269 N 
ATOM      7  C   UNL     1      19.508  -6.909  22.624  0.00  0.00    +0.112 C 
ATOM      9  C   UNL     1      18.832  -5.567  22.360  0.00  0.00    +0.133 C 
ATOM     12  C   UNL     1      20.786  -7.150  21.829  0.00  0.00    +0.133 C 
ATOM     13  C   UNL     1      19.156  -5.813  24.697  0.00  0.00    +0.305 C 
ATOM     14  C   UNL     1      20.606  -7.926  24.648  0.00  0.00    +0.128 C 
ATOM     18  C   UNL     1      21.853  -8.185  23.804  0.00  0.00    +0.128 C 
ATOM     19  C   UNL     1      21.853  -9.492  21.683  0.00  0.00    +0.307 C 
ATOM     26  H   UNL     1      20.597  -9.006  20.105  0.00  0.00    +0.156 HD
ENDROOT
BRANCH   3   8
ATOM      8  C   UNL     1      17.774  -3.845  23.886  0.00  0.00    +0.078 C 
ATOM     10  C   UNL     1      18.673  -2.619  23.708  0.00  0.00    +0.022 C 
ATOM     11  C   UNL     1      16.572  -3.795  22.940  0.00  0.00    +0.022 C 
ATOM     15  C   UNL     1      17.887  -1.319  23.860  0.00  0.00    +0.002 C 
ATOM     16  C   UNL     1      15.789  -2.494  23.093  0.00  0.00    +0.002 C 
ATOM     17  C   UNL     1      16.687  -1.273  22.919  0.00  0.00    +0.000 C 
ENDBRANCH   3   8
BRANCH   6  20
ATOM     20  C   UNL     1      22.067 -10.178  19.268  0.00  0.00    +0.035 A 
ATOM     21  C   UNL     1      21.366 -11.125  18.522  0.00  0.00    +0.023 A 
ATOM     22  C   UNL     1      23.389  -9.876  18.946  0.00  0.00    +0.023 A 
ATOM     23  C   UNL     1      21.988 -11.771  17.453  0.00  0.00    +0.002 A 
ATOM     24  C   UNL     1      24.012 -10.522  17.878  0.00  0.00    +0.002 A 
ATOM     25  C   UNL     1      23.311 -11.469  17.131  0.00  0.00    +0.000 A 
ENDBRANCH   6  20
TORSDOF 2
ENDMDL
MODEL 8
REMARK VINA RESULT:      -6.3     19.538     20.461
REMARK  Name = 75537023
REMARK  2 active torsions:
REMARK  status: ('A' for Active; 'I' for Inactive)
REMARK    1  A    between atoms: N_3  and  C_8
REMARK    2  A    between atoms: N_6  and  C_20
REMARK                            x       y       z     vdW  Elec       q    Type
REMARK                         _______ _______ _______ _____ _____    ______ ____
ROOT
ATOM      1  O   UNL     1      -1.980 -10.722  14.107  0.00  0.00    -0.252 OA
ATOM      2  O   UNL     1      -6.286 -10.900  19.510  0.00  0.00    -0.252 OA
ATOM      3  N   UNL     1      -4.097 -10.631  13.073  0.00  0.00    -0.281 N 
ATOM      4  N   UNL     1      -3.991 -10.629  15.317  0.00  0.00    -0.278 N 
ATOM      5  N   UNL     1      -5.855 -11.283  17.274  0.00  0.00    -0.282 N 
ATOM      6  N   UNL     1      -8.017 -10.668  17.983  0.00  0.00    -0.269 N 
ATOM      7  C   UNL     1      -5.402 -10.445  15.016  0.00  0.00    +0.112 C 
ATOM      9  C   UNL     1      -5.482 -10.670  13.509  0.00  0.00    +0.133 C 
ATOM     12  C   UNL     1      -6.244 -11.402  15.853  0.00  0.00    +0.133 C 
ATOM     13  C   UNL     1      -3.202 -10.663  14.159  0.00  0.00    +0.305 C 
ATOM     14  C   UNL     1      -3.542 -10.652  16.700  0.00  0.00    +0.128 C 
ATOM     18  C   UNL     1      -4.435 -11.576  17.527  0.00  0.00    +0.128 C 
ATOM     19  C   UNL     1      -6.703 -10.953  18.349  0.00  0.00    +0.307 C 
ATOM     26  H   UNL     1      -8.184 -10.289  17.057  0.00  0.00    +0.156 HD
ENDROOT
BRANCH   3   8
ATOM      8  C   UNL     1      -3.733 -10.696  11.678  0.00  0.00    +0.078 C 
ATOM     10  C   UNL     1      -4.352 -11.929  11.015  0.00  0.00    +0.022 C 
ATOM     11  C   UNL     1      -4.143  -9.411  10.956  0.00  0.00    +0.022 C 
ATOM     15  C   UNL     1      -4.024 -11.988   9.525  0.00  0.00    +0.002 C 
ATOM     16  C   UNL     1      -3.817  -9.473   9.466  0.00  0.00    +0.002 C 
ATOM     17  C   UNL     1      -4.431 -10.704   8.807  0.00  0.00    +0.000 C 
ENDBRANCH   3   8
BRANCH   6  20
ATOM     20  C   UNL     1      -9.188 -10.875  18.755  0.00  0.00    +0.035 A 
ATOM     21  C   UNL     1      -9.363 -12.072  19.448  0.00  0.00    +0.023 A 
ATOM     22  C   UNL     1     -10.165  -9.883  18.819  0.00  0.00    +0.023 A 
ATOM     23  C   UNL     1     -10.515 -12.277  20.207  0.00  0.00    +0.002 A 
ATOM     24  C   UNL     1     -11.318 -10.087  19.578  0.00  0.00    +0.002 A 
ATOM     25  C   UNL     1     -11.493 -11.285  20.272  0.00  0.00    +0.000 A 
ENDBRANCH   6  20
TORSDOF 2
ENDMDL
MODEL 9
REMARK VINA RESULT:      -6.3      2.793      5.192
REMARK  Name = 75537023
REMARK  2 active torsions:
REMARK  status: ('A' for Active; 'I' for Inactive)
REMARK    1  A    between atoms: N_3  and  C_8
REMARK    2  A    between atoms: N_6  and  C_20
REMARK                            x       y       z     vdW  Elec       q    Type
REMARK                         _______ _______ _______ _____ _____    ______ ____
ROOT
ATOM      1  O   UNL     1     -14.427   8.436  19.220  0.00  0.00    -0.252 OA
ATOM      2  O   UNL     1     -17.930   4.743  23.894  0.00  0.00    -0.252 OA
ATOM      3  N   UNL     1     -12.727   7.154  20.233  0.00  0.00    -0.281 N 
ATOM      4  N   UNL     1     -14.855   6.819  20.869  0.00  0.00    -0.278 N 
ATOM      5  N   UNL     1     -15.964   5.709  23.165  0.00  0.00    -0.282 N 
ATOM      6  N   UNL     1     -15.920   3.702  24.400  0.00  0.00    -0.269 N 
ATOM      7  C   UNL     1     -14.095   5.806  21.583  0.00  0.00    +0.112 C 
ATOM      9  C   UNL     1     -12.642   6.187  21.314  0.00  0.00    +0.133 C 
ATOM     12  C   UNL     1     -14.493   5.794  23.055  0.00  0.00    +0.133 C 
ATOM     13  C   UNL     1     -14.051   7.575  20.005  0.00  0.00    +0.305 C 
ATOM     14  C   UNL     1     -16.300   6.885  21.024  0.00  0.00    +0.128 C 
ATOM     18  C   UNL     1     -16.674   6.817  22.504  0.00  0.00    +0.128 C 
ATOM     19  C   UNL     1     -16.698   4.714  23.840  0.00  0.00    +0.307 C 
ATOM     26  H   UNL     1     -15.033   3.483  23.961  0.00  0.00    +0.156 HD
ENDROOT
BRANCH   3   8
ATOM      8  C   UNL     1     -11.550   7.694  19.597  0.00  0.00    +0.078 C 
ATOM     10  C   UNL     1     -11.668   7.603  18.074  0.00  0.00    +0.022 C 
ATOM     11  C   UNL     1     -11.306   9.135  20.052  0.00  0.00    +0.022 C 
ATOM     15  C   UNL     1     -10.456   8.219  17.379  0.00  0.00    +0.002 C 
ATOM     16  C   UNL     1     -10.096   9.749  19.354  0.00  0.00    +0.002 C 
ATOM     17  C   UNL     1     -10.213   9.655  17.836  0.00  0.00    +0.000 C 
ENDBRANCH   3   8
BRANCH   6  20
ATOM     20  C   UNL     1     -16.208   2.939  25.560  0.00  0.00    +0.035 A 
ATOM     21  C   UNL     1     -16.646   1.620  25.435  0.00  0.00    +0.023 A 
ATOM     22  C   UNL     1     -16.055   3.506  26.824  0.00  0.00    +0.023 A 
ATOM     23  C   UNL     1     -16.930   0.869  26.575  0.00  0.00    +0.002 A 
ATOM     24  C   UNL     1     -16.339   2.755  27.964  0.00  0.00    +0.002 A 
ATOM     25  C   UNL     1     -16.777   1.436  27.840  0.00  0.00    +0.000 A 
ENDBRANCH   6  20
TORSDOF 2
ENDMDL
MODEL 10
REMARK VINA RESULT:      -6.3     17.554     18.919
REMARK  Name = 75537023
REMARK  2 active torsions:
REMARK  status: ('A' for Active; 'I' for Inactive)
REMARK    1  A    between atoms: N_3  and  C_8
REMARK    2  A    between atoms: N_6  and  C_20
REMARK                            x       y       z     vdW  Elec       q    Type
REMARK                         _______ _______ _______ _____ _____    ______ ____
ROOT
ATOM      1  O   UNL     1     -11.256  -9.681  19.436  0.00  0.00    -0.252 OA
ATOM      2  O   UNL     1      -4.891 -12.178  18.423  0.00  0.00    -0.252 OA
ATOM      3  N   UNL     1     -10.720  -8.854  17.294  0.00  0.00    -0.281 N 
ATOM      4  N   UNL     1      -9.252 -10.206  18.327  0.00  0.00    -0.278 N 
ATOM      5  N   UNL     1      -6.521 -10.601  17.987  0.00  0.00    -0.282 N 
ATOM      6  N   UNL     1      -4.983 -11.221  16.312  0.00  0.00    -0.269 N 
ATOM      7  C   UNL     1      -8.680  -9.982  17.009  0.00  0.00    +0.112 C 
ATOM      9  C   UNL     1      -9.569  -8.897  16.409  0.00  0.00    +0.133 C 
ATOM     12  C   UNL     1      -7.208  -9.609  17.134  0.00  0.00    +0.133 C 
ATOM     13  C   UNL     1     -10.505  -9.595  18.473  0.00  0.00    +0.305 C 
ATOM     14  C   UNL     1      -8.569 -11.070  19.276  0.00  0.00    +0.128 C 
ATOM     18  C   UNL     1      -7.086 -10.711  19.343  0.00  0.00    +0.128 C 
ATOM     19  C   UNL     1      -5.410 -11.390  17.629  0.00  0.00    +0.307 C 
ATOM     26  H   UNL     1      -5.670 -10.948  15.618  0.00  0.00    +0.156 HD
ENDROOT
BRANCH   3   8
ATOM      8  C   UNL     1     -11.865  -8.021  17.019  0.00  0.00    +0.078 C 
ATOM     10  C   UNL     1     -11.554  -7.027  15.897  0.00  0.00    +0.022 C 
ATOM     11  C   UNL     1     -13.085  -8.881  16.678  0.00  0.00    +0.022 C 
ATOM     15  C   UNL     1     -12.771  -6.172  15.552  0.00  0.00    +0.002 C 
ATOM     16  C   UNL     1     -14.299  -8.024  16.331  0.00  0.00    +0.002 C 
ATOM     17  C   UNL     1     -13.987  -7.031  15.215  0.00  0.00    +0.000 C 
ENDBRANCH   3   8
BRANCH   6  20
ATOM     20  C   UNL     1      -3.664 -11.359  15.813  0.00  0.00    +0.035 A 
ATOM     21  C   UNL     1      -2.646 -10.536  16.296  0.00  0.00    +0.023 A 
ATOM     22  C   UNL     1      -3.383 -12.316  14.838  0.00  0.00    +0.023 A 
ATOM     23  C   UNL     1      -1.348 -10.671  15.804  0.00  0.00    +0.002 A 
ATOM     24  C   UNL     1      -2.085 -12.451  14.347  0.00  0.00    +0.002 A 
ATOM     25  C   UNL     1      -1.067 -11.628  14.829  0.00  0.00    +0.000 A 
ENDBRANCH   6  20
TORSDOF 2
ENDMDL
