MODEL 1
REMARK VINA RESULT:      -6.2      0.000      0.000
REMARK  Name = 38030151
REMARK  9 active torsions:
REMARK  status: ('A' for Active; 'I' for Inactive)
REMARK    1  A    between atoms: O_1  and  C_12
REMARK    2  A    between atoms: C_4  and  C_8
REMARK    3  A    between atoms: C_6  and  C_10
REMARK    4  A    between atoms: C_7  and  C_12
REMARK    5  A    between atoms: C_8  and  C_15
REMARK    6  A    between atoms: C_8  and  C_16
REMARK    7  A    between atoms: C_9  and  C_21
REMARK    8  A    between atoms: C_10  and  C_13
REMARK    9  A    between atoms: C_14  and  C_22
REMARK                            x       y       z     vdW  Elec       q    Type
REMARK                         _______ _______ _______ _____ _____    ______ ____
ROOT
ATOM      4  C   UNL     1      20.244   6.048  21.890  0.00  0.00    +0.001 C 
ATOM      5  C   UNL     1      19.545   6.301  20.544  0.00  0.00    +0.012 C 
ATOM      6  C   UNL     1      18.306   7.204  20.693  0.00  0.00    +0.023 C 
ATOM      7  C   UNL     1      20.685   7.388  22.530  0.00  0.00    +0.040 C 
ATOM      9  C   UNL     1      18.595   8.422  21.544  0.00  0.00    -0.073 C 
ATOM     11  C   UNL     1      19.670   8.492  22.349  0.00  0.00    -0.022 C 
ATOM     21  C   UNL     1      17.644   9.579  21.416  0.00  0.00    +0.039 C 
ENDROOT
BRANCH   4   8
ATOM      8  C   UNL     1      21.427   5.096  21.688  0.00  0.00    -0.013 C 
ATOM     15  C   UNL     1      21.000   3.881  20.870  0.00  0.00    +0.007 C 
ATOM     16  C   UNL     1      22.586   5.823  21.014  0.00  0.00    +0.007 C 
ENDBRANCH   4   8
BRANCH   6  10
ATOM     10  C   UNL     1      17.113   6.417  21.246  0.00  0.00    +0.103 C 
BRANCH  10  13
ATOM      2  O   UNL     1      16.188   5.936  19.118  0.00  0.00    -0.276 OA
ATOM      3  N   UNL     1      14.777   6.961  20.654  0.00  0.00    -0.301 N 
ATOM     13  C   UNL     1      15.990   6.411  20.239  0.00  0.00    +0.216 C 
ATOM     14  C   UNL     1      12.734   9.001  20.935  0.00  0.00    -0.011 C 
ATOM     17  C   UNL     1      14.511   7.533  21.979  0.00  0.00    +0.108 C 
ATOM     18  C   UNL     1      13.628   6.957  19.747  0.00  0.00    +0.108 C 
ATOM     19  C   UNL     1      13.963   8.954  21.854  0.00  0.00    +0.022 C 
ATOM     20  C   UNL     1      13.064   8.365  19.575  0.00  0.00    +0.022 C 
ATOM     22  C   UNL     1      12.241  10.435  20.759  0.00  0.00    +0.007 C 
ENDBRANCH  10  13
ENDBRANCH   6  10
BRANCH   7  12
ATOM     12  C   UNL     1      20.990   7.213  24.022  0.00  0.00    +0.163 C 
BRANCH  12   1
ATOM      1  O   UNL     1      19.872   6.602  24.635  0.00  0.00    -0.394 OA
ATOM     23  H   UNL     1      19.615   7.161  25.388  0.00  0.00    +0.209 HD
ENDBRANCH  12   1
ENDBRANCH   7  12
TORSDOF 5
ENDMDL
MODEL 2
REMARK VINA RESULT:      -5.9     27.851     29.834
REMARK  Name = 38030151
REMARK  9 active torsions:
REMARK  status: ('A' for Active; 'I' for Inactive)
REMARK    1  A    between atoms: O_1  and  C_12
REMARK    2  A    between atoms: C_4  and  C_8
REMARK    3  A    between atoms: C_6  and  C_10
REMARK    4  A    between atoms: C_7  and  C_12
REMARK    5  A    between atoms: C_8  and  C_15
REMARK    6  A    between atoms: C_8  and  C_16
REMARK    7  A    between atoms: C_9  and  C_21
REMARK    8  A    between atoms: C_10  and  C_13
REMARK    9  A    between atoms: C_14  and  C_22
REMARK                            x       y       z     vdW  Elec       q    Type
REMARK                         _______ _______ _______ _____ _____    ______ ____
ROOT
ATOM      4  C   UNL     1      -5.194 -11.924  17.672  0.00  0.00    +0.001 C 
ATOM      5  C   UNL     1      -4.350 -10.732  17.195  0.00  0.00    +0.012 C 
ATOM      6  C   UNL     1      -4.502 -10.481  15.682  0.00  0.00    +0.023 C 
ATOM      7  C   UNL     1      -6.692 -11.685  17.361  0.00  0.00    +0.040 C 
ATOM      9  C   UNL     1      -5.954 -10.497  15.252  0.00  0.00    -0.073 C 
ATOM     11  C   UNL     1      -6.921 -11.028  16.020  0.00  0.00    -0.022 C 
ATOM     21  C   UNL     1      -6.276  -9.850  13.933  0.00  0.00    +0.039 C 
ENDROOT
BRANCH   4   8
ATOM      8  C   UNL     1      -4.953 -12.164  19.166  0.00  0.00    -0.013 C 
ATOM     15  C   UNL     1      -3.458 -12.180  19.469  0.00  0.00    +0.007 C 
ATOM     16  C   UNL     1      -5.663 -11.099  19.997  0.00  0.00    +0.007 C 
ENDBRANCH   4   8
BRANCH   6  10
ATOM     10  C   UNL     1      -3.676 -11.484  14.870  0.00  0.00    +0.103 C 
BRANCH  10  13
ATOM      2  O   UNL     1      -1.759 -10.110  14.639  0.00  0.00    -0.276 OA
ATOM      3  N   UNL     1      -2.743 -10.855  12.671  0.00  0.00    -0.301 N 
ATOM     13  C   UNL     1      -2.636 -10.753  14.057  0.00  0.00    +0.216 C 
ATOM     14  C   UNL     1      -3.490 -10.038   9.989  0.00  0.00    -0.011 C 
ATOM     17  C   UNL     1      -3.774 -11.611  11.950  0.00  0.00    +0.108 C 
ATOM     18  C   UNL     1      -1.749 -10.207  11.814  0.00  0.00    +0.108 C 
ATOM     19  C   UNL     1      -4.488 -10.720  10.936  0.00  0.00    +0.022 C 
ATOM     20  C   UNL     1      -2.421  -9.286  10.799  0.00  0.00    +0.022 C 
ATOM     22  C   UNL     1      -4.209  -9.093   9.029  0.00  0.00    +0.007 C 
ENDBRANCH  10  13
ENDBRANCH   6  10
BRANCH   7  12
ATOM     12  C   UNL     1      -7.488 -12.994  17.431  0.00  0.00    +0.163 C 
BRANCH  12   1
ATOM      1  O   UNL     1      -8.379 -12.914  18.526  0.00  0.00    -0.394 OA
ATOM     23  H   UNL     1      -9.220 -13.311  18.242  0.00  0.00    +0.209 HD
ENDBRANCH  12   1
ENDBRANCH   7  12
TORSDOF 5
ENDMDL
MODEL 3
REMARK VINA RESULT:      -5.9     27.895     30.338
REMARK  Name = 38030151
REMARK  9 active torsions:
REMARK  status: ('A' for Active; 'I' for Inactive)
REMARK    1  A    between atoms: O_1  and  C_12
REMARK    2  A    between atoms: C_4  and  C_8
REMARK    3  A    between atoms: C_6  and  C_10
REMARK    4  A    between atoms: C_7  and  C_12
REMARK    5  A    between atoms: C_8  and  C_15
REMARK    6  A    between atoms: C_8  and  C_16
REMARK    7  A    between atoms: C_9  and  C_21
REMARK    8  A    between atoms: C_10  and  C_13
REMARK    9  A    between atoms: C_14  and  C_22
REMARK                            x       y       z     vdW  Elec       q    Type
REMARK                         _______ _______ _______ _____ _____    ______ ____
ROOT
ATOM      4  C   UNL     1      -7.206 -11.861  17.011  0.00  0.00    +0.001 C 
ATOM      5  C   UNL     1      -5.999 -12.600  16.412  0.00  0.00    +0.012 C 
ATOM      6  C   UNL     1      -4.666 -12.127  17.023  0.00  0.00    +0.023 C 
ATOM      7  C   UNL     1      -7.264 -12.075  18.544  0.00  0.00    +0.040 C 
ATOM      9  C   UNL     1      -4.733 -12.055  18.534  0.00  0.00    -0.073 C 
ATOM     11  C   UNL     1      -5.903 -12.046  19.197  0.00  0.00    -0.022 C 
ATOM     21  C   UNL     1      -3.422 -12.039  19.270  0.00  0.00    +0.039 C 
ENDROOT
BRANCH   4   8
ATOM      8  C   UNL     1      -8.492 -12.326  16.321  0.00  0.00    -0.013 C 
ATOM     15  C   UNL     1      -8.381 -12.148  14.810  0.00  0.00    +0.007 C 
ATOM     16  C   UNL     1      -8.790 -13.779  16.676  0.00  0.00    +0.007 C 
ENDBRANCH   4   8
BRANCH   6  10
ATOM     10  C   UNL     1      -4.231 -10.784  16.427  0.00  0.00    +0.103 C 
BRANCH  10  13
ATOM      2  O   UNL     1      -1.873 -10.920  16.229  0.00  0.00    -0.276 OA
ATOM      3  N   UNL     1      -3.094 -11.157  14.267  0.00  0.00    -0.301 N 
ATOM     13  C   UNL     1      -2.957 -10.960  15.640  0.00  0.00    +0.216 C 
ATOM     14  C   UNL     1      -3.156 -10.418  11.462  0.00  0.00    -0.011 C 
ATOM     17  C   UNL     1      -4.367 -11.210  13.537  0.00  0.00    +0.108 C 
ATOM     18  C   UNL     1      -1.906 -11.375  13.439  0.00  0.00    +0.108 C 
ATOM     19  C   UNL     1      -4.369 -10.212  12.381  0.00  0.00    +0.022 C 
ATOM     20  C   UNL     1      -1.857 -10.380  12.282  0.00  0.00    +0.022 C 
ATOM     22  C   UNL     1      -3.130  -9.368  10.353  0.00  0.00    +0.007 C 
ENDBRANCH  10  13
ENDBRANCH   6  10
BRANCH   7  12
ATOM     12  C   UNL     1      -8.174 -11.037  19.213  0.00  0.00    +0.163 C 
BRANCH  12   1
ATOM      1  O   UNL     1      -7.365 -10.163  19.974  0.00  0.00    -0.394 OA
ATOM     23  H   UNL     1      -7.458 -10.423  20.906  0.00  0.00    +0.209 HD
ENDBRANCH  12   1
ENDBRANCH   7  12
TORSDOF 5
ENDMDL
MODEL 4
REMARK VINA RESULT:      -5.5     15.993     19.018
REMARK  Name = 38030151
REMARK  9 active torsions:
REMARK  status: ('A' for Active; 'I' for Inactive)
REMARK    1  A    between atoms: O_1  and  C_12
REMARK    2  A    between atoms: C_4  and  C_8
REMARK    3  A    between atoms: C_6  and  C_10
REMARK    4  A    between atoms: C_7  and  C_12
REMARK    5  A    between atoms: C_8  and  C_15
REMARK    6  A    between atoms: C_8  and  C_16
REMARK    7  A    between atoms: C_9  and  C_21
REMARK    8  A    between atoms: C_10  and  C_13
REMARK    9  A    between atoms: C_14  and  C_22
REMARK                            x       y       z     vdW  Elec       q    Type
REMARK                         _______ _______ _______ _____ _____    ______ ____
ROOT
ATOM      4  C   UNL     1       9.053   8.581   5.914  0.00  0.00    +0.001 C 
ATOM      5  C   UNL     1       8.541   7.283   5.271  0.00  0.00    +0.012 C 
ATOM      6  C   UNL     1       9.305   6.043   5.773  0.00  0.00    +0.023 C 
ATOM      7  C   UNL     1       8.916   8.510   7.456  0.00  0.00    +0.040 C 
ATOM      9  C   UNL     1       9.445   6.041   7.282  0.00  0.00    -0.073 C 
ATOM     11  C   UNL     1       9.254   7.150   8.018  0.00  0.00    -0.022 C 
ATOM     21  C   UNL     1       9.766   4.723   7.930  0.00  0.00    +0.039 C 
ENDROOT
BRANCH   4   8
ATOM      8  C   UNL     1       8.300   9.781   5.330  0.00  0.00    -0.013 C 
ATOM     15  C   UNL     1       9.280  10.785   4.732  0.00  0.00    +0.007 C 
ATOM     16  C   UNL     1       7.292   9.318   4.283  0.00  0.00    +0.007 C 
ENDBRANCH   4   8
BRANCH   6  10
ATOM     10  C   UNL     1      10.674   5.926   5.094  0.00  0.00    +0.103 C 
BRANCH  10  13
ATOM      2  O   UNL     1      10.165   3.659   4.630  0.00  0.00    -0.276 OA
ATOM      3  N   UNL     1      11.393   4.796   3.019  0.00  0.00    -0.301 N 
ATOM     13  C   UNL     1      10.715   4.689   4.233  0.00  0.00    +0.216 C 
ATOM     14  C   UNL     1      13.621   4.535   1.179  0.00  0.00    -0.011 C 
ATOM     17  C   UNL     1      12.057   6.005   2.519  0.00  0.00    +0.108 C 
ATOM     18  C   UNL     1      11.443   3.650   2.110  0.00  0.00    +0.108 C 
ATOM     19  C   UNL     1      13.513   5.713   2.158  0.00  0.00    +0.022 C 
ATOM     20  C   UNL     1      12.885   3.308   1.742  0.00  0.00    +0.022 C 
ATOM     22  C   UNL     1      15.082   4.205   0.885  0.00  0.00    +0.007 C 
ENDBRANCH  10  13
ENDBRANCH   6  10
BRANCH   7  12
ATOM     12  C   UNL     1       9.783   9.576   8.137  0.00  0.00    +0.163 C 
BRANCH  12   1
ATOM      1  O   UNL     1      11.108   9.439   7.663  0.00  0.00    -0.394 OA
ATOM     23  H   UNL     1      11.090   9.613   6.706  0.00  0.00    +0.209 HD
ENDBRANCH  12   1
ENDBRANCH   7  12
TORSDOF 5
ENDMDL
MODEL 5
REMARK VINA RESULT:      -5.1     10.492     13.130
REMARK  Name = 38030151
REMARK  9 active torsions:
REMARK  status: ('A' for Active; 'I' for Inactive)
REMARK    1  A    between atoms: O_1  and  C_12
REMARK    2  A    between atoms: C_4  and  C_8
REMARK    3  A    between atoms: C_6  and  C_10
REMARK    4  A    between atoms: C_7  and  C_12
REMARK    5  A    between atoms: C_8  and  C_15
REMARK    6  A    between atoms: C_8  and  C_16
REMARK    7  A    between atoms: C_9  and  C_21
REMARK    8  A    between atoms: C_10  and  C_13
REMARK    9  A    between atoms: C_14  and  C_22
REMARK                            x       y       z     vdW  Elec       q    Type
REMARK                         _______ _______ _______ _____ _____    ______ ____
ROOT
ATOM      4  C   UNL     1      18.249  -4.034  23.771  0.00  0.00    +0.001 C 
ATOM      5  C   UNL     1      19.256  -3.052  24.390  0.00  0.00    +0.012 C 
ATOM      6  C   UNL     1      20.398  -3.778  25.126  0.00  0.00    +0.023 C 
ATOM      7  C   UNL     1      18.960  -4.975  22.767  0.00  0.00    +0.040 C 
ATOM      9  C   UNL     1      20.976  -4.905  24.296  0.00  0.00    -0.073 C 
ATOM     11  C   UNL     1      20.326  -5.419  23.238  0.00  0.00    -0.022 C 
ATOM     21  C   UNL     1      22.342  -5.400  24.684  0.00  0.00    +0.039 C 
ENDROOT
BRANCH   4   8
ATOM      8  C   UNL     1      17.107  -3.256  23.110  0.00  0.00    -0.013 C 
ATOM     15  C   UNL     1      16.031  -2.915  24.137  0.00  0.00    +0.007 C 
ATOM     16  C   UNL     1      17.640  -1.992  22.443  0.00  0.00    +0.007 C 
ENDBRANCH   4   8
BRANCH   6  10
ATOM     10  C   UNL     1      19.939  -4.284  26.498  0.00  0.00    +0.103 C 
BRANCH  10  13
ATOM      2  O   UNL     1      21.595  -3.308  27.882  0.00  0.00    -0.276 OA
ATOM      3  N   UNL     1      19.421  -2.543  28.171  0.00  0.00    -0.301 N 
ATOM     13  C   UNL     1      20.401  -3.337  27.576  0.00  0.00    +0.216 C 
ATOM     14  C   UNL     1      17.474  -1.769  30.178  0.00  0.00    -0.011 C 
ATOM     17  C   UNL     1      17.993  -2.554  27.830  0.00  0.00    +0.108 C 
ATOM     18  C   UNL     1      19.796  -1.571  29.199  0.00  0.00    +0.108 C 
ATOM     19  C   UNL     1      17.141  -2.786  29.076  0.00  0.00    +0.022 C 
ATOM     20  C   UNL     1      18.983  -1.783  30.473  0.00  0.00    +0.022 C 
ATOM     22  C   UNL     1      16.670  -2.056  31.444  0.00  0.00    +0.007 C 
ENDBRANCH  10  13
ENDBRANCH   6  10
BRANCH   7  12
ATOM     12  C   UNL     1      18.100  -6.208  22.461  0.00  0.00    +0.163 C 
BRANCH  12   1
ATOM      1  O   UNL     1      18.093  -7.039  23.604  0.00  0.00    -0.394 OA
ATOM     23  H   UNL     1      18.081  -7.959  23.291  0.00  0.00    +0.209 HD
ENDBRANCH  12   1
ENDBRANCH   7  12
TORSDOF 5
ENDMDL
MODEL 6
REMARK VINA RESULT:      -5.1     28.340     30.244
REMARK  Name = 38030151
REMARK  9 active torsions:
REMARK  status: ('A' for Active; 'I' for Inactive)
REMARK    1  A    between atoms: O_1  and  C_12
REMARK    2  A    between atoms: C_4  and  C_8
REMARK    3  A    between atoms: C_6  and  C_10
REMARK    4  A    between atoms: C_7  and  C_12
REMARK    5  A    between atoms: C_8  and  C_15
REMARK    6  A    between atoms: C_8  and  C_16
REMARK    7  A    between atoms: C_9  and  C_21
REMARK    8  A    between atoms: C_10  and  C_13
REMARK    9  A    between atoms: C_14  and  C_22
REMARK                            x       y       z     vdW  Elec       q    Type
REMARK                         _______ _______ _______ _____ _____    ______ ____
ROOT
ATOM      4  C   UNL     1      -3.903 -10.899  11.447  0.00  0.00    +0.001 C 
ATOM      5  C   UNL     1      -3.060 -10.502  12.669  0.00  0.00    +0.012 C 
ATOM      6  C   UNL     1      -3.067 -11.592  13.758  0.00  0.00    +0.023 C 
ATOM      7  C   UNL     1      -3.370 -12.215  10.828  0.00  0.00    +0.040 C 
ATOM      9  C   UNL     1      -2.812 -12.968  13.179  0.00  0.00    -0.073 C 
ATOM     11  C   UNL     1      -2.940 -13.225  11.866  0.00  0.00    -0.022 C 
ATOM     21  C   UNL     1      -2.363 -14.034  14.140  0.00  0.00    +0.039 C 
ENDROOT
BRANCH   4   8
ATOM      8  C   UNL     1      -3.911  -9.754  10.429  0.00  0.00    -0.013 C 
ATOM     15  C   UNL     1      -4.985  -8.731  10.786  0.00  0.00    +0.007 C 
ATOM     16  C   UNL     1      -2.537  -9.095  10.359  0.00  0.00    +0.007 C 
ENDBRANCH   4   8
BRANCH   6  10
ATOM     10  C   UNL     1      -4.373 -11.566  14.559  0.00  0.00    +0.103 C 
BRANCH  10  13
ATOM      2  O   UNL     1      -2.916 -11.105  16.370  0.00  0.00    -0.276 OA
ATOM      3  N   UNL     1      -5.192 -11.031  16.827  0.00  0.00    -0.301 N 
ATOM     13  C   UNL     1      -4.087 -11.213  15.997  0.00  0.00    +0.216 C 
ATOM     14  C   UNL     1      -7.195 -11.761  18.796  0.00  0.00    -0.011 C 
ATOM     17  C   UNL     1      -6.595 -11.151  16.414  0.00  0.00    +0.108 C 
ATOM     18  C   UNL     1      -4.997 -10.648  18.226  0.00  0.00    +0.108 C 
ATOM     19  C   UNL     1      -7.341 -12.135  17.313  0.00  0.00    +0.022 C 
ATOM     20  C   UNL     1      -5.708 -11.622  19.163  0.00  0.00    +0.022 C 
ATOM     22  C   UNL     1      -7.881 -12.792  19.688  0.00  0.00    +0.007 C 
ENDBRANCH  10  13
ENDBRANCH   6  10
BRANCH   7  12
ATOM     12  C   UNL     1      -4.412 -12.850   9.899  0.00  0.00    +0.163 C 
BRANCH  12   1
ATOM      1  O   UNL     1      -3.755 -13.275   8.721  0.00  0.00    -0.394 OA
ATOM     23  H   UNL     1      -4.282 -14.000   8.343  0.00  0.00    +0.209 HD
ENDBRANCH  12   1
ENDBRANCH   7  12
TORSDOF 5
ENDMDL
MODEL 7
REMARK VINA RESULT:      -5.1     27.321     30.148
REMARK  Name = 38030151
REMARK  9 active torsions:
REMARK  status: ('A' for Active; 'I' for Inactive)
REMARK    1  A    between atoms: O_1  and  C_12
REMARK    2  A    between atoms: C_4  and  C_8
REMARK    3  A    between atoms: C_6  and  C_10
REMARK    4  A    between atoms: C_7  and  C_12
REMARK    5  A    between atoms: C_8  and  C_15
REMARK    6  A    between atoms: C_8  and  C_16
REMARK    7  A    between atoms: C_9  and  C_21
REMARK    8  A    between atoms: C_10  and  C_13
REMARK    9  A    between atoms: C_14  and  C_22
REMARK                            x       y       z     vdW  Elec       q    Type
REMARK                         _______ _______ _______ _____ _____    ______ ____
ROOT
ATOM      4  C   UNL     1      -4.079 -10.627  15.040  0.00  0.00    +0.001 C 
ATOM      5  C   UNL     1      -5.265 -11.052  14.159  0.00  0.00    +0.012 C 
ATOM      6  C   UNL     1      -4.931 -10.975  12.657  0.00  0.00    +0.023 C 
ATOM      7  C   UNL     1      -2.850 -11.528  14.762  0.00  0.00    +0.040 C 
ATOM      9  C   UNL     1      -3.593 -11.612  12.344  0.00  0.00    -0.073 C 
ATOM     11  C   UNL     1      -2.681 -11.864  13.299  0.00  0.00    -0.022 C 
ATOM     21  C   UNL     1      -3.345 -11.995  10.912  0.00  0.00    +0.039 C 
ENDROOT
BRANCH   4   8
ATOM      8  C   UNL     1      -4.490 -10.663  16.515  0.00  0.00    -0.013 C 
ATOM     15  C   UNL     1      -5.768  -9.859  16.732  0.00  0.00    +0.007 C 
ATOM     16  C   UNL     1      -4.671 -12.104  16.982  0.00  0.00    +0.007 C 
ENDBRANCH   4   8
BRANCH   6  10
ATOM     10  C   UNL     1      -4.982  -9.528  12.154  0.00  0.00    +0.103 C 
BRANCH  10  13
ATOM      2  O   UNL     1      -7.334  -9.368  11.911  0.00  0.00    -0.276 OA
ATOM      3  N   UNL     1      -6.069  -9.054   9.987  0.00  0.00    -0.301 N 
ATOM     13  C   UNL     1      -6.238  -9.310  11.347  0.00  0.00    +0.216 C 
ATOM     14  C   UNL     1      -5.950  -9.671   7.155  0.00  0.00    -0.011 C 
ATOM     17  C   UNL     1      -4.781  -8.978   9.289  0.00  0.00    +0.108 C 
ATOM     18  C   UNL     1      -7.238  -8.793   9.145  0.00  0.00    +0.108 C 
ATOM     19  C   UNL     1      -4.759  -9.925   8.090  0.00  0.00    +0.022 C 
ATOM     20  C   UNL     1      -7.267  -9.736   7.945  0.00  0.00    +0.022 C 
ATOM     22  C   UNL     1      -5.959 -10.671   6.001  0.00  0.00    +0.007 C 
ENDBRANCH  10  13
ENDBRANCH   6  10
BRANCH   7  12
ATOM     12  C   UNL     1      -1.562 -10.884  15.290  0.00  0.00    +0.163 C 
BRANCH  12   1
ATOM      1  O   UNL     1      -1.409  -9.624  14.668  0.00  0.00    -0.394 OA
ATOM     23  H   UNL     1      -1.984  -8.998  15.140  0.00  0.00    +0.209 HD
ENDBRANCH  12   1
ENDBRANCH   7  12
TORSDOF 5
ENDMDL
MODEL 8
REMARK VINA RESULT:      -5.1     28.352     32.140
REMARK  Name = 38030151
REMARK  9 active torsions:
REMARK  status: ('A' for Active; 'I' for Inactive)
REMARK    1  A    between atoms: O_1  and  C_12
REMARK    2  A    between atoms: C_4  and  C_8
REMARK    3  A    between atoms: C_6  and  C_10
REMARK    4  A    between atoms: C_7  and  C_12
REMARK    5  A    between atoms: C_8  and  C_15
REMARK    6  A    between atoms: C_8  and  C_16
REMARK    7  A    between atoms: C_9  and  C_21
REMARK    8  A    between atoms: C_10  and  C_13
REMARK    9  A    between atoms: C_14  and  C_22
REMARK                            x       y       z     vdW  Elec       q    Type
REMARK                         _______ _______ _______ _____ _____    ______ ____
ROOT
ATOM      4  C   UNL     1     -10.429  -8.919  15.618  0.00  0.00    +0.001 C 
ATOM      5  C   UNL     1      -9.917 -10.280  16.116  0.00  0.00    +0.012 C 
ATOM      6  C   UNL     1      -9.677 -10.290  17.637  0.00  0.00    +0.023 C 
ATOM      7  C   UNL     1     -11.756  -8.549  16.328  0.00  0.00    +0.040 C 
ATOM      9  C   UNL     1     -10.842  -9.688  18.395  0.00  0.00    -0.073 C 
ATOM     11  C   UNL     1     -11.768  -8.924  17.791  0.00  0.00    -0.022 C 
ATOM     21  C   UNL     1     -10.943 -10.021  19.858  0.00  0.00    +0.039 C 
ENDROOT
BRANCH   4   8
ATOM      8  C   UNL     1     -10.588  -8.951  14.095  0.00  0.00    -0.013 C 
ATOM     15  C   UNL     1      -9.366  -9.592  13.445  0.00  0.00    +0.007 C 
ATOM     16  C   UNL     1     -11.861  -9.696  13.708  0.00  0.00    +0.007 C 
ENDBRANCH   4   8
BRANCH   6  10
ATOM     10  C   UNL     1      -8.364  -9.584  17.995  0.00  0.00    +0.103 C 
BRANCH  10  13
ATOM      2  O   UNL     1      -7.522 -10.881  19.790  0.00  0.00    -0.276 OA
ATOM      3  N   UNL     1      -6.409 -11.074  17.760  0.00  0.00    -0.301 N 
ATOM     13  C   UNL     1      -7.400 -10.571  18.603  0.00  0.00    +0.216 C 
ATOM     14  C   UNL     1      -3.774 -11.262  16.561  0.00  0.00    -0.011 C 
ATOM     17  C   UNL     1      -6.237 -10.726  16.345  0.00  0.00    +0.108 C 
ATOM     18  C   UNL     1      -5.458 -12.066  18.266  0.00  0.00    +0.108 C 
ATOM     19  C   UNL     1      -4.813 -10.241  16.076  0.00  0.00    +0.022 C 
ATOM     20  C   UNL     1      -4.020 -11.609  18.038  0.00  0.00    +0.022 C 
ATOM     22  C   UNL     1      -2.356 -10.734  16.355  0.00  0.00    +0.007 C 
ENDBRANCH  10  13
ENDBRANCH   6  10
BRANCH   7  12
ATOM     12  C   UNL     1     -12.063  -7.054  16.180  0.00  0.00    +0.163 C 
BRANCH  12   1
ATOM      1  O   UNL     1     -10.980  -6.323  16.720  0.00  0.00    -0.394 OA
ATOM     23  H   UNL     1     -10.350  -6.166  15.997  0.00  0.00    +0.209 HD
ENDBRANCH  12   1
ENDBRANCH   7  12
TORSDOF 5
ENDMDL
MODEL 9
REMARK VINA RESULT:      -5.0     15.331     18.161
REMARK  Name = 38030151
REMARK  9 active torsions:
REMARK  status: ('A' for Active; 'I' for Inactive)
REMARK    1  A    between atoms: O_1  and  C_12
REMARK    2  A    between atoms: C_4  and  C_8
REMARK    3  A    between atoms: C_6  and  C_10
REMARK    4  A    between atoms: C_7  and  C_12
REMARK    5  A    between atoms: C_8  and  C_15
REMARK    6  A    between atoms: C_8  and  C_16
REMARK    7  A    between atoms: C_9  and  C_21
REMARK    8  A    between atoms: C_10  and  C_13
REMARK    9  A    between atoms: C_14  and  C_22
REMARK                            x       y       z     vdW  Elec       q    Type
REMARK                         _______ _______ _______ _____ _____    ______ ____
ROOT
ATOM      4  C   UNL     1      10.001   7.063   4.158  0.00  0.00    +0.001 C 
ATOM      5  C   UNL     1      10.796   6.075   5.026  0.00  0.00    +0.012 C 
ATOM      6  C   UNL     1      10.686   6.402   6.528  0.00  0.00    +0.023 C 
ATOM      7  C   UNL     1       8.504   7.048   4.555  0.00  0.00    +0.040 C 
ATOM      9  C   UNL     1       9.253   6.666   6.943  0.00  0.00    -0.073 C 
ATOM     11  C   UNL     1       8.289   6.940   6.047  0.00  0.00    -0.022 C 
ATOM     21  C   UNL     1       8.944   6.564   8.411  0.00  0.00    +0.039 C 
ENDROOT
BRANCH   4   8
ATOM      8  C   UNL     1      10.200   6.726   2.676  0.00  0.00    -0.013 C 
ATOM     15  C   UNL     1      11.284   7.612   2.070  0.00  0.00    +0.007 C 
ATOM     16  C   UNL     1      10.548   5.251   2.508  0.00  0.00    +0.007 C 
ENDBRANCH   4   8
BRANCH   6  10
ATOM     10  C   UNL     1      11.593   7.578   6.906  0.00  0.00    +0.103 C 
BRANCH  10  13
ATOM      2  O   UNL     1      13.446   6.240   7.530  0.00  0.00    -0.276 OA
ATOM      3  N   UNL     1      13.837   7.862   5.913  0.00  0.00    -0.301 N 
ATOM     13  C   UNL     1      13.039   7.160   6.816  0.00  0.00    +0.216 C 
ATOM     14  C   UNL     1      15.745   9.866   5.042  0.00  0.00    -0.011 C 
ATOM     17  C   UNL     1      13.383   8.959   5.051  0.00  0.00    +0.108 C 
ATOM     18  C   UNL     1      15.242   7.489   5.740  0.00  0.00    +0.108 C 
ATOM     19  C   UNL     1      14.259  10.196   5.243  0.00  0.00    +0.022 C 
ATOM     20  C   UNL     1      16.156   8.695   5.949  0.00  0.00    +0.022 C 
ATOM     22  C   UNL     1      16.615  11.092   5.310  0.00  0.00    +0.007 C 
ENDBRANCH  10  13
ENDBRANCH   6  10
BRANCH   7  12
ATOM     12  C   UNL     1       7.778   8.289   4.023  0.00  0.00    +0.163 C 
BRANCH  12   1
ATOM      1  O   UNL     1       7.218   8.981   5.122  0.00  0.00    -0.394 OA
ATOM     23  H   UNL     1       6.320   9.252   4.864  0.00  0.00    +0.209 HD
ENDBRANCH  12   1
ENDBRANCH   7  12
TORSDOF 5
ENDMDL
MODEL 10
REMARK VINA RESULT:      -5.0     15.441     17.885
REMARK  Name = 38030151
REMARK  9 active torsions:
REMARK  status: ('A' for Active; 'I' for Inactive)
REMARK    1  A    between atoms: O_1  and  C_12
REMARK    2  A    between atoms: C_4  and  C_8
REMARK    3  A    between atoms: C_6  and  C_10
REMARK    4  A    between atoms: C_7  and  C_12
REMARK    5  A    between atoms: C_8  and  C_15
REMARK    6  A    between atoms: C_8  and  C_16
REMARK    7  A    between atoms: C_9  and  C_21
REMARK    8  A    between atoms: C_10  and  C_13
REMARK    9  A    between atoms: C_14  and  C_22
REMARK                            x       y       z     vdW  Elec       q    Type
REMARK                         _______ _______ _______ _____ _____    ______ ____
ROOT
ATOM      4  C   UNL     1      10.183   6.995   6.413  0.00  0.00    +0.001 C 
ATOM      5  C   UNL     1      10.189   7.458   4.948  0.00  0.00    +0.012 C 
ATOM      6  C   UNL     1      10.942   6.476   4.031  0.00  0.00    +0.023 C 
ATOM      7  C   UNL     1       9.521   5.600   6.537  0.00  0.00    +0.040 C 
ATOM      9  C   UNL     1      10.531   5.040   4.285  0.00  0.00    -0.073 C 
ATOM     11  C   UNL     1       9.886   4.670   5.404  0.00  0.00    -0.022 C 
ATOM     21  C   UNL     1      10.842   4.045   3.201  0.00  0.00    +0.039 C 
ENDROOT
BRANCH   4   8
ATOM      8  C   UNL     1       9.478   8.040   7.284  0.00  0.00    -0.013 C 
ATOM     15  C   UNL     1      10.459   9.128   7.710  0.00  0.00    +0.007 C 
ATOM     16  C   UNL     1       8.292   8.642   6.537  0.00  0.00    +0.007 C 
ENDBRANCH   4   8
BRANCH   6  10
ATOM     10  C   UNL     1      12.459   6.646   4.166  0.00  0.00    +0.103 C 
BRANCH  10  13
ATOM      2  O   UNL     1      12.485   8.552   2.759  0.00  0.00    -0.276 OA
ATOM      3  N   UNL     1      13.614   8.740   4.781  0.00  0.00    -0.301 N 
ATOM     13  C   UNL     1      12.848   8.064   3.832  0.00  0.00    +0.216 C 
ATOM     14  C   UNL     1      16.031   9.776   6.008  0.00  0.00    -0.011 C 
ATOM     17  C   UNL     1      14.062   8.188   6.065  0.00  0.00    +0.108 C 
ATOM     18  C   UNL     1      13.999  10.133   4.548  0.00  0.00    +0.108 C 
ATOM     19  C   UNL     1      15.576   8.323   6.214  0.00  0.00    +0.022 C 
ATOM     20  C   UNL     1      15.511  10.309   4.664  0.00  0.00    +0.022 C 
ATOM     22  C   UNL     1      17.551   9.886   6.086  0.00  0.00    +0.007 C 
ENDBRANCH  10  13
ENDBRANCH   6  10
BRANCH   7  12
ATOM     12  C   UNL     1       9.871   4.939   7.875  0.00  0.00    +0.163 C 
BRANCH  12   1
ATOM      1  O   UNL     1      10.168   3.578   7.633  0.00  0.00    -0.394 OA
ATOM     23  H   UNL     1      11.109   3.448   7.840  0.00  0.00    +0.209 HD
ENDBRANCH  12   1
ENDBRANCH   7  12
TORSDOF 5
ENDMDL
