MODEL 1
REMARK VINA RESULT:      -6.9      0.000      0.000
REMARK  Name = 75368519
REMARK  7 active torsions:
REMARK  status: ('A' for Active; 'I' for Inactive)
REMARK    1  A    between atoms: O_3  and  C_24
REMARK    2  A    between atoms: N_6  and  C_14
REMARK    3  A    between atoms: C_14  and  C_16
REMARK    4  A    between atoms: C_15  and  C_17
REMARK    5  A    between atoms: C_17  and  C_18
REMARK    6  A    between atoms: C_18  and  C_24
REMARK    7  A    between atoms: C_23  and  C_25
REMARK                            x       y       z     vdW  Elec       q    Type
REMARK                         _______ _______ _______ _____ _____    ______ ____
ROOT
ATOM      1  O   UNL     1      12.122   6.249  20.803  0.00  0.00    -0.252 OA
ATOM      2  O   UNL     1      10.356  11.910  24.447  0.00  0.00    -0.276 OA
ATOM      5  N   UNL     1      12.288   8.388  21.762  0.00  0.00    -0.278 N 
ATOM      6  N   UNL     1      13.794   7.800  20.201  0.00  0.00    -0.279 N 
ATOM      7  N   UNL     1      11.413  10.872  22.659  0.00  0.00    -0.298 N 
ATOM      8  C   UNL     1      13.220   9.499  21.717  0.00  0.00    +0.112 C 
ATOM      9  C   UNL     1      14.105   9.184  20.513  0.00  0.00    +0.133 C 
ATOM     10  C   UNL     1      12.466  10.824  21.627  0.00  0.00    +0.132 C 
ATOM     11  C   UNL     1      11.179   8.413  22.699  0.00  0.00    +0.128 C 
ATOM     12  C   UNL     1      10.458   9.756  22.612  0.00  0.00    +0.127 C 
ATOM     13  C   UNL     1      12.668   7.340  20.912  0.00  0.00    +0.306 C 
ATOM     15  C   UNL     1      11.262  11.880  23.610  0.00  0.00    +0.216 C 
ENDROOT
BRANCH   6  14
ATOM     14  C   UNL     1      14.501   7.070  19.174  0.00  0.00    +0.144 C 
BRANCH  14  16
ATOM     16  C   UNL     1      15.905   6.732  19.588  0.00  0.00    -0.030 A 
ATOM     19  C   UNL     1      16.717   5.973  18.746  0.00  0.00    +0.005 A 
ATOM     20  C   UNL     1      16.395   7.178  20.816  0.00  0.00    +0.005 A 
ATOM     21  C   UNL     1      18.019   5.658  19.133  0.00  0.00    +0.003 A 
ATOM     22  C   UNL     1      17.698   6.863  21.203  0.00  0.00    +0.003 A 
ATOM     23  C   UNL     1      18.510   6.103  20.361  0.00  0.00    -0.050 A 
ATOM     25  C   UNL     1      19.903   5.764  20.773  0.00  0.00    +0.044 C 
ENDBRANCH  14  16
ENDBRANCH   6  14
BRANCH  15  17
ATOM     17  C   UNL     1      12.286  12.985  23.590  0.00  0.00    +0.107 C 
BRANCH  17  18
ATOM     18  C   UNL     1      13.068  12.985  24.889  0.00  0.00    +0.129 C 
BRANCH  18  24
ATOM      4  O   UNL     1      14.908  11.649  24.070  0.00  0.00    -0.251 OA
ATOM     24  C   UNL     1      14.059  11.849  24.929  0.00  0.00    +0.305 C 
BRANCH  24   3
ATOM      3  O   UNL     1      13.895  11.052  26.015  0.00  0.00    -0.481 OA
ATOM     26  H   UNL     1      13.322  10.281  25.820  0.00  0.00    +0.295 HD
ENDBRANCH  24   3
ENDBRANCH  18  24
ENDBRANCH  17  18
ENDBRANCH  15  17
TORSDOF 6
ENDMDL
MODEL 2
REMARK VINA RESULT:      -6.7     16.177     19.584
REMARK  Name = 75368519
REMARK  7 active torsions:
REMARK  status: ('A' for Active; 'I' for Inactive)
REMARK    1  A    between atoms: O_3  and  C_24
REMARK    2  A    between atoms: N_6  and  C_14
REMARK    3  A    between atoms: C_14  and  C_16
REMARK    4  A    between atoms: C_15  and  C_17
REMARK    5  A    between atoms: C_17  and  C_18
REMARK    6  A    between atoms: C_18  and  C_24
REMARK    7  A    between atoms: C_23  and  C_25
REMARK                            x       y       z     vdW  Elec       q    Type
REMARK                         _______ _______ _______ _____ _____    ______ ____
ROOT
ATOM      1  O   UNL     1      11.865   7.994   5.823  0.00  0.00    -0.252 OA
ATOM      2  O   UNL     1      16.549   6.923   0.788  0.00  0.00    -0.276 OA
ATOM      5  N   UNL     1      12.861   7.071   3.906  0.00  0.00    -0.278 N 
ATOM      6  N   UNL     1      10.700   6.608   4.312  0.00  0.00    -0.279 N 
ATOM      7  N   UNL     1      14.363   7.025   1.564  0.00  0.00    -0.298 N 
ATOM      8  C   UNL     1      12.490   6.121   2.872  0.00  0.00    +0.112 C 
ATOM      9  C   UNL     1      10.977   5.983   3.030  0.00  0.00    +0.133 C 
ATOM     10  C   UNL     1      12.946   6.619   1.503  0.00  0.00    +0.132 C 
ATOM     11  C   UNL     1      14.221   7.574   3.968  0.00  0.00    +0.128 C 
ATOM     12  C   UNL     1      14.667   8.039   2.584  0.00  0.00    +0.127 C 
ATOM     13  C   UNL     1      11.817   7.307   4.811  0.00  0.00    +0.306 C 
ATOM     15  C   UNL     1      15.376   6.548   0.733  0.00  0.00    +0.216 C 
ENDROOT
BRANCH   6  14
ATOM     14  C   UNL     1       9.378   6.600   4.897  0.00  0.00    +0.144 C 
BRANCH  14  16
ATOM     16  C   UNL     1       9.390   6.085   6.307  0.00  0.00    -0.030 A 
ATOM     19  C   UNL     1       8.968   6.905   7.353  0.00  0.00    +0.005 A 
ATOM     20  C   UNL     1       9.825   4.786   6.571  0.00  0.00    +0.005 A 
ATOM     21  C   UNL     1       8.982   6.427   8.663  0.00  0.00    +0.003 A 
ATOM     22  C   UNL     1       9.838   4.307   7.881  0.00  0.00    +0.003 A 
ATOM     23  C   UNL     1       9.416   5.128   8.927  0.00  0.00    -0.050 A 
ATOM     25  C   UNL     1       9.431   4.618  10.329  0.00  0.00    +0.044 C 
ENDBRANCH  14  16
ENDBRANCH   6  14
BRANCH  15  17
ATOM     17  C   UNL     1      14.979   5.508  -0.283  0.00  0.00    +0.107 C 
BRANCH  17  18
ATOM     18  C   UNL     1      15.590   4.170   0.084  0.00  0.00    +0.129 C 
BRANCH  18  24
ATOM      4  O   UNL     1      13.612   3.231   1.106  0.00  0.00    -0.251 OA
ATOM     24  C   UNL     1      14.805   3.494   1.180  0.00  0.00    +0.305 C 
BRANCH  24   3
ATOM      3  O   UNL     1      15.561   3.227   2.274  0.00  0.00    -0.481 OA
ATOM     26  H   UNL     1      15.315   3.793   3.036  0.00  0.00    +0.295 HD
ENDBRANCH  24   3
ENDBRANCH  18  24
ENDBRANCH  17  18
ENDBRANCH  15  17
TORSDOF 6
ENDMDL
MODEL 3
REMARK VINA RESULT:      -6.7      1.446      2.214
REMARK  Name = 75368519
REMARK  7 active torsions:
REMARK  status: ('A' for Active; 'I' for Inactive)
REMARK    1  A    between atoms: O_3  and  C_24
REMARK    2  A    between atoms: N_6  and  C_14
REMARK    3  A    between atoms: C_14  and  C_16
REMARK    4  A    between atoms: C_15  and  C_17
REMARK    5  A    between atoms: C_17  and  C_18
REMARK    6  A    between atoms: C_18  and  C_24
REMARK    7  A    between atoms: C_23  and  C_25
REMARK                            x       y       z     vdW  Elec       q    Type
REMARK                         _______ _______ _______ _____ _____    ______ ____
ROOT
ATOM      1  O   UNL     1      12.382   6.335  20.756  0.00  0.00    -0.252 OA
ATOM      2  O   UNL     1      10.239  11.928  24.301  0.00  0.00    -0.276 OA
ATOM      5  N   UNL     1      12.384   8.511  21.642  0.00  0.00    -0.278 N 
ATOM      6  N   UNL     1      13.875   8.013  20.037  0.00  0.00    -0.279 N 
ATOM      7  N   UNL     1      11.317  10.933  22.501  0.00  0.00    -0.298 N 
ATOM      8  C   UNL     1      13.206   9.702  21.525  0.00  0.00    +0.112 C 
ATOM      9  C   UNL     1      14.067   9.430  20.294  0.00  0.00    +0.133 C 
ATOM     10  C   UNL     1      12.328  10.947  21.427  0.00  0.00    +0.132 C 
ATOM     11  C   UNL     1      11.316   8.466  22.624  0.00  0.00    +0.128 C 
ATOM     12  C   UNL     1      10.469   9.732  22.529  0.00  0.00    +0.127 C 
ATOM     13  C   UNL     1      12.827   7.475  20.809  0.00  0.00    +0.306 C 
ATOM     15  C   UNL     1      11.109  11.954  23.428  0.00  0.00    +0.216 C 
ENDROOT
BRANCH   6  14
ATOM     14  C   UNL     1      14.607   7.317  19.003  0.00  0.00    +0.144 C 
BRANCH  14  16
ATOM     16  C   UNL     1      15.985   6.927  19.453  0.00  0.00    -0.030 A 
ATOM     19  C   UNL     1      16.708   5.972  18.739  0.00  0.00    +0.005 A 
ATOM     20  C   UNL     1      16.541   7.520  20.587  0.00  0.00    +0.005 A 
ATOM     21  C   UNL     1      17.987   5.609  19.160  0.00  0.00    +0.003 A 
ATOM     22  C   UNL     1      17.821   7.157  21.008  0.00  0.00    +0.003 A 
ATOM     23  C   UNL     1      18.544   6.202  20.294  0.00  0.00    -0.050 A 
ATOM     25  C   UNL     1      19.912   5.811  20.743  0.00  0.00    +0.044 C 
ENDBRANCH  14  16
ENDBRANCH   6  14
BRANCH  15  17
ATOM     17  C   UNL     1      12.024  13.148  23.331  0.00  0.00    +0.107 C 
BRANCH  17  18
ATOM     18  C   UNL     1      11.204  14.415  23.194  0.00  0.00    +0.129 C 
BRANCH  18  24
ATOM      4  O   UNL     1      10.630  14.338  20.847  0.00  0.00    -0.251 OA
ATOM     24  C   UNL     1      10.265  14.333  22.016  0.00  0.00    +0.305 C 
BRANCH  24   3
ATOM      3  O   UNL     1       8.963  14.276  22.390  0.00  0.00    -0.481 OA
ATOM     26  H   UNL     1       8.434  14.999  21.990  0.00  0.00    +0.295 HD
ENDBRANCH  24   3
ENDBRANCH  18  24
ENDBRANCH  17  18
ENDBRANCH  15  17
TORSDOF 6
ENDMDL
MODEL 4
REMARK VINA RESULT:      -6.6     14.152     16.526
REMARK  Name = 75368519
REMARK  7 active torsions:
REMARK  status: ('A' for Active; 'I' for Inactive)
REMARK    1  A    between atoms: O_3  and  C_24
REMARK    2  A    between atoms: N_6  and  C_14
REMARK    3  A    between atoms: C_14  and  C_16
REMARK    4  A    between atoms: C_15  and  C_17
REMARK    5  A    between atoms: C_17  and  C_18
REMARK    6  A    between atoms: C_18  and  C_24
REMARK    7  A    between atoms: C_23  and  C_25
REMARK                            x       y       z     vdW  Elec       q    Type
REMARK                         _______ _______ _______ _____ _____    ______ ____
ROOT
ATOM      1  O   UNL     1      14.902   8.500   2.955  0.00  0.00    -0.252 OA
ATOM      2  O   UNL     1       9.644   5.115   6.013  0.00  0.00    -0.276 OA
ATOM      5  N   UNL     1      13.620   7.501   4.653  0.00  0.00    -0.278 N 
ATOM      6  N   UNL     1      15.346   8.809   5.251  0.00  0.00    -0.279 N 
ATOM      7  N   UNL     1      11.318   6.725   6.010  0.00  0.00    -0.298 N 
ATOM      8  C   UNL     1      13.684   7.383   6.098  0.00  0.00    +0.112 C 
ATOM      9  C   UNL     1      14.713   8.435   6.504  0.00  0.00    +0.133 C 
ATOM     10  C   UNL     1      12.298   7.577   6.710  0.00  0.00    +0.132 C 
ATOM     11  C   UNL     1      12.621   6.752   3.912  0.00  0.00    +0.128 C 
ATOM     12  C   UNL     1      11.250   6.936   4.556  0.00  0.00    +0.127 C 
ATOM     13  C   UNL     1      14.655   8.292   4.137  0.00  0.00    +0.306 C 
ATOM     15  C   UNL     1      10.474   5.797   6.619  0.00  0.00    +0.216 C 
ENDROOT
BRANCH   6  14
ATOM     14  C   UNL     1      16.468   9.720   5.202  0.00  0.00    +0.144 C 
BRANCH  14  16
ATOM     16  C   UNL     1      17.782   8.993   5.179  0.00  0.00    -0.030 A 
ATOM     19  C   UNL     1      18.544   8.894   6.343  0.00  0.00    +0.005 A 
ATOM     20  C   UNL     1      18.240   8.420   3.993  0.00  0.00    +0.005 A 
ATOM     21  C   UNL     1      19.765   8.221   6.320  0.00  0.00    +0.003 A 
ATOM     22  C   UNL     1      19.462   7.747   3.970  0.00  0.00    +0.003 A 
ATOM     23  C   UNL     1      20.224   7.647   5.134  0.00  0.00    -0.050 A 
ATOM     25  C   UNL     1      21.531   6.929   5.111  0.00  0.00    +0.044 C 
ENDBRANCH  14  16
ENDBRANCH   6  14
BRANCH  15  17
ATOM     17  C   UNL     1      10.611   5.641   8.112  0.00  0.00    +0.107 C 
BRANCH  17  18
ATOM     18  C   UNL     1       9.241   5.488   8.742  0.00  0.00    +0.129 C 
BRANCH  18  24
ATOM      4  O   UNL     1      10.389   4.556  10.653  0.00  0.00    -0.251 OA
ATOM     24  C   UNL     1       9.342   4.926  10.137  0.00  0.00    +0.305 C 
BRANCH  24   3
ATOM      3  O   UNL     1       8.139   4.851  10.759  0.00  0.00    -0.481 OA
ATOM     26  H   UNL     1       8.088   5.449  11.534  0.00  0.00    +0.295 HD
ENDBRANCH  24   3
ENDBRANCH  18  24
ENDBRANCH  17  18
ENDBRANCH  15  17
TORSDOF 6
ENDMDL
MODEL 5
REMARK VINA RESULT:      -6.6      5.060      6.732
REMARK  Name = 75368519
REMARK  7 active torsions:
REMARK  status: ('A' for Active; 'I' for Inactive)
REMARK    1  A    between atoms: O_3  and  C_24
REMARK    2  A    between atoms: N_6  and  C_14
REMARK    3  A    between atoms: C_14  and  C_16
REMARK    4  A    between atoms: C_15  and  C_17
REMARK    5  A    between atoms: C_17  and  C_18
REMARK    6  A    between atoms: C_18  and  C_24
REMARK    7  A    between atoms: C_23  and  C_25
REMARK                            x       y       z     vdW  Elec       q    Type
REMARK                         _______ _______ _______ _____ _____    ______ ____
ROOT
ATOM      1  O   UNL     1      11.963   7.134  19.022  0.00  0.00    -0.252 OA
ATOM      2  O   UNL     1      12.639  11.681  13.795  0.00  0.00    -0.276 OA
ATOM      5  N   UNL     1      12.785   8.952  17.781  0.00  0.00    -0.278 N 
ATOM      6  N   UNL     1      13.961   8.264  19.567  0.00  0.00    -0.279 N 
ATOM      7  N   UNL     1      13.518  10.389  15.513  0.00  0.00    -0.298 N 
ATOM      8  C   UNL     1      13.866   9.914  17.899  0.00  0.00    +0.112 C 
ATOM      9  C   UNL     1      14.770   9.315  18.974  0.00  0.00    +0.133 C 
ATOM     10  C   UNL     1      14.539  10.127  16.545  0.00  0.00    +0.132 C 
ATOM     11  C   UNL     1      11.793   9.108  16.732  0.00  0.00    +0.128 C 
ATOM     12  C   UNL     1      12.487   9.348  15.393  0.00  0.00    +0.127 C 
ATOM     13  C   UNL     1      12.795   8.010  18.817  0.00  0.00    +0.306 C 
ATOM     15  C   UNL     1      13.491  11.497  14.668  0.00  0.00    +0.216 C 
ENDROOT
BRANCH   6  14
ATOM     14  C   UNL     1      14.412   7.505  20.712  0.00  0.00    +0.144 C 
BRANCH  14  16
ATOM     16  C   UNL     1      15.880   7.197  20.640  0.00  0.00    -0.030 A 
ATOM     19  C   UNL     1      16.769   7.830  21.507  0.00  0.00    +0.005 A 
ATOM     20  C   UNL     1      16.354   6.278  19.702  0.00  0.00    +0.005 A 
ATOM     21  C   UNL     1      18.132   7.545  21.437  0.00  0.00    +0.003 A 
ATOM     22  C   UNL     1      17.718   5.993  19.633  0.00  0.00    +0.003 A 
ATOM     23  C   UNL     1      18.607   6.626  20.501  0.00  0.00    -0.050 A 
ATOM     25  C   UNL     1      20.065   6.324  20.428  0.00  0.00    +0.044 C 
ENDBRANCH  14  16
ENDBRANCH   6  14
BRANCH  15  17
ATOM     17  C   UNL     1      14.584  12.518  14.860  0.00  0.00    +0.107 C 
BRANCH  17  18
ATOM     18  C   UNL     1      15.112  12.967  13.512  0.00  0.00    +0.129 C 
BRANCH  18  24
ATOM      4  O   UNL     1      17.406  12.280  13.190  0.00  0.00    -0.251 OA
ATOM     24  C   UNL     1      16.213  12.058  13.028  0.00  0.00    +0.305 C 
BRANCH  24   3
ATOM      3  O   UNL     1      15.741  10.971  12.367  0.00  0.00    -0.481 OA
ATOM     26  H   UNL     1      16.209  10.826  11.518  0.00  0.00    +0.295 HD
ENDBRANCH  24   3
ENDBRANCH  18  24
ENDBRANCH  17  18
ENDBRANCH  15  17
TORSDOF 6
ENDMDL
MODEL 6
REMARK VINA RESULT:      -6.6     16.526     18.963
REMARK  Name = 75368519
REMARK  7 active torsions:
REMARK  status: ('A' for Active; 'I' for Inactive)
REMARK    1  A    between atoms: O_3  and  C_24
REMARK    2  A    between atoms: N_6  and  C_14
REMARK    3  A    between atoms: C_14  and  C_16
REMARK    4  A    between atoms: C_15  and  C_17
REMARK    5  A    between atoms: C_17  and  C_18
REMARK    6  A    between atoms: C_18  and  C_24
REMARK    7  A    between atoms: C_23  and  C_25
REMARK                            x       y       z     vdW  Elec       q    Type
REMARK                         _______ _______ _______ _____ _____    ______ ____
ROOT
ATOM      1  O   UNL     1       9.924   6.521   0.732  0.00  0.00    -0.252 OA
ATOM      2  O   UNL     1       9.912   8.830   7.298  0.00  0.00    -0.276 OA
ATOM      5  N   UNL     1      10.038   6.479   3.078  0.00  0.00    -0.278 N 
ATOM      6  N   UNL     1      10.665   4.641   1.948  0.00  0.00    -0.279 N 
ATOM      7  N   UNL     1      10.655   7.390   5.634  0.00  0.00    -0.298 N 
ATOM      8  C   UNL     1      10.317   5.494   4.108  0.00  0.00    +0.112 C 
ATOM      9  C   UNL     1      10.943   4.332   3.340  0.00  0.00    +0.133 C 
ATOM     10  C   UNL     1      11.208   6.096   5.192  0.00  0.00    +0.132 C 
ATOM     11  C   UNL     1       9.570   7.801   3.453  0.00  0.00    +0.128 C 
ATOM     12  C   UNL     1      10.456   8.372   4.557  0.00  0.00    +0.127 C 
ATOM     13  C   UNL     1      10.173   5.951   1.787  0.00  0.00    +0.306 C 
ATOM     15  C   UNL     1      10.350   7.731   6.951  0.00  0.00    +0.216 C 
ENDROOT
BRANCH   6  14
ATOM     14  C   UNL     1      11.003   3.728   0.879  0.00  0.00    +0.144 C 
BRANCH  14  16
ATOM     16  C   UNL     1      12.444   3.843   0.475  0.00  0.00    -0.030 A 
ATOM     19  C   UNL     1      13.451   3.481   1.370  0.00  0.00    +0.005 A 
ATOM     20  C   UNL     1      12.776   4.315  -0.796  0.00  0.00    +0.005 A 
ATOM     21  C   UNL     1      14.789   3.591   0.994  0.00  0.00    +0.003 A 
ATOM     22  C   UNL     1      14.115   4.424  -1.171  0.00  0.00    +0.003 A 
ATOM     23  C   UNL     1      15.121   4.062  -0.277  0.00  0.00    -0.050 A 
ATOM     25  C   UNL     1      16.554   4.180  -0.676  0.00  0.00    +0.044 C 
ENDBRANCH  14  16
ENDBRANCH   6  14
BRANCH  15  17
ATOM     17  C   UNL     1      10.581   6.666   7.992  0.00  0.00    +0.107 C 
BRANCH  17  18
ATOM     18  C   UNL     1       9.260   6.031   8.381  0.00  0.00    +0.129 C 
BRANCH  18  24
ATOM      4  O   UNL     1       8.940   4.345  10.081  0.00  0.00    -0.251 OA
ATOM     24  C   UNL     1       9.471   4.688   9.032  0.00  0.00    +0.305 C 
BRANCH  24   3
ATOM      3  O   UNL     1      10.334   3.902   8.341  0.00  0.00    -0.481 OA
ATOM     26  H   UNL     1      10.758   3.230   8.916  0.00  0.00    +0.295 HD
ENDBRANCH  24   3
ENDBRANCH  18  24
ENDBRANCH  17  18
ENDBRANCH  15  17
TORSDOF 6
ENDMDL
MODEL 7
REMARK VINA RESULT:      -6.4     27.040     28.641
REMARK  Name = 75368519
REMARK  7 active torsions:
REMARK  status: ('A' for Active; 'I' for Inactive)
REMARK    1  A    between atoms: O_3  and  C_24
REMARK    2  A    between atoms: N_6  and  C_14
REMARK    3  A    between atoms: C_14  and  C_16
REMARK    4  A    between atoms: C_15  and  C_17
REMARK    5  A    between atoms: C_17  and  C_18
REMARK    6  A    between atoms: C_18  and  C_24
REMARK    7  A    between atoms: C_23  and  C_25
REMARK                            x       y       z     vdW  Elec       q    Type
REMARK                         _______ _______ _______ _____ _____    ______ ____
ROOT
ATOM      1  O   UNL     1      -1.180 -11.340  15.261  0.00  0.00    -0.252 OA
ATOM      2  O   UNL     1      -7.079 -11.078  18.946  0.00  0.00    -0.276 OA
ATOM      5  N   UNL     1      -3.437 -10.934  15.774  0.00  0.00    -0.278 N 
ATOM      6  N   UNL     1      -2.797 -10.827  13.623  0.00  0.00    -0.279 N 
ATOM      7  N   UNL     1      -5.918 -11.370  16.956  0.00  0.00    -0.298 N 
ATOM      8  C   UNL     1      -4.622 -10.492  15.062  0.00  0.00    +0.112 C 
ATOM      9  C   UNL     1      -4.236 -10.630  13.591  0.00  0.00    +0.133 C 
ATOM     10  C   UNL     1      -5.836 -11.316  15.484  0.00  0.00    +0.132 C 
ATOM     11  C   UNL     1      -3.478 -11.088  17.217  0.00  0.00    +0.128 C 
ATOM     12  C   UNL     1      -4.713 -11.889  17.619  0.00  0.00    +0.127 C 
ATOM     13  C   UNL     1      -2.326 -11.064  14.929  0.00  0.00    +0.306 C 
ATOM     15  C   UNL     1      -7.027 -11.000  17.716  0.00  0.00    +0.216 C 
ENDROOT
BRANCH   6  14
ATOM     14  C   UNL     1      -2.008 -10.900  12.413  0.00  0.00    +0.144 C 
BRANCH  14  16
ATOM     16  C   UNL     1      -2.838 -10.661  11.185  0.00  0.00    -0.030 A 
ATOM     19  C   UNL     1      -3.479 -11.729  10.557  0.00  0.00    +0.005 A 
ATOM     20  C   UNL     1      -2.967  -9.370  10.671  0.00  0.00    +0.005 A 
ATOM     21  C   UNL     1      -4.247 -11.507   9.415  0.00  0.00    +0.003 A 
ATOM     22  C   UNL     1      -3.735  -9.148   9.528  0.00  0.00    +0.003 A 
ATOM     23  C   UNL     1      -4.376 -10.216   8.901  0.00  0.00    -0.050 A 
ATOM     25  C   UNL     1      -5.197  -9.980   7.678  0.00  0.00    +0.044 C 
ENDBRANCH  14  16
ENDBRANCH   6  14
BRANCH  15  17
ATOM     17  C   UNL     1      -8.218 -10.475  16.958  0.00  0.00    +0.107 C 
BRANCH  17  18
ATOM     18  C   UNL     1      -8.229  -8.960  17.001  0.00  0.00    +0.129 C 
BRANCH  18  24
ATOM      4  O   UNL     1     -10.164  -7.520  16.857  0.00  0.00    -0.251 OA
ATOM     24  C   UNL     1      -9.578  -8.435  17.422  0.00  0.00    +0.305 C 
BRANCH  24   3
ATOM      3  O   UNL     1     -10.069  -9.072  18.514  0.00  0.00    -0.481 OA
ATOM     26  H   UNL     1      -9.561  -8.854  19.325  0.00  0.00    +0.295 HD
ENDBRANCH  24   3
ENDBRANCH  18  24
ENDBRANCH  17  18
ENDBRANCH  15  17
TORSDOF 6
ENDMDL
MODEL 8
REMARK VINA RESULT:      -6.3     27.344     29.242
REMARK  Name = 75368519
REMARK  7 active torsions:
REMARK  status: ('A' for Active; 'I' for Inactive)
REMARK    1  A    between atoms: O_3  and  C_24
REMARK    2  A    between atoms: N_6  and  C_14
REMARK    3  A    between atoms: C_14  and  C_16
REMARK    4  A    between atoms: C_15  and  C_17
REMARK    5  A    between atoms: C_17  and  C_18
REMARK    6  A    between atoms: C_18  and  C_24
REMARK    7  A    between atoms: C_23  and  C_25
REMARK                            x       y       z     vdW  Elec       q    Type
REMARK                         _______ _______ _______ _____ _____    ______ ____
ROOT
ATOM      1  O   UNL     1      -1.800 -11.275  15.306  0.00  0.00    -0.252 OA
ATOM      2  O   UNL     1      -6.553 -11.559  20.383  0.00  0.00    -0.276 OA
ATOM      5  N   UNL     1      -3.866 -11.631  16.368  0.00  0.00    -0.278 N 
ATOM      6  N   UNL     1      -3.587 -12.427  14.285  0.00  0.00    -0.279 N 
ATOM      7  N   UNL     1      -5.609 -12.350  18.414  0.00  0.00    -0.298 N 
ATOM      8  C   UNL     1      -5.165 -12.167  16.004  0.00  0.00    +0.112 C 
ATOM      9  C   UNL     1      -4.905 -12.890  14.685  0.00  0.00    +0.133 C 
ATOM     10  C   UNL     1      -5.706 -13.055  17.122  0.00  0.00    +0.132 C 
ATOM     11  C   UNL     1      -3.683 -10.999  17.661  0.00  0.00    +0.128 C 
ATOM     12  C   UNL     1      -4.256 -11.889  18.761  0.00  0.00    +0.127 C 
ATOM     13  C   UNL     1      -2.942 -11.718  15.317  0.00  0.00    +0.306 C 
ATOM     15  C   UNL     1      -6.666 -12.130  19.296  0.00  0.00    +0.216 C 
ENDROOT
BRANCH   6  14
ATOM     14  C   UNL     1      -2.998 -12.796  13.017  0.00  0.00    +0.144 C 
BRANCH  14  16
ATOM     16  C   UNL     1      -3.273 -11.776  11.951  0.00  0.00    -0.030 A 
ATOM     19  C   UNL     1      -2.413 -10.690  11.786  0.00  0.00    +0.005 A 
ATOM     20  C   UNL     1      -4.390 -11.913  11.126  0.00  0.00    +0.005 A 
ATOM     21  C   UNL     1      -2.671  -9.742  10.797  0.00  0.00    +0.003 A 
ATOM     22  C   UNL     1      -4.647 -10.964  10.137  0.00  0.00    +0.003 A 
ATOM     23  C   UNL     1      -3.787  -9.878   9.972  0.00  0.00    -0.050 A 
ATOM     25  C   UNL     1      -4.061  -8.862   8.915  0.00  0.00    +0.044 C 
ENDBRANCH  14  16
ENDBRANCH   6  14
BRANCH  15  17
ATOM     17  C   UNL     1      -8.020 -12.631  18.862  0.00  0.00    +0.107 C 
BRANCH  17  18
ATOM     18  C   UNL     1      -9.001 -11.478  18.804  0.00  0.00    +0.129 C 
BRANCH  18  24
ATOM      4  O   UNL     1     -10.579 -12.358  20.409  0.00  0.00    -0.251 OA
ATOM     24  C   UNL     1      -9.865 -11.434  20.039  0.00  0.00    +0.305 C 
BRANCH  24   3
ATOM      3  O   UNL     1      -9.786 -10.247  20.690  0.00  0.00    -0.481 OA
ATOM     26  H   UNL     1      -9.488  -9.524  20.098  0.00  0.00    +0.295 HD
ENDBRANCH  24   3
ENDBRANCH  18  24
ENDBRANCH  17  18
ENDBRANCH  15  17
TORSDOF 6
ENDMDL
MODEL 9
REMARK VINA RESULT:      -6.3     27.469     30.781
REMARK  Name = 75368519
REMARK  7 active torsions:
REMARK  status: ('A' for Active; 'I' for Inactive)
REMARK    1  A    between atoms: O_3  and  C_24
REMARK    2  A    between atoms: N_6  and  C_14
REMARK    3  A    between atoms: C_14  and  C_16
REMARK    4  A    between atoms: C_15  and  C_17
REMARK    5  A    between atoms: C_17  and  C_18
REMARK    6  A    between atoms: C_18  and  C_24
REMARK    7  A    between atoms: C_23  and  C_25
REMARK                            x       y       z     vdW  Elec       q    Type
REMARK                         _______ _______ _______ _____ _____    ______ ____
ROOT
ATOM      1  O   UNL     1     -17.647   6.581  24.542  0.00  0.00    -0.252 OA
ATOM      2  O   UNL     1     -16.788   2.995  30.445  0.00  0.00    -0.276 OA
ATOM      5  N   UNL     1     -17.334   4.745  25.974  0.00  0.00    -0.278 N 
ATOM      6  N   UNL     1     -17.048   4.436  23.767  0.00  0.00    -0.279 N 
ATOM      7  N   UNL     1     -16.384   3.348  28.185  0.00  0.00    -0.298 N 
ATOM      8  C   UNL     1     -17.094   3.321  25.833  0.00  0.00    +0.112 C 
ATOM      9  C   UNL     1     -16.692   3.163  24.369  0.00  0.00    +0.133 C 
ATOM     10  C   UNL     1     -16.042   2.856  26.838  0.00  0.00    +0.132 C 
ATOM     11  C   UNL     1     -17.594   5.306  27.287  0.00  0.00    +0.128 C 
ATOM     12  C   UNL     1     -16.549   4.806  28.282  0.00  0.00    +0.127 C 
ATOM     13  C   UNL     1     -17.381   5.402  24.737  0.00  0.00    +0.306 C 
ATOM     15  C   UNL     1     -16.526   2.555  29.323  0.00  0.00    +0.216 C 
ENDROOT
BRANCH   6  14
ATOM     14  C   UNL     1     -16.925   4.672  22.346  0.00  0.00    +0.144 C 
BRANCH  14  16
ATOM     16  C   UNL     1     -15.598   5.278  21.989  0.00  0.00    -0.030 A 
ATOM     19  C   UNL     1     -15.541   6.374  21.129  0.00  0.00    +0.005 A 
ATOM     20  C   UNL     1     -14.423   4.742  22.517  0.00  0.00    +0.005 A 
ATOM     21  C   UNL     1     -14.308   6.933  20.796  0.00  0.00    +0.003 A 
ATOM     22  C   UNL     1     -13.190   5.302  22.184  0.00  0.00    +0.003 A 
ATOM     23  C   UNL     1     -13.132   6.398  21.324  0.00  0.00    -0.050 A 
ATOM     25  C   UNL     1     -11.815   6.998  20.966  0.00  0.00    +0.044 C 
ENDBRANCH  14  16
ENDBRANCH   6  14
BRANCH  15  17
ATOM     17  C   UNL     1     -16.344   1.070  29.135  0.00  0.00    +0.107 C 
BRANCH  17  18
ATOM     18  C   UNL     1     -15.535   0.502  30.284  0.00  0.00    +0.129 C 
BRANCH  18  24
ATOM      4  O   UNL     1     -13.968  -1.010  29.234  0.00  0.00    -0.251 OA
ATOM     24  C   UNL     1     -14.174   0.046  29.820  0.00  0.00    +0.305 C 
BRANCH  24   3
ATOM      3  O   UNL     1     -13.191   0.923  30.143  0.00  0.00    -0.481 OA
ATOM     26  H   UNL     1     -12.738   0.675  30.976  0.00  0.00    +0.295 HD
ENDBRANCH  24   3
ENDBRANCH  18  24
ENDBRANCH  17  18
ENDBRANCH  15  17
TORSDOF 6
ENDMDL
MODEL 10
REMARK VINA RESULT:      -6.2      2.066      2.846
REMARK  Name = 75368519
REMARK  7 active torsions:
REMARK  status: ('A' for Active; 'I' for Inactive)
REMARK    1  A    between atoms: O_3  and  C_24
REMARK    2  A    between atoms: N_6  and  C_14
REMARK    3  A    between atoms: C_14  and  C_16
REMARK    4  A    between atoms: C_15  and  C_17
REMARK    5  A    between atoms: C_17  and  C_18
REMARK    6  A    between atoms: C_18  and  C_24
REMARK    7  A    between atoms: C_23  and  C_25
REMARK                            x       y       z     vdW  Elec       q    Type
REMARK                         _______ _______ _______ _____ _____    ______ ____
ROOT
ATOM      1  O   UNL     1      14.668   9.172  18.275  0.00  0.00    -0.252 OA
ATOM      2  O   UNL     1      11.722  14.030  22.296  0.00  0.00    -0.276 OA
ATOM      5  N   UNL     1      13.351  10.117  19.976  0.00  0.00    -0.278 N 
ATOM      6  N   UNL     1      13.720   7.901  20.020  0.00  0.00    -0.279 N 
ATOM      7  N   UNL     1      12.646  11.924  21.971  0.00  0.00    -0.298 N 
ATOM      8  C   UNL     1      12.547   9.635  21.084  0.00  0.00    +0.112 C 
ATOM      9  C   UNL     1      12.972   8.176  21.235  0.00  0.00    +0.133 C 
ATOM     10  C   UNL     1      12.775  10.498  22.323  0.00  0.00    +0.132 C 
ATOM     11  C   UNL     1      13.332  11.527  19.631  0.00  0.00    +0.128 C 
ATOM     12  C   UNL     1      13.533  12.371  20.887  0.00  0.00    +0.127 C 
ATOM     13  C   UNL     1      13.994   9.076  19.292  0.00  0.00    +0.306 C 
ATOM     15  C   UNL     1      11.794  12.835  22.593  0.00  0.00    +0.216 C 
ENDROOT
BRANCH   6  14
ATOM     14  C   UNL     1      14.219   6.580  19.712  0.00  0.00    +0.144 C 
BRANCH  14  16
ATOM     16  C   UNL     1      15.692   6.458  19.980  0.00  0.00    -0.030 A 
ATOM     19  C   UNL     1      16.211   6.849  21.213  0.00  0.00    +0.005 A 
ATOM     20  C   UNL     1      16.540   5.956  18.992  0.00  0.00    +0.005 A 
ATOM     21  C   UNL     1      17.579   6.739  21.460  0.00  0.00    +0.003 A 
ATOM     22  C   UNL     1      17.909   5.845  19.240  0.00  0.00    +0.003 A 
ATOM     23  C   UNL     1      18.428   6.236  20.473  0.00  0.00    -0.050 A 
ATOM     25  C   UNL     1      19.891   6.119  20.739  0.00  0.00    +0.044 C 
ENDBRANCH  14  16
ENDBRANCH   6  14
BRANCH  15  17
ATOM     17  C   UNL     1      10.916  12.293  23.692  0.00  0.00    +0.107 C 
BRANCH  17  18
ATOM     18  C   UNL     1      11.403  12.797  25.036  0.00  0.00    +0.129 C 
BRANCH  18  24
ATOM      4  O   UNL     1       9.868  14.650  24.816  0.00  0.00    -0.251 OA
ATOM     24  C   UNL     1      10.543  13.928  25.540  0.00  0.00    +0.305 C 
BRANCH  24   3
ATOM      3  O   UNL     1      10.614  14.078  26.886  0.00  0.00    -0.481 OA
ATOM     26  H   UNL     1       9.884  13.611  27.346  0.00  0.00    +0.295 HD
ENDBRANCH  24   3
ENDBRANCH  18  24
ENDBRANCH  17  18
ENDBRANCH  15  17
TORSDOF 6
ENDMDL
