MODEL 1
REMARK VINA RESULT:      -7.8      0.000      0.000
REMARK  Name = 40777613
REMARK  8 active torsions:
REMARK  status: ('A' for Active; 'I' for Inactive)
REMARK    1  A    between atoms: S_1  and  N_4
REMARK    2  A    between atoms: S_1  and  C_18
REMARK    3  A    between atoms: N_4  and  C_9
REMARK    4  A    between atoms: N_5  and  C_16
REMARK    5  A    between atoms: C_7  and  C_10
REMARK    6  A    between atoms: C_13  and  C_15
REMARK    7  A    between atoms: C_14  and  C_17
REMARK    8  A    between atoms: C_16  and  C_19
REMARK                            x       y       z     vdW  Elec       q    Type
REMARK                         _______ _______ _______ _____ _____    ______ ____
ROOT
ATOM      7  C   UNL     1      16.918   6.413  20.679  0.00  0.00    +0.047 C 
ATOM      8  C   UNL     1      15.941   7.442  21.286  0.00  0.00    +0.037 C 
ATOM      9  C   UNL     1      14.709   7.441  20.376  0.00  0.00    +0.100 C 
ATOM     11  C   UNL     1      16.436   6.308  19.261  0.00  0.00    -0.021 C 
ATOM     12  C   UNL     1      15.230   6.864  19.103  0.00  0.00    -0.010 C 
ENDROOT
BRANCH   7  10
ATOM      5  N   UNL     1      20.553   6.832  20.837  0.00  0.00    -0.264 N 
ATOM      6  N   UNL     1      20.226   8.058  21.278  0.00  0.00    -0.176 NA
ATOM     10  C   UNL     1      18.369   6.807  20.824  0.00  0.00    +0.003 A 
ATOM     13  C   UNL     1      19.477   6.043  20.552  0.00  0.00    +0.041 A 
ATOM     14  C   UNL     1      18.890   8.038  21.267  0.00  0.00    +0.064 A 
ATOM     15  C   UNL     1      19.609   4.660  20.055  0.00  0.00    +0.065 C 
ATOM     17  C   UNL     1      18.143   9.234  21.695  0.00  0.00    +0.068 C 
BRANCH   5  16
ATOM     16  C   UNL     1      21.948   6.476  20.712  0.00  0.00    +0.178 C 
BRANCH  16  19
ATOM     19  C   UNL     1      22.400   5.465  21.736  0.00  0.00    -0.026 A 
ATOM     22  C   UNL     1      22.223   5.721  23.096  0.00  0.00    +0.005 A 
ATOM     23  C   UNL     1      22.996   4.273  21.323  0.00  0.00    +0.005 A 
ATOM     26  C   UNL     1      22.642   4.786  24.043  0.00  0.00    +0.000 A 
ATOM     27  C   UNL     1      23.416   3.338  22.269  0.00  0.00    +0.000 A 
ATOM     29  C   UNL     1      23.238   3.594  23.629  0.00  0.00    +0.000 A 
ENDBRANCH  16  19
ENDBRANCH   5  16
ENDBRANCH   7  10
BRANCH   9   4
ATOM      4  N   UNL     1      13.661   6.551  20.918  0.00  0.00    -0.183 NA
ATOM     30  H   UNL     1      13.905   5.967  21.727  0.00  0.00    +0.149 HD
BRANCH   4   1
ATOM      1  S   UNL     1      12.032   6.800  20.498  0.00  0.00    +0.059 S 
ATOM      2  O   UNL     1      11.203   5.830  21.188  0.00  0.00    -0.153 OA
ATOM      3  O   UNL     1      11.935   6.949  19.059  0.00  0.00    -0.153 OA
BRANCH   1  18
ATOM     18  C   UNL     1      11.715   8.389  21.204  0.00  0.00    +0.105 A 
ATOM     20  C   UNL     1      12.040   9.545  20.495  0.00  0.00    +0.028 A 
ATOM     21  C   UNL     1      11.143   8.487  22.473  0.00  0.00    +0.028 A 
ATOM     24  C   UNL     1      11.794  10.799  21.053  0.00  0.00    +0.002 A 
ATOM     25  C   UNL     1      10.896   9.741  23.031  0.00  0.00    +0.002 A 
ATOM     28  C   UNL     1      11.222  10.897  22.321  0.00  0.00    +0.000 A 
ENDBRANCH   1  18
ENDBRANCH   4   1
ENDBRANCH   9   4
TORSDOF 6
ENDMDL
MODEL 2
REMARK VINA RESULT:      -7.8      2.016      3.774
REMARK  Name = 40777613
REMARK  8 active torsions:
REMARK  status: ('A' for Active; 'I' for Inactive)
REMARK    1  A    between atoms: S_1  and  N_4
REMARK    2  A    between atoms: S_1  and  C_18
REMARK    3  A    between atoms: N_4  and  C_9
REMARK    4  A    between atoms: N_5  and  C_16
REMARK    5  A    between atoms: C_7  and  C_10
REMARK    6  A    between atoms: C_13  and  C_15
REMARK    7  A    between atoms: C_14  and  C_17
REMARK    8  A    between atoms: C_16  and  C_19
REMARK                            x       y       z     vdW  Elec       q    Type
REMARK                         _______ _______ _______ _____ _____    ______ ____
ROOT
ATOM      7  C   UNL     1      16.995   6.455  20.715  0.00  0.00    +0.047 C 
ATOM      8  C   UNL     1      15.978   7.461  21.292  0.00  0.00    +0.037 C 
ATOM      9  C   UNL     1      14.767   7.420  20.354  0.00  0.00    +0.100 C 
ATOM     11  C   UNL     1      16.549   6.327  19.287  0.00  0.00    -0.021 C 
ATOM     12  C   UNL     1      15.332   6.849  19.098  0.00  0.00    -0.010 C 
ENDROOT
BRANCH   7  10
ATOM      5  N   UNL     1      20.253   8.024  21.298  0.00  0.00    -0.264 N 
ATOM      6  N   UNL     1      20.715   6.820  20.920  0.00  0.00    -0.176 NA
ATOM     10  C   UNL     1      18.432   6.891  20.889  0.00  0.00    +0.003 A 
ATOM     13  C   UNL     1      18.892   8.118  21.297  0.00  0.00    +0.041 A 
ATOM     14  C   UNL     1      19.597   6.131  20.672  0.00  0.00    +0.064 A 
ATOM     15  C   UNL     1      18.176   9.350  21.678  0.00  0.00    +0.065 C 
ATOM     17  C   UNL     1      19.693   4.731  20.222  0.00  0.00    +0.068 C 
BRANCH   5  16
ATOM     16  C   UNL     1      21.195   9.060  21.656  0.00  0.00    +0.178 C 
BRANCH  16  19
ATOM     19  C   UNL     1      21.648   9.887  20.478  0.00  0.00    -0.026 A 
ATOM     22  C   UNL     1      21.063  11.129  20.232  0.00  0.00    +0.005 A 
ATOM     23  C   UNL     1      22.652   9.410  19.636  0.00  0.00    +0.005 A 
ATOM     26  C   UNL     1      21.481  11.894  19.143  0.00  0.00    +0.000 A 
ATOM     27  C   UNL     1      23.071  10.174  18.546  0.00  0.00    +0.000 A 
ATOM     29  C   UNL     1      22.486  11.416  18.300  0.00  0.00    +0.000 A 
ENDBRANCH  16  19
ENDBRANCH   5  16
ENDBRANCH   7  10
BRANCH   9   4
ATOM      4  N   UNL     1      13.731   6.505  20.879  0.00  0.00    -0.183 NA
ATOM     30  H   UNL     1      13.986   5.904  21.673  0.00  0.00    +0.149 HD
BRANCH   4   1
ATOM      1  S   UNL     1      12.098   6.746  20.474  0.00  0.00    +0.059 S 
ATOM      2  O   UNL     1      11.277   5.789  21.191  0.00  0.00    -0.153 OA
ATOM      3  O   UNL     1      11.984   6.867  19.032  0.00  0.00    -0.153 OA
BRANCH   1  18
ATOM     18  C   UNL     1      11.788   8.348  21.153  0.00  0.00    +0.105 A 
ATOM     20  C   UNL     1      11.203   8.470  22.413  0.00  0.00    +0.028 A 
ATOM     21  C   UNL     1      12.125   9.490  20.426  0.00  0.00    +0.028 A 
ATOM     24  C   UNL     1      10.954   9.734  22.947  0.00  0.00    +0.002 A 
ATOM     25  C   UNL     1      11.876  10.754  20.961  0.00  0.00    +0.002 A 
ATOM     28  C   UNL     1      11.291  10.876  22.221  0.00  0.00    +0.000 A 
ENDBRANCH   1  18
ENDBRANCH   4   1
ENDBRANCH   9   4
TORSDOF 6
ENDMDL
MODEL 3
REMARK VINA RESULT:      -7.5      1.270      2.326
REMARK  Name = 40777613
REMARK  8 active torsions:
REMARK  status: ('A' for Active; 'I' for Inactive)
REMARK    1  A    between atoms: S_1  and  N_4
REMARK    2  A    between atoms: S_1  and  C_18
REMARK    3  A    between atoms: N_4  and  C_9
REMARK    4  A    between atoms: N_5  and  C_16
REMARK    5  A    between atoms: C_7  and  C_10
REMARK    6  A    between atoms: C_13  and  C_15
REMARK    7  A    between atoms: C_14  and  C_17
REMARK    8  A    between atoms: C_16  and  C_19
REMARK                            x       y       z     vdW  Elec       q    Type
REMARK                         _______ _______ _______ _____ _____    ______ ____
ROOT
ATOM      7  C   UNL     1      16.120   7.902  20.434  0.00  0.00    +0.047 C 
ATOM      8  C   UNL     1      15.199   7.025  19.560  0.00  0.00    +0.037 C 
ATOM      9  C   UNL     1      13.828   7.042  20.244  0.00  0.00    +0.100 C 
ATOM     11  C   UNL     1      15.404   7.907  21.754  0.00  0.00    -0.021 C 
ATOM     12  C   UNL     1      14.154   7.443  21.643  0.00  0.00    -0.010 C 
ENDROOT
BRANCH   7  10
ATOM      5  N   UNL     1      19.662   7.124  20.948  0.00  0.00    -0.264 N 
ATOM      6  N   UNL     1      19.398   6.131  20.083  0.00  0.00    -0.176 NA
ATOM     10  C   UNL     1      17.544   7.400  20.492  0.00  0.00    +0.003 A 
ATOM     13  C   UNL     1      18.584   7.913  21.226  0.00  0.00    +0.041 A 
ATOM     14  C   UNL     1      18.103   6.304  19.807  0.00  0.00    +0.064 A 
ATOM     15  C   UNL     1      18.652   9.061  22.151  0.00  0.00    +0.065 C 
ATOM     17  C   UNL     1      17.431   5.386  18.871  0.00  0.00    +0.068 C 
BRANCH   5  16
ATOM     16  C   UNL     1      20.998   7.259  21.481  0.00  0.00    +0.178 C 
BRANCH  16  19
ATOM     19  C   UNL     1      21.782   5.970  21.463  0.00  0.00    -0.026 A 
ATOM     22  C   UNL     1      21.459   4.946  22.353  0.00  0.00    +0.005 A 
ATOM     23  C   UNL     1      22.828   5.803  20.557  0.00  0.00    +0.005 A 
ATOM     26  C   UNL     1      22.183   3.754  22.338  0.00  0.00    +0.000 A 
ATOM     27  C   UNL     1      23.554   4.611  20.541  0.00  0.00    +0.000 A 
ATOM     29  C   UNL     1      23.231   3.587  21.431  0.00  0.00    +0.000 A 
ENDBRANCH  16  19
ENDBRANCH   5  16
ENDBRANCH   7  10
BRANCH   9   4
ATOM      4  N   UNL     1      12.954   8.069  19.638  0.00  0.00    -0.183 NA
ATOM     30  H   UNL     1      13.272   8.508  18.764  0.00  0.00    +0.149 HD
BRANCH   4   1
ATOM      1  S   UNL     1      11.330   8.198  20.121  0.00  0.00    +0.059 S 
ATOM      2  O   UNL     1      10.966   7.034  20.906  0.00  0.00    -0.153 OA
ATOM      3  O   UNL     1      10.527   8.585  18.976  0.00  0.00    -0.153 OA
BRANCH   1  18
ATOM     18  C   UNL     1      11.385   9.592  21.208  0.00  0.00    +0.105 A 
ATOM     20  C   UNL     1      10.783   9.521  22.464  0.00  0.00    +0.028 A 
ATOM     21  C   UNL     1      12.027  10.764  20.807  0.00  0.00    +0.028 A 
ATOM     24  C   UNL     1      10.822  10.621  23.320  0.00  0.00    +0.002 A 
ATOM     25  C   UNL     1      12.066  11.864  21.663  0.00  0.00    +0.002 A 
ATOM     28  C   UNL     1      11.464  11.793  22.919  0.00  0.00    +0.000 A 
ENDBRANCH   1  18
ENDBRANCH   4   1
ENDBRANCH   9   4
TORSDOF 6
ENDMDL
MODEL 4
REMARK VINA RESULT:      -7.4     26.885     29.845
REMARK  Name = 40777613
REMARK  8 active torsions:
REMARK  status: ('A' for Active; 'I' for Inactive)
REMARK    1  A    between atoms: S_1  and  N_4
REMARK    2  A    between atoms: S_1  and  C_18
REMARK    3  A    between atoms: N_4  and  C_9
REMARK    4  A    between atoms: N_5  and  C_16
REMARK    5  A    between atoms: C_7  and  C_10
REMARK    6  A    between atoms: C_13  and  C_15
REMARK    7  A    between atoms: C_14  and  C_17
REMARK    8  A    between atoms: C_16  and  C_19
REMARK                            x       y       z     vdW  Elec       q    Type
REMARK                         _______ _______ _______ _____ _____    ______ ____
ROOT
ATOM      7  C   UNL     1      -4.607 -10.661  16.267  0.00  0.00    +0.047 C 
ATOM      8  C   UNL     1      -5.959 -11.406  16.270  0.00  0.00    +0.037 C 
ATOM      9  C   UNL     1      -6.278 -11.694  17.741  0.00  0.00    +0.100 C 
ATOM     11  C   UNL     1      -4.028 -11.037  17.601  0.00  0.00    -0.021 C 
ATOM     12  C   UNL     1      -4.944 -11.594  18.401  0.00  0.00    -0.010 C 
ENDROOT
BRANCH   7  10
ATOM      5  N   UNL     1      -2.992 -11.662  13.136  0.00  0.00    -0.264 N 
ATOM      6  N   UNL     1      -1.879 -11.273  13.780  0.00  0.00    -0.176 NA
ATOM     10  C   UNL     1      -3.736 -11.007  15.082  0.00  0.00    +0.003 A 
ATOM     13  C   UNL     1      -4.132 -11.523  13.873  0.00  0.00    +0.041 A 
ATOM     14  C   UNL     1      -2.339 -10.874  14.968  0.00  0.00    +0.064 A 
ATOM     15  C   UNL     1      -5.465 -11.890  13.359  0.00  0.00    +0.065 C 
ATOM     17  C   UNL     1      -1.395 -10.365  15.978  0.00  0.00    +0.068 C 
BRANCH   5  16
ATOM     16  C   UNL     1      -2.887 -12.168  11.787  0.00  0.00    +0.178 C 
BRANCH  16  19
ATOM     19  C   UNL     1      -3.390 -11.199  10.745  0.00  0.00    -0.026 A 
ATOM     22  C   UNL     1      -4.223 -11.648   9.720  0.00  0.00    +0.005 A 
ATOM     23  C   UNL     1      -3.021  -9.856  10.806  0.00  0.00    +0.005 A 
ATOM     26  C   UNL     1      -4.688 -10.752   8.757  0.00  0.00    +0.000 A 
ATOM     27  C   UNL     1      -3.485  -8.960   9.843  0.00  0.00    +0.000 A 
ATOM     29  C   UNL     1      -4.319  -9.408   8.819  0.00  0.00    +0.000 A 
ENDBRANCH  16  19
ENDBRANCH   5  16
ENDBRANCH   7  10
BRANCH   9   4
ATOM      4  N   UNL     1      -7.171 -10.655  18.295  0.00  0.00    -0.183 NA
ATOM     30  H   UNL     1      -6.886  -9.674  18.182  0.00  0.00    +0.149 HD
BRANCH   4   1
ATOM      1  S   UNL     1      -8.775 -11.042  18.704  0.00  0.00    +0.059 S 
ATOM      2  O   UNL     1      -8.950 -10.918  20.139  0.00  0.00    -0.153 OA
ATOM      3  O   UNL     1      -9.151 -12.269  18.028  0.00  0.00    -0.153 OA
BRANCH   1  18
ATOM     18  C   UNL     1      -9.673  -9.730  17.931  0.00  0.00    +0.105 A 
ATOM     20  C   UNL     1     -11.062  -9.675  18.044  0.00  0.00    +0.028 A 
ATOM     21  C   UNL     1      -8.993  -8.753  17.204  0.00  0.00    +0.028 A 
ATOM     24  C   UNL     1     -11.772  -8.643  17.430  0.00  0.00    +0.002 A 
ATOM     25  C   UNL     1      -9.702  -7.721  16.591  0.00  0.00    +0.002 A 
ATOM     28  C   UNL     1     -11.091  -7.666  16.703  0.00  0.00    +0.000 A 
ENDBRANCH   1  18
ENDBRANCH   4   1
ENDBRANCH   9   4
TORSDOF 6
ENDMDL
MODEL 5
REMARK VINA RESULT:      -7.3     27.386     30.518
REMARK  Name = 40777613
REMARK  8 active torsions:
REMARK  status: ('A' for Active; 'I' for Inactive)
REMARK    1  A    between atoms: S_1  and  N_4
REMARK    2  A    between atoms: S_1  and  C_18
REMARK    3  A    between atoms: N_4  and  C_9
REMARK    4  A    between atoms: N_5  and  C_16
REMARK    5  A    between atoms: C_7  and  C_10
REMARK    6  A    between atoms: C_13  and  C_15
REMARK    7  A    between atoms: C_14  and  C_17
REMARK    8  A    between atoms: C_16  and  C_19
REMARK                            x       y       z     vdW  Elec       q    Type
REMARK                         _______ _______ _______ _____ _____    ______ ____
ROOT
ATOM      7  C   UNL     1      -3.954 -10.021  10.963  0.00  0.00    +0.047 C 
ATOM      8  C   UNL     1      -3.540 -11.186  11.887  0.00  0.00    +0.037 C 
ATOM      9  C   UNL     1      -2.156 -10.820  12.433  0.00  0.00    +0.100 C 
ATOM     11  C   UNL     1      -2.635  -9.380  10.641  0.00  0.00    -0.021 C 
ATOM     12  C   UNL     1      -1.661  -9.814  11.448  0.00  0.00    -0.010 C 
ENDROOT
BRANCH   7  10
ATOM      5  N   UNL     1      -5.614 -11.615   8.114  0.00  0.00    -0.264 N 
ATOM      6  N   UNL     1      -6.198 -10.410   7.993  0.00  0.00    -0.176 NA
ATOM     10  C   UNL     1      -4.748 -10.467   9.758  0.00  0.00    +0.003 A 
ATOM     13  C   UNL     1      -4.738 -11.700   9.156  0.00  0.00    +0.041 A 
ATOM     14  C   UNL     1      -5.665  -9.713   9.000  0.00  0.00    +0.064 A 
ATOM     15  C   UNL     1      -3.988 -12.932   9.470  0.00  0.00    +0.065 C 
ATOM     17  C   UNL     1      -6.067  -8.310   9.203  0.00  0.00    +0.068 C 
BRANCH   5  16
ATOM     16  C   UNL     1      -5.953 -12.660   7.175  0.00  0.00    +0.178 C 
BRANCH  16  19
ATOM     19  C   UNL     1      -5.197 -12.560   5.873  0.00  0.00    -0.026 A 
ATOM     22  C   UNL     1      -3.802 -12.552   5.875  0.00  0.00    +0.005 A 
ATOM     23  C   UNL     1      -5.894 -12.476   4.668  0.00  0.00    +0.005 A 
ATOM     26  C   UNL     1      -3.104 -12.460   4.671  0.00  0.00    +0.000 A 
ATOM     27  C   UNL     1      -5.195 -12.384   3.463  0.00  0.00    +0.000 A 
ATOM     29  C   UNL     1      -3.801 -12.376   3.465  0.00  0.00    +0.000 A 
ENDBRANCH  16  19
ENDBRANCH   5  16
ENDBRANCH   7  10
BRANCH   9   4
ATOM      4  N   UNL     1      -2.271 -10.181  13.761  0.00  0.00    -0.183 NA
ATOM     30  H   UNL     1      -2.707  -9.252  13.805  0.00  0.00    +0.149 HD
BRANCH   4   1
ATOM      1  S   UNL     1      -2.089 -11.112  15.172  0.00  0.00    +0.059 S 
ATOM      2  O   UNL     1      -1.029 -10.550  15.987  0.00  0.00    -0.153 OA
ATOM      3  O   UNL     1      -2.063 -12.516  14.809  0.00  0.00    -0.153 OA
BRANCH   1  18
ATOM     18  C   UNL     1      -3.624 -10.821  15.999  0.00  0.00    +0.105 A 
ATOM     20  C   UNL     1      -3.748 -11.103  17.359  0.00  0.00    +0.028 A 
ATOM     21  C   UNL     1      -4.713 -10.313  15.290  0.00  0.00    +0.028 A 
ATOM     24  C   UNL     1      -4.960 -10.879  18.011  0.00  0.00    +0.002 A 
ATOM     25  C   UNL     1      -5.925 -10.087  15.942  0.00  0.00    +0.002 A 
ATOM     28  C   UNL     1      -6.049 -10.371  17.302  0.00  0.00    +0.000 A 
ENDBRANCH   1  18
ENDBRANCH   4   1
ENDBRANCH   9   4
TORSDOF 6
ENDMDL
MODEL 6
REMARK VINA RESULT:      -7.3     27.641     30.552
REMARK  Name = 40777613
REMARK  8 active torsions:
REMARK  status: ('A' for Active; 'I' for Inactive)
REMARK    1  A    between atoms: S_1  and  N_4
REMARK    2  A    between atoms: S_1  and  C_18
REMARK    3  A    between atoms: N_4  and  C_9
REMARK    4  A    between atoms: N_5  and  C_16
REMARK    5  A    between atoms: C_7  and  C_10
REMARK    6  A    between atoms: C_13  and  C_15
REMARK    7  A    between atoms: C_14  and  C_17
REMARK    8  A    between atoms: C_16  and  C_19
REMARK                            x       y       z     vdW  Elec       q    Type
REMARK                         _______ _______ _______ _____ _____    ______ ____
ROOT
ATOM      7  C   UNL     1      -3.791  -9.585   9.992  0.00  0.00    +0.047 C 
ATOM      8  C   UNL     1      -4.624 -10.581   9.157  0.00  0.00    +0.037 C 
ATOM      9  C   UNL     1      -5.855  -9.803   8.680  0.00  0.00    +0.100 C 
ATOM     11  C   UNL     1      -4.807  -8.544  10.361  0.00  0.00    -0.021 C 
ATOM     12  C   UNL     1      -5.927  -8.663   9.640  0.00  0.00    -0.010 C 
ENDROOT
BRANCH   7  10
ATOM      5  N   UNL     1      -2.588 -11.451  12.904  0.00  0.00    -0.264 N 
ATOM      6  N   UNL     1      -1.480 -10.716  12.710  0.00  0.00    -0.176 NA
ATOM     10  C   UNL     1      -3.092 -10.228  11.167  0.00  0.00    +0.003 A 
ATOM     13  C   UNL     1      -3.583 -11.197  12.007  0.00  0.00    +0.041 A 
ATOM     14  C   UNL     1      -1.793  -9.971  11.647  0.00  0.00    +0.064 A 
ATOM     15  C   UNL     1      -4.884 -11.892  12.038  0.00  0.00    +0.065 C 
ATOM     17  C   UNL     1      -0.808  -9.012  11.117  0.00  0.00    +0.068 C 
BRANCH   5  16
ATOM     16  C   UNL     1      -2.623 -12.399  13.995  0.00  0.00    +0.178 C 
BRANCH  16  19
ATOM     19  C   UNL     1      -3.496 -11.958  15.143  0.00  0.00    -0.026 A 
ATOM     22  C   UNL     1      -4.502 -12.799  15.617  0.00  0.00    +0.005 A 
ATOM     23  C   UNL     1      -3.298 -10.708  15.729  0.00  0.00    +0.005 A 
ATOM     26  C   UNL     1      -5.310 -12.391  16.679  0.00  0.00    +0.000 A 
ATOM     27  C   UNL     1      -4.106 -10.299  16.790  0.00  0.00    +0.000 A 
ATOM     29  C   UNL     1      -5.112 -11.140  17.265  0.00  0.00    +0.000 A 
ENDBRANCH  16  19
ENDBRANCH   5  16
ENDBRANCH   7  10
BRANCH   9   4
ATOM      4  N   UNL     1      -5.642  -9.274   7.316  0.00  0.00    -0.183 NA
ATOM     30  H   UNL     1      -4.695  -8.962   7.070  0.00  0.00    +0.149 HD
BRANCH   4   1
ATOM      1  S   UNL     1      -6.792  -9.571   6.099  0.00  0.00    +0.059 S 
ATOM      2  O   UNL     1      -6.918  -8.395   5.259  0.00  0.00    -0.153 OA
ATOM      3  O   UNL     1      -7.970 -10.167   6.700  0.00  0.00    -0.153 OA
BRANCH   1  18
ATOM     18  C   UNL     1      -6.000 -10.836   5.152  0.00  0.00    +0.105 A 
ATOM     20  C   UNL     1      -4.802 -11.395   5.599  0.00  0.00    +0.028 A 
ATOM     21  C   UNL     1      -6.570 -11.272   3.956  0.00  0.00    +0.028 A 
ATOM     24  C   UNL     1      -4.174 -12.390   4.850  0.00  0.00    +0.002 A 
ATOM     25  C   UNL     1      -5.942 -12.267   3.208  0.00  0.00    +0.002 A 
ATOM     28  C   UNL     1      -4.745 -12.826   3.654  0.00  0.00    +0.000 A 
ENDBRANCH   1  18
ENDBRANCH   4   1
ENDBRANCH   9   4
TORSDOF 6
ENDMDL
MODEL 7
REMARK VINA RESULT:      -7.2     28.101     30.112
REMARK  Name = 40777613
REMARK  8 active torsions:
REMARK  status: ('A' for Active; 'I' for Inactive)
REMARK    1  A    between atoms: S_1  and  N_4
REMARK    2  A    between atoms: S_1  and  C_18
REMARK    3  A    between atoms: N_4  and  C_9
REMARK    4  A    between atoms: N_5  and  C_16
REMARK    5  A    between atoms: C_7  and  C_10
REMARK    6  A    between atoms: C_13  and  C_15
REMARK    7  A    between atoms: C_14  and  C_17
REMARK    8  A    between atoms: C_16  and  C_19
REMARK                            x       y       z     vdW  Elec       q    Type
REMARK                         _______ _______ _______ _____ _____    ______ ____
ROOT
ATOM      7  C   UNL     1     -13.263   8.250  20.648  0.00  0.00    +0.047 C 
ATOM      8  C   UNL     1     -12.777   9.280  19.607  0.00  0.00    +0.037 C 
ATOM      9  C   UNL     1     -11.670   8.583  18.810  0.00  0.00    +0.100 C 
ATOM     11  C   UNL     1     -12.104   7.297  20.726  0.00  0.00    -0.021 C 
ATOM     12  C   UNL     1     -11.243   7.479  19.719  0.00  0.00    -0.010 C 
ENDROOT
BRANCH   7  10
ATOM      5  N   UNL     1     -13.814  10.164  23.722  0.00  0.00    -0.264 N 
ATOM      6  N   UNL     1     -14.725   9.205  23.958  0.00  0.00    -0.176 NA
ATOM     10  C   UNL     1     -13.656   8.873  21.968  0.00  0.00    +0.003 A 
ATOM     13  C   UNL     1     -13.146  10.010  22.542  0.00  0.00    +0.041 A 
ATOM     14  C   UNL     1     -14.624   8.419  22.883  0.00  0.00    +0.064 A 
ATOM     15  C   UNL     1     -12.104  10.950  22.087  0.00  0.00    +0.065 C 
ATOM     17  C   UNL     1     -15.485   7.228  22.772  0.00  0.00    +0.068 C 
BRANCH   5  16
ATOM     16  C   UNL     1     -13.634  11.220  24.692  0.00  0.00    +0.178 C 
BRANCH  16  19
ATOM     19  C   UNL     1     -12.742  10.827  25.843  0.00  0.00    -0.026 A 
ATOM     22  C   UNL     1     -13.295  10.571  27.098  0.00  0.00    +0.005 A 
ATOM     23  C   UNL     1     -11.365  10.720  25.653  0.00  0.00    +0.005 A 
ATOM     26  C   UNL     1     -12.471  10.208  28.163  0.00  0.00    +0.000 A 
ATOM     27  C   UNL     1     -10.539  10.357  26.718  0.00  0.00    +0.000 A 
ATOM     29  C   UNL     1     -11.093  10.101  27.973  0.00  0.00    +0.000 A 
ENDBRANCH  16  19
ENDBRANCH   5  16
ENDBRANCH   7  10
BRANCH   9   4
ATOM      4  N   UNL     1     -12.211   8.000  17.564  0.00  0.00    -0.183 NA
ATOM     30  H   UNL     1     -13.070   7.441  17.634  0.00  0.00    +0.149 HD
BRANCH   4   1
ATOM      1  S   UNL     1     -11.688   8.583  16.054  0.00  0.00    +0.059 S 
ATOM      2  O   UNL     1     -12.803   8.591  15.127  0.00  0.00    -0.153 OA
ATOM      3  O   UNL     1     -10.449   7.918  15.698  0.00  0.00    -0.153 OA
BRANCH   1  18
ATOM     18  C   UNL     1     -11.282  10.261  16.434  0.00  0.00    +0.105 A 
ATOM     20  C   UNL     1      -9.963  10.612  16.719  0.00  0.00    +0.028 A 
ATOM     21  C   UNL     1     -12.283  11.233  16.453  0.00  0.00    +0.028 A 
ATOM     24  C   UNL     1      -9.643  11.935  17.023  0.00  0.00    +0.002 A 
ATOM     25  C   UNL     1     -11.962  12.556  16.756  0.00  0.00    +0.002 A 
ATOM     28  C   UNL     1     -10.643  12.907  17.042  0.00  0.00    +0.000 A 
ENDBRANCH   1  18
ENDBRANCH   4   1
ENDBRANCH   9   4
TORSDOF 6
ENDMDL
MODEL 8
REMARK VINA RESULT:      -7.2     28.646     30.804
REMARK  Name = 40777613
REMARK  8 active torsions:
REMARK  status: ('A' for Active; 'I' for Inactive)
REMARK    1  A    between atoms: S_1  and  N_4
REMARK    2  A    between atoms: S_1  and  C_18
REMARK    3  A    between atoms: N_4  and  C_9
REMARK    4  A    between atoms: N_5  and  C_16
REMARK    5  A    between atoms: C_7  and  C_10
REMARK    6  A    between atoms: C_13  and  C_15
REMARK    7  A    between atoms: C_14  and  C_17
REMARK    8  A    between atoms: C_16  and  C_19
REMARK                            x       y       z     vdW  Elec       q    Type
REMARK                         _______ _______ _______ _____ _____    ______ ____
ROOT
ATOM      7  C   UNL     1     -13.150   8.244  20.546  0.00  0.00    +0.047 C 
ATOM      8  C   UNL     1     -12.887   9.295  19.447  0.00  0.00    +0.037 C 
ATOM      9  C   UNL     1     -11.734   8.742  18.603  0.00  0.00    +0.100 C 
ATOM     11  C   UNL     1     -11.858   7.480  20.579  0.00  0.00    -0.021 C 
ATOM     12  C   UNL     1     -11.093   7.751  19.516  0.00  0.00    -0.010 C 
ENDROOT
BRANCH   7  10
ATOM      5  N   UNL     1     -13.753  10.133  23.625  0.00  0.00    -0.264 N 
ATOM      6  N   UNL     1     -14.628   9.142  23.865  0.00  0.00    -0.176 NA
ATOM     10  C   UNL     1     -13.558   8.851  21.868  0.00  0.00    +0.003 A 
ATOM     13  C   UNL     1     -13.086  10.005  22.442  0.00  0.00    +0.041 A 
ATOM     14  C   UNL     1     -14.505   8.361  22.788  0.00  0.00    +0.064 A 
ATOM     15  C   UNL     1     -12.080  10.982  21.982  0.00  0.00    +0.065 C 
ATOM     17  C   UNL     1     -15.323   7.141  22.679  0.00  0.00    +0.068 C 
BRANCH   5  16
ATOM     16  C   UNL     1     -13.604  11.193  24.596  0.00  0.00    +0.178 C 
BRANCH  16  19
ATOM     19  C   UNL     1     -12.733  10.813  25.768  0.00  0.00    -0.026 A 
ATOM     22  C   UNL     1     -11.353  10.702  25.603  0.00  0.00    +0.005 A 
ATOM     23  C   UNL     1     -13.309  10.573  27.015  0.00  0.00    +0.005 A 
ATOM     26  C   UNL     1     -10.547  10.350  26.686  0.00  0.00    +0.000 A 
ATOM     27  C   UNL     1     -12.503  10.221  28.099  0.00  0.00    +0.000 A 
ATOM     29  C   UNL     1     -11.123  10.110  27.934  0.00  0.00    +0.000 A 
ENDBRANCH  16  19
ENDBRANCH   5  16
ENDBRANCH   7  10
BRANCH   9   4
ATOM      4  N   UNL     1     -12.250   8.038  17.410  0.00  0.00    -0.183 NA
ATOM     30  H   UNL     1     -12.880   7.241  17.565  0.00  0.00    +0.149 HD
BRANCH   4   1
ATOM      1  S   UNL     1     -12.154   8.773  15.880  0.00  0.00    +0.059 S 
ATOM      2  O   UNL     1     -10.906   8.398  15.243  0.00  0.00    -0.153 OA
ATOM      3  O   UNL     1     -12.516  10.172  16.007  0.00  0.00    -0.153 OA
BRANCH   1  18
ATOM     18  C   UNL     1     -13.471   7.975  15.012  0.00  0.00    +0.105 A 
ATOM     20  C   UNL     1     -13.266   7.503  13.715  0.00  0.00    +0.028 A 
ATOM     21  C   UNL     1     -14.716   7.821  15.621  0.00  0.00    +0.028 A 
ATOM     24  C   UNL     1     -14.305   6.878  13.027  0.00  0.00    +0.002 A 
ATOM     25  C   UNL     1     -15.755   7.194  14.934  0.00  0.00    +0.002 A 
ATOM     28  C   UNL     1     -15.550   6.724  13.637  0.00  0.00    +0.000 A 
ENDBRANCH   1  18
ENDBRANCH   4   1
ENDBRANCH   9   4
TORSDOF 6
ENDMDL
MODEL 9
REMARK VINA RESULT:      -7.2     28.102     30.328
REMARK  Name = 40777613
REMARK  8 active torsions:
REMARK  status: ('A' for Active; 'I' for Inactive)
REMARK    1  A    between atoms: S_1  and  N_4
REMARK    2  A    between atoms: S_1  and  C_18
REMARK    3  A    between atoms: N_4  and  C_9
REMARK    4  A    between atoms: N_5  and  C_16
REMARK    5  A    between atoms: C_7  and  C_10
REMARK    6  A    between atoms: C_13  and  C_15
REMARK    7  A    between atoms: C_14  and  C_17
REMARK    8  A    between atoms: C_16  and  C_19
REMARK                            x       y       z     vdW  Elec       q    Type
REMARK                         _______ _______ _______ _____ _____    ______ ____
ROOT
ATOM      7  C   UNL     1      -6.246 -10.915  16.758  0.00  0.00    +0.047 C 
ATOM      8  C   UNL     1      -7.321 -11.751  17.482  0.00  0.00    +0.037 C 
ATOM      9  C   UNL     1      -7.127 -11.481  18.978  0.00  0.00    +0.100 C 
ATOM     11  C   UNL     1      -5.237 -10.674  17.844  0.00  0.00    -0.021 C 
ATOM     12  C   UNL     1      -5.725 -10.979  19.051  0.00  0.00    -0.010 C 
ENDROOT
BRANCH   7  10
ATOM      5  N   UNL     1      -5.096 -12.079  13.481  0.00  0.00    -0.264 N 
ATOM      6  N   UNL     1      -4.682 -13.143  14.189  0.00  0.00    -0.176 NA
ATOM     10  C   UNL     1      -5.694 -11.590  15.524  0.00  0.00    +0.003 A 
ATOM     13  C   UNL     1      -5.708 -11.120  14.234  0.00  0.00    +0.041 A 
ATOM     14  C   UNL     1      -5.050 -12.839  15.437  0.00  0.00    +0.064 A 
ATOM     15  C   UNL     1      -6.238  -9.870  13.657  0.00  0.00    +0.065 C 
ATOM     17  C   UNL     1      -4.762 -13.785  16.529  0.00  0.00    +0.068 C 
BRANCH   5  16
ATOM     16  C   UNL     1      -4.865 -12.048  12.055  0.00  0.00    +0.178 C 
BRANCH  16  19
ATOM     19  C   UNL     1      -3.804 -11.058  11.643  0.00  0.00    -0.026 A 
ATOM     22  C   UNL     1      -2.563 -11.060  12.279  0.00  0.00    +0.005 A 
ATOM     23  C   UNL     1      -4.064 -10.141  10.625  0.00  0.00    +0.005 A 
ATOM     26  C   UNL     1      -1.582 -10.145  11.898  0.00  0.00    +0.000 A 
ATOM     27  C   UNL     1      -3.084  -9.225  10.244  0.00  0.00    +0.000 A 
ATOM     29  C   UNL     1      -1.843  -9.227  10.880  0.00  0.00    +0.000 A 
ENDBRANCH  16  19
ENDBRANCH   5  16
ENDBRANCH   7  10
BRANCH   9   4
ATOM      4  N   UNL     1      -8.047 -10.420  19.440  0.00  0.00    -0.183 NA
ATOM     30  H   UNL     1      -7.675  -9.464  19.504  0.00  0.00    +0.149 HD
BRANCH   4   1
ATOM      1  S   UNL     1      -9.725 -10.691  19.445  0.00  0.00    +0.059 S 
ATOM      2  O   UNL     1     -10.275 -10.284  20.725  0.00  0.00    -0.153 OA
ATOM      3  O   UNL     1      -9.989 -12.020  18.928  0.00  0.00    -0.153 OA
BRANCH   1  18
ATOM     18  C   UNL     1     -10.282  -9.541  18.223  0.00  0.00    +0.105 A 
ATOM     20  C   UNL     1     -11.644  -9.414  17.955  0.00  0.00    +0.028 A 
ATOM     21  C   UNL     1      -9.357  -8.766  17.523  0.00  0.00    +0.028 A 
ATOM     24  C   UNL     1     -12.084  -8.511  16.987  0.00  0.00    +0.002 A 
ATOM     25  C   UNL     1      -9.797  -7.862  16.556  0.00  0.00    +0.002 A 
ATOM     28  C   UNL     1     -11.160  -7.735  16.288  0.00  0.00    +0.000 A 
ENDBRANCH   1  18
ENDBRANCH   4   1
ENDBRANCH   9   4
TORSDOF 6
ENDMDL
MODEL 10
REMARK VINA RESULT:      -7.1     14.593     15.841
REMARK  Name = 40777613
REMARK  8 active torsions:
REMARK  status: ('A' for Active; 'I' for Inactive)
REMARK    1  A    between atoms: S_1  and  N_4
REMARK    2  A    between atoms: S_1  and  C_18
REMARK    3  A    between atoms: N_4  and  C_9
REMARK    4  A    between atoms: N_5  and  C_16
REMARK    5  A    between atoms: C_7  and  C_10
REMARK    6  A    between atoms: C_13  and  C_15
REMARK    7  A    between atoms: C_14  and  C_17
REMARK    8  A    between atoms: C_16  and  C_19
REMARK                            x       y       z     vdW  Elec       q    Type
REMARK                         _______ _______ _______ _____ _____    ______ ____
ROOT
ATOM      7  C   UNL     1      13.880   9.213   6.384  0.00  0.00    +0.047 C 
ATOM      8  C   UNL     1      12.846   9.287   5.241  0.00  0.00    +0.037 C 
ATOM      9  C   UNL     1      11.943   8.060   5.410  0.00  0.00    +0.100 C 
ATOM     11  C   UNL     1      13.835   7.762   6.767  0.00  0.00    -0.021 C 
ATOM     12  C   UNL     1      12.775   7.141   6.239  0.00  0.00    -0.010 C 
ENDROOT
BRANCH   7  10
ATOM      5  N   UNL     1      17.201   9.989   5.048  0.00  0.00    -0.264 N 
ATOM      6  N   UNL     1      17.135  11.004   5.926  0.00  0.00    -0.176 NA
ATOM     10  C   UNL     1      15.248   9.718   5.987  0.00  0.00    +0.003 A 
ATOM     13  C   UNL     1      16.096   9.189   5.045  0.00  0.00    +0.041 A 
ATOM     14  C   UNL     1      15.939  10.834   6.497  0.00  0.00    +0.064 A 
ATOM     15  C   UNL     1      15.960   8.018   4.159  0.00  0.00    +0.065 C 
ATOM     17  C   UNL     1      15.492  11.774   7.540  0.00  0.00    +0.068 C 
BRANCH   5  16
ATOM     16  C   UNL     1      18.380   9.844   4.226  0.00  0.00    +0.178 C 
BRANCH  16  19
ATOM     19  C   UNL     1      19.371   8.845   4.772  0.00  0.00    -0.026 A 
ATOM     22  C   UNL     1      19.802   7.784   3.977  0.00  0.00    +0.005 A 
ATOM     23  C   UNL     1      19.854   8.984   6.073  0.00  0.00    +0.005 A 
ATOM     26  C   UNL     1      20.717   6.861   4.483  0.00  0.00    +0.000 A 
ATOM     27  C   UNL     1      20.770   8.061   6.579  0.00  0.00    +0.000 A 
ATOM     29  C   UNL     1      21.201   7.000   5.784  0.00  0.00    +0.000 A 
ENDBRANCH  16  19
ENDBRANCH   5  16
ENDBRANCH   7  10
BRANCH   9   4
ATOM      4  N   UNL     1      10.719   8.413   6.160  0.00  0.00    -0.183 NA
ATOM     30  H   UNL     1      10.703   9.319   6.644  0.00  0.00    +0.149 HD
BRANCH   4   1
ATOM      1  S   UNL     1       9.273   7.566   5.875  0.00  0.00    +0.059 S 
ATOM      2  O   UNL     1       9.318   6.965   4.556  0.00  0.00    -0.153 OA
ATOM      3  O   UNL     1       8.153   8.406   6.256  0.00  0.00    -0.153 OA
BRANCH   1  18
ATOM     18  C   UNL     1       9.373   6.267   7.070  0.00  0.00    +0.105 A 
ATOM     20  C   UNL     1       9.069   6.524   8.406  0.00  0.00    +0.028 A 
ATOM     21  C   UNL     1       9.759   4.985   6.676  0.00  0.00    +0.028 A 
ATOM     24  C   UNL     1       9.152   5.500   9.350  0.00  0.00    +0.002 A 
ATOM     25  C   UNL     1       9.841   3.962   7.619  0.00  0.00    +0.002 A 
ATOM     28  C   UNL     1       9.538   4.219   8.957  0.00  0.00    +0.000 A 
ENDBRANCH   1  18
ENDBRANCH   4   1
ENDBRANCH   9   4
TORSDOF 6
ENDMDL
