MODEL 1
REMARK VINA RESULT:      -7.9      0.000      0.000
REMARK  Name = 7144075
REMARK  5 active torsions:
REMARK  status: ('A' for Active; 'I' for Inactive)
REMARK    1  A    between atoms: O_3  and  C_19
REMARK    2  A    between atoms: N_4  and  C_13
REMARK    3  A    between atoms: C_13  and  C_18
REMARK    4  A    between atoms: C_16  and  C_20
REMARK    5  A    between atoms: C_24  and  C_26
REMARK                            x       y       z     vdW  Elec       q    Type
REMARK                         _______ _______ _______ _____ _____    ______ ____
ROOT
ATOM      2  O   UNL     1      17.251   9.515  20.543  0.00  0.00    -0.267 OA
ATOM      4  N   UNL     1      12.316  10.319  20.806  0.00  0.00    -0.297 NA
ATOM      5  N   UNL     1      15.094   9.179  19.724  0.00  0.00    -0.311 N 
ATOM      6  C   UNL     1      13.644  11.093  18.825  0.00  0.00    +0.024 C 
ATOM      7  C   UNL     1      12.758   8.811  18.863  0.00  0.00    +0.050 C 
ATOM      8  C   UNL     1      13.017  10.011  17.956  0.00  0.00    +0.017 C 
ATOM      9  C   UNL     1      12.685  11.471  19.974  0.00  0.00    +0.090 C 
ATOM     10  C   UNL     1      11.782   9.217  19.991  0.00  0.00    +0.094 C 
ATOM     11  C   UNL     1      15.004  10.594  19.333  0.00  0.00    +0.130 C 
ATOM     12  C   UNL     1      14.056   8.287  19.446  0.00  0.00    +0.026 A 
ATOM     14  C   UNL     1      14.204   6.980  19.713  0.00  0.00    +0.022 A 
ATOM     15  C   UNL     1      16.309   8.758  20.300  0.00  0.00    +0.259 A 
ATOM     16  C   UNL     1      16.436   7.290  20.613  0.00  0.00    +0.040 A 
ATOM     17  C   UNL     1      15.412   6.481  20.306  0.00  0.00    +0.015 A 
ENDROOT
BRANCH  16  20
ATOM     20  C   UNL     1      17.641   6.784  21.218  0.00  0.00    +0.014 C 
ATOM     24  C   UNL     1      18.658   6.284  20.506  0.00  0.00    +0.008 C 
BRANCH  24  26
ATOM      1 CL   UNL     1      23.706   4.112  22.827  0.00  0.00    -0.084 Cl
ATOM     26  C   UNL     1      19.905   5.747  21.079  0.00  0.00    -0.025 A 
ATOM     27  C   UNL     1      20.410   6.302  22.243  0.00  0.00    +0.009 A 
ATOM     28  C   UNL     1      20.548   4.698  20.443  0.00  0.00    +0.009 A 
ATOM     29  C   UNL     1      21.591   5.795  22.785  0.00  0.00    +0.020 A 
ATOM     30  C   UNL     1      21.728   4.190  20.985  0.00  0.00    +0.020 A 
ATOM     31  C   UNL     1      22.250   4.738  22.157  0.00  0.00    +0.041 A 
ENDBRANCH  24  26
ENDBRANCH  16  20
BRANCH   4  13
ATOM     13  C   UNL     1      11.368  10.708  21.847  0.00  0.00    +0.123 C 
BRANCH  13  18
ATOM     18  C   UNL     1      12.086  11.197  23.076  0.00  0.00    +0.008 A 
ATOM     19  C   UNL     1      11.376  11.781  24.117  0.00  0.00    +0.121 A 
ATOM     21  C   UNL     1      13.466  11.054  23.148  0.00  0.00    +0.008 A 
ATOM     22  C   UNL     1      12.056  12.230  25.249  0.00  0.00    +0.046 A 
ATOM     23  C   UNL     1      14.146  11.503  24.279  0.00  0.00    +0.001 A 
ATOM     25  C   UNL     1      13.442  12.091  25.330  0.00  0.00    +0.004 A 
BRANCH  19   3
ATOM      3  O   UNL     1      10.023  11.924  24.054  0.00  0.00    -0.506 OA
ATOM     32  H   UNL     1       9.783  12.299  23.190  0.00  0.00    +0.292 HD
ENDBRANCH  19   3
ENDBRANCH  13  18
ENDBRANCH   4  13
TORSDOF 5
ENDMDL
MODEL 2
REMARK VINA RESULT:      -7.8     28.114     30.649
REMARK  Name = 7144075
REMARK  5 active torsions:
REMARK  status: ('A' for Active; 'I' for Inactive)
REMARK    1  A    between atoms: O_3  and  C_19
REMARK    2  A    between atoms: N_4  and  C_13
REMARK    3  A    between atoms: C_13  and  C_18
REMARK    4  A    between atoms: C_16  and  C_20
REMARK    5  A    between atoms: C_24  and  C_26
REMARK                            x       y       z     vdW  Elec       q    Type
REMARK                         _______ _______ _______ _____ _____    ______ ____
ROOT
ATOM      2  O   UNL     1      -6.289 -11.298  10.987  0.00  0.00    -0.267 OA
ATOM      4  N   UNL     1      -3.267 -11.091  14.973  0.00  0.00    -0.297 NA
ATOM      5  N   UNL     1      -4.176 -11.523  11.945  0.00  0.00    -0.311 N 
ATOM      6  C   UNL     1      -3.662 -13.253  13.766  0.00  0.00    +0.024 C 
ATOM      7  C   UNL     1      -1.896 -11.745  12.989  0.00  0.00    +0.050 C 
ATOM      8  C   UNL     1      -2.250 -13.215  13.195  0.00  0.00    +0.017 C 
ATOM      9  C   UNL     1      -3.712 -12.484  15.104  0.00  0.00    +0.090 C 
ATOM     10  C   UNL     1      -1.939 -11.008  14.348  0.00  0.00    +0.094 C 
ATOM     11  C   UNL     1      -4.633 -12.684  12.723  0.00  0.00    +0.130 C 
ATOM     12  C   UNL     1      -2.847 -11.095  12.002  0.00  0.00    +0.026 A 
ATOM     14  C   UNL     1      -2.425 -10.104  11.202  0.00  0.00    +0.022 A 
ATOM     15  C   UNL     1      -5.115 -10.934  11.075  0.00  0.00    +0.259 A 
ATOM     16  C   UNL     1      -4.619  -9.807  10.208  0.00  0.00    +0.040 A 
ATOM     17  C   UNL     1      -3.328  -9.453  10.296  0.00  0.00    +0.015 A 
ENDROOT
BRANCH  16  20
ATOM     20  C   UNL     1      -5.522  -9.142   9.304  0.00  0.00    +0.014 C 
ATOM     24  C   UNL     1      -5.832  -9.629   8.097  0.00  0.00    +0.008 C 
BRANCH  24  26
ATOM      1 CL   UNL     1      -9.516  -7.008   4.204  0.00  0.00    -0.084 Cl
ATOM     26  C   UNL     1      -6.741  -8.982   7.135  0.00  0.00    -0.025 A 
ATOM     27  C   UNL     1      -7.674  -8.066   7.594  0.00  0.00    +0.009 A 
ATOM     28  C   UNL     1      -6.647  -9.301   5.790  0.00  0.00    +0.009 A 
ATOM     29  C   UNL     1      -8.536  -7.454   6.684  0.00  0.00    +0.020 A 
ATOM     30  C   UNL     1      -7.509  -8.688   4.880  0.00  0.00    +0.020 A 
ATOM     31  C   UNL     1      -8.453  -7.764   5.327  0.00  0.00    +0.041 A 
ENDBRANCH  24  26
ENDBRANCH  16  20
BRANCH   4  13
ATOM     13  C   UNL     1      -3.280 -10.415  16.268  0.00  0.00    +0.123 C 
BRANCH  13  18
ATOM     18  C   UNL     1      -4.678 -10.323  16.816  0.00  0.00    +0.008 A 
ATOM     19  C   UNL     1      -5.707  -9.814  16.033  0.00  0.00    +0.121 A 
ATOM     21  C   UNL     1      -4.919 -10.754  18.115  0.00  0.00    +0.008 A 
ATOM     22  C   UNL     1      -6.997  -9.735  16.557  0.00  0.00    +0.046 A 
ATOM     23  C   UNL     1      -6.209 -10.675  18.639  0.00  0.00    +0.001 A 
ATOM     25  C   UNL     1      -7.248 -10.166  17.860  0.00  0.00    +0.004 A 
BRANCH  19   3
ATOM      3  O   UNL     1      -5.479  -9.389  14.759  0.00  0.00    -0.506 OA
ATOM     32  H   UNL     1      -6.241  -8.866  14.458  0.00  0.00    +0.292 HD
ENDBRANCH  19   3
ENDBRANCH  13  18
ENDBRANCH   4  13
TORSDOF 5
ENDMDL
MODEL 3
REMARK VINA RESULT:      -7.6      3.086      4.889
REMARK  Name = 7144075
REMARK  5 active torsions:
REMARK  status: ('A' for Active; 'I' for Inactive)
REMARK    1  A    between atoms: O_3  and  C_19
REMARK    2  A    between atoms: N_4  and  C_13
REMARK    3  A    between atoms: C_13  and  C_18
REMARK    4  A    between atoms: C_16  and  C_20
REMARK    5  A    between atoms: C_24  and  C_26
REMARK                            x       y       z     vdW  Elec       q    Type
REMARK                         _______ _______ _______ _____ _____    ______ ____
ROOT
ATOM      2  O   UNL     1      16.184   5.828  18.406  0.00  0.00    -0.267 OA
ATOM      4  N   UNL     1      13.442  10.016  18.480  0.00  0.00    -0.297 NA
ATOM      5  N   UNL     1      14.794   7.324  19.532  0.00  0.00    -0.311 N 
ATOM      6  C   UNL     1      12.375   7.771  18.811  0.00  0.00    +0.024 C 
ATOM      7  C   UNL     1      13.307   8.957  20.740  0.00  0.00    +0.050 C 
ATOM      8  C   UNL     1      12.148   8.074  20.287  0.00  0.00    +0.017 C 
ATOM      9  C   UNL     1      12.413   9.085  18.002  0.00  0.00    +0.090 C 
ATOM     10  C   UNL     1      13.307  10.270  19.923  0.00  0.00    +0.094 C 
ATOM     11  C   UNL     1      13.665   6.953  18.666  0.00  0.00    +0.130 C 
ATOM     12  C   UNL     1      14.631   8.232  20.580  0.00  0.00    +0.026 A 
ATOM     14  C   UNL     1      15.645   8.473  21.425  0.00  0.00    +0.022 A 
ATOM     15  C   UNL     1      16.011   6.648  19.311  0.00  0.00    +0.259 A 
ATOM     16  C   UNL     1      17.139   6.958  20.259  0.00  0.00    +0.040 A 
ATOM     17  C   UNL     1      16.915   7.826  21.257  0.00  0.00    +0.015 A 
ENDROOT
BRANCH  16  20
ATOM     20  C   UNL     1      18.419   6.320  20.089  0.00  0.00    +0.014 C 
ATOM     24  C   UNL     1      19.414   6.440  20.975  0.00  0.00    +0.008 C 
BRANCH  24  26
ATOM      1 CL   UNL     1      24.792   3.913  20.430  0.00  0.00    -0.084 Cl
ATOM     26  C   UNL     1      20.742   5.815  20.841  0.00  0.00    -0.025 A 
ATOM     27  C   UNL     1      21.846   6.615  20.592  0.00  0.00    +0.009 A 
ATOM     28  C   UNL     1      20.863   4.441  20.966  0.00  0.00    +0.009 A 
ATOM     29  C   UNL     1      23.103   6.024  20.464  0.00  0.00    +0.020 A 
ATOM     30  C   UNL     1      22.120   3.850  20.838  0.00  0.00    +0.020 A 
ATOM     31  C   UNL     1      23.240   4.642  20.587  0.00  0.00    +0.041 A 
ENDBRANCH  24  26
ENDBRANCH  16  20
BRANCH   4  13
ATOM     13  C   UNL     1      13.410  11.266  17.724  0.00  0.00    +0.123 C 
BRANCH  13  18
ATOM     18  C   UNL     1      14.538  11.324  16.729  0.00  0.00    +0.008 A 
ATOM     19  C   UNL     1      14.446  10.639  15.524  0.00  0.00    +0.121 A 
ATOM     21  C   UNL     1      15.666  12.073  17.039  0.00  0.00    +0.008 A 
ATOM     22  C   UNL     1      15.501  10.704  14.614  0.00  0.00    +0.046 A 
ATOM     23  C   UNL     1      16.720  12.137  16.128  0.00  0.00    +0.001 A 
ATOM     25  C   UNL     1      16.638  11.453  14.916  0.00  0.00    +0.004 A 
BRANCH  19   3
ATOM      3  O   UNL     1      13.343   9.903  15.214  0.00  0.00    -0.506 OA
ATOM     32  H   UNL     1      13.067  10.112  14.305  0.00  0.00    +0.292 HD
ENDBRANCH  19   3
ENDBRANCH  13  18
ENDBRANCH   4  13
TORSDOF 5
ENDMDL
MODEL 4
REMARK VINA RESULT:      -7.5     28.306     31.138
REMARK  Name = 7144075
REMARK  5 active torsions:
REMARK  status: ('A' for Active; 'I' for Inactive)
REMARK    1  A    between atoms: O_3  and  C_19
REMARK    2  A    between atoms: N_4  and  C_13
REMARK    3  A    between atoms: C_13  and  C_18
REMARK    4  A    between atoms: C_16  and  C_20
REMARK    5  A    between atoms: C_24  and  C_26
REMARK                            x       y       z     vdW  Elec       q    Type
REMARK                         _______ _______ _______ _____ _____    ______ ____
ROOT
ATOM      2  O   UNL     1      -6.599  -9.964  14.153  0.00  0.00    -0.267 OA
ATOM      4  N   UNL     1      -2.881 -13.170  13.171  0.00  0.00    -0.297 NA
ATOM      5  N   UNL     1      -4.331 -10.500  14.150  0.00  0.00    -0.311 N 
ATOM      6  C   UNL     1      -3.023 -10.961  11.993  0.00  0.00    +0.024 C 
ATOM      7  C   UNL     1      -1.886 -11.101  14.157  0.00  0.00    +0.050 C 
ATOM      8  C   UNL     1      -1.829 -10.441  12.782  0.00  0.00    +0.017 C 
ATOM      9  C   UNL     1      -2.945 -12.498  11.868  0.00  0.00    +0.090 C 
ATOM     10  C   UNL     1      -1.789 -12.636  13.998  0.00  0.00    +0.094 C 
ATOM     11  C   UNL     1      -4.313 -10.492  12.679  0.00  0.00    +0.130 C 
ATOM     12  C   UNL     1      -3.163 -10.722  14.883  0.00  0.00    +0.026 A 
ATOM     14  C   UNL     1      -3.179 -10.617  16.221  0.00  0.00    +0.022 A 
ATOM     15  C   UNL     1      -5.555 -10.182  14.771  0.00  0.00    +0.259 A 
ATOM     16  C   UNL     1      -5.549 -10.098  16.274  0.00  0.00    +0.040 A 
ATOM     17  C   UNL     1      -4.392 -10.302  16.921  0.00  0.00    +0.015 A 
ENDROOT
BRANCH  16  20
ATOM     20  C   UNL     1      -6.765  -9.793  16.983  0.00  0.00    +0.014 C 
ATOM     24  C   UNL     1      -7.589 -10.737  17.453  0.00  0.00    +0.008 C 
BRANCH  24  26
ATOM      1 CL   UNL     1     -12.680  -9.678  20.378  0.00  0.00    -0.084 Cl
ATOM     26  C   UNL     1      -8.847 -10.475  18.175  0.00  0.00    -0.025 A 
ATOM     27  C   UNL     1      -9.037 -11.031  19.429  0.00  0.00    +0.009 A 
ATOM     28  C   UNL     1      -9.814  -9.677  17.587  0.00  0.00    +0.009 A 
ATOM     29  C   UNL     1     -10.227 -10.784  20.113  0.00  0.00    +0.020 A 
ATOM     30  C   UNL     1     -11.005  -9.430  18.270  0.00  0.00    +0.020 A 
ATOM     31  C   UNL     1     -11.211  -9.983  19.534  0.00  0.00    +0.041 A 
ENDBRANCH  24  26
ENDBRANCH  16  20
BRANCH   4  13
ATOM     13  C   UNL     1      -2.756 -14.616  13.009  0.00  0.00    +0.123 C 
BRANCH  13  18
ATOM     18  C   UNL     1      -3.037 -15.332  14.302  0.00  0.00    +0.008 A 
ATOM     19  C   UNL     1      -4.197 -15.061  15.017  0.00  0.00    +0.121 A 
ATOM     21  C   UNL     1      -2.118 -16.265  14.766  0.00  0.00    +0.008 A 
ATOM     22  C   UNL     1      -4.442 -15.733  16.214  0.00  0.00    +0.046 A 
ATOM     23  C   UNL     1      -2.362 -16.937  15.963  0.00  0.00    +0.001 A 
ATOM     25  C   UNL     1      -3.524 -16.672  16.687  0.00  0.00    +0.004 A 
BRANCH  19   3
ATOM      3  O   UNL     1      -5.103 -14.148  14.569  0.00  0.00    -0.506 OA
ATOM     32  H   UNL     1      -5.819 -14.613  14.103  0.00  0.00    +0.292 HD
ENDBRANCH  19   3
ENDBRANCH  13  18
ENDBRANCH   4  13
TORSDOF 5
ENDMDL
MODEL 5
REMARK VINA RESULT:      -7.4     24.083     28.256
REMARK  Name = 7144075
REMARK  5 active torsions:
REMARK  status: ('A' for Active; 'I' for Inactive)
REMARK    1  A    between atoms: O_3  and  C_19
REMARK    2  A    between atoms: N_4  and  C_13
REMARK    3  A    between atoms: C_13  and  C_18
REMARK    4  A    between atoms: C_16  and  C_20
REMARK    5  A    between atoms: C_24  and  C_26
REMARK                            x       y       z     vdW  Elec       q    Type
REMARK                         _______ _______ _______ _____ _____    ______ ____
ROOT
ATOM      2  O   UNL     1      -6.447  10.070   5.625  0.00  0.00    -0.267 OA
ATOM      4  N   UNL     1      -1.758  10.637   3.965  0.00  0.00    -0.297 NA
ATOM      5  N   UNL     1      -4.189   9.495   5.689  0.00  0.00    -0.311 N 
ATOM      6  C   UNL     1      -2.357  11.166   6.342  0.00  0.00    +0.024 C 
ATOM      7  C   UNL     1      -1.750   8.873   5.735  0.00  0.00    +0.050 C 
ATOM      8  C   UNL     1      -1.610   9.931   6.826  0.00  0.00    +0.017 C 
ATOM      9  C   UNL     1      -1.749  11.664   5.013  0.00  0.00    +0.090 C 
ATOM     10  C   UNL     1      -1.118   9.395   4.425  0.00  0.00    +0.094 C 
ATOM     11  C   UNL     1      -3.848  10.826   6.215  0.00  0.00    +0.130 C 
ATOM     12  C   UNL     1      -3.208   8.516   5.516  0.00  0.00    +0.026 A 
ATOM     14  C   UNL     1      -3.556   7.276   5.139  0.00  0.00    +0.022 A 
ATOM     15  C   UNL     1      -5.556   9.234   5.465  0.00  0.00    +0.259 A 
ATOM     16  C   UNL     1      -5.912   7.841   5.018  0.00  0.00    +0.040 A 
ATOM     17  C   UNL     1      -4.928   6.940   4.887  0.00  0.00    +0.015 A 
ENDROOT
BRANCH  16  20
ATOM     20  C   UNL     1      -7.287   7.500   4.752  0.00  0.00    +0.014 C 
ATOM     24  C   UNL     1      -8.071   6.890   5.648  0.00  0.00    +0.008 C 
BRANCH  24  26
ATOM      1 CL   UNL     1     -13.763   5.362   4.722  0.00  0.00    -0.084 Cl
ATOM     26  C   UNL     1      -9.477   6.513   5.420  0.00  0.00    -0.025 A 
ATOM     27  C   UNL     1      -9.763   5.337   4.746  0.00  0.00    +0.009 A 
ATOM     28  C   UNL     1     -10.486   7.341   5.883  0.00  0.00    +0.009 A 
ATOM     29  C   UNL     1     -11.093   4.980   4.529  0.00  0.00    +0.020 A 
ATOM     30  C   UNL     1     -11.817   6.984   5.666  0.00  0.00    +0.020 A 
ATOM     31  C   UNL     1     -12.121   5.803   4.989  0.00  0.00    +0.041 A 
ENDBRANCH  24  26
ENDBRANCH  16  20
BRANCH   4  13
ATOM     13  C   UNL     1      -1.128  11.130   2.743  0.00  0.00    +0.123 C 
BRANCH  13  18
ATOM     18  C   UNL     1      -1.731  10.484   1.525  0.00  0.00    +0.008 A 
ATOM     19  C   UNL     1      -0.920   9.854   0.589  0.00  0.00    +0.121 A 
ATOM     21  C   UNL     1      -3.109  10.529   1.356  0.00  0.00    +0.008 A 
ATOM     22  C   UNL     1      -1.496   9.261  -0.534  0.00  0.00    +0.046 A 
ATOM     23  C   UNL     1      -3.685   9.937   0.232  0.00  0.00    +0.001 A 
ATOM     25  C   UNL     1      -2.879   9.302  -0.712  0.00  0.00    +0.004 A 
BRANCH  19   3
ATOM      3  O   UNL     1       0.432   9.805   0.749  0.00  0.00    -0.506 OA
ATOM     32  H   UNL     1       0.805  10.685   0.567  0.00  0.00    +0.292 HD
ENDBRANCH  19   3
ENDBRANCH  13  18
ENDBRANCH   4  13
TORSDOF 5
ENDMDL
MODEL 6
REMARK VINA RESULT:      -7.2     14.740     17.090
REMARK  Name = 7144075
REMARK  5 active torsions:
REMARK  status: ('A' for Active; 'I' for Inactive)
REMARK    1  A    between atoms: O_3  and  C_19
REMARK    2  A    between atoms: N_4  and  C_13
REMARK    3  A    between atoms: C_13  and  C_18
REMARK    4  A    between atoms: C_16  and  C_20
REMARK    5  A    between atoms: C_24  and  C_26
REMARK                            x       y       z     vdW  Elec       q    Type
REMARK                         _______ _______ _______ _____ _____    ______ ____
ROOT
ATOM      2  O   UNL     1      13.922   6.251   7.454  0.00  0.00    -0.267 OA
ATOM      4  N   UNL     1       9.526   7.213   5.259  0.00  0.00    -0.297 NA
ATOM      5  N   UNL     1      12.121   7.677   7.058  0.00  0.00    -0.311 N 
ATOM      6  C   UNL     1       9.723   7.101   7.757  0.00  0.00    +0.024 C 
ATOM      7  C   UNL     1      10.179   9.214   6.607  0.00  0.00    +0.050 C 
ATOM      8  C   UNL     1       9.548   8.611   7.858  0.00  0.00    +0.017 C 
ATOM      9  C   UNL     1       9.028   6.573   6.483  0.00  0.00    +0.090 C 
ATOM     10  C   UNL     1       9.452   8.679   5.352  0.00  0.00    +0.094 C 
ATOM     11  C   UNL     1      11.221   6.773   7.789  0.00  0.00    +0.130 C 
ATOM     12  C   UNL     1      11.660   8.890   6.541  0.00  0.00    +0.026 A 
ATOM     14  C   UNL     1      12.520   9.750   5.974  0.00  0.00    +0.022 A 
ATOM     15  C   UNL     1      13.479   7.304   6.993  0.00  0.00    +0.259 A 
ATOM     16  C   UNL     1      14.416   8.277   6.328  0.00  0.00    +0.040 A 
ATOM     17  C   UNL     1      13.916   9.433   5.867  0.00  0.00    +0.015 A 
ENDROOT
BRANCH  16  20
ATOM     20  C   UNL     1      15.816   7.961   6.208  0.00  0.00    +0.014 C 
ATOM     24  C   UNL     1      16.708   8.803   5.673  0.00  0.00    +0.008 C 
BRANCH  24  26
ATOM      1 CL   UNL     1      22.532   7.664   5.057  0.00  0.00    -0.084 Cl
ATOM     26  C   UNL     1      18.147   8.521   5.520  0.00  0.00    -0.025 A 
ATOM     27  C   UNL     1      18.992   8.704   6.603  0.00  0.00    +0.009 A 
ATOM     28  C   UNL     1      18.626   8.079   4.298  0.00  0.00    +0.009 A 
ATOM     29  C   UNL     1      20.354   8.438   6.458  0.00  0.00    +0.020 A 
ATOM     30  C   UNL     1      19.988   7.814   4.154  0.00  0.00    +0.020 A 
ATOM     31  C   UNL     1      20.852   7.992   5.234  0.00  0.00    +0.041 A 
ENDBRANCH  24  26
ENDBRANCH  16  20
BRANCH   4  13
ATOM     13  C   UNL     1       8.809   6.726   4.084  0.00  0.00    +0.123 C 
BRANCH  13  18
ATOM     18  C   UNL     1       9.762   6.166   3.063  0.00  0.00    +0.008 A 
ATOM     19  C   UNL     1      10.578   5.088   3.381  0.00  0.00    +0.121 A 
ATOM     21  C   UNL     1       9.809   6.745   1.801  0.00  0.00    +0.008 A 
ATOM     22  C   UNL     1      11.456   4.582   2.423  0.00  0.00    +0.046 A 
ATOM     23  C   UNL     1      10.687   6.239   0.843  0.00  0.00    +0.001 A 
ATOM     25  C   UNL     1      11.510   5.158   1.154  0.00  0.00    +0.004 A 
BRANCH  19   3
ATOM      3  O   UNL     1      10.538   4.514   4.616  0.00  0.00    -0.506 OA
ATOM     32  H   UNL     1      11.407   4.613   5.041  0.00  0.00    +0.292 HD
ENDBRANCH  19   3
ENDBRANCH  13  18
ENDBRANCH   4  13
TORSDOF 5
ENDMDL
MODEL 7
REMARK VINA RESULT:      -7.1     27.324     30.478
REMARK  Name = 7144075
REMARK  5 active torsions:
REMARK  status: ('A' for Active; 'I' for Inactive)
REMARK    1  A    between atoms: O_3  and  C_19
REMARK    2  A    between atoms: N_4  and  C_13
REMARK    3  A    between atoms: C_13  and  C_18
REMARK    4  A    between atoms: C_16  and  C_20
REMARK    5  A    between atoms: C_24  and  C_26
REMARK                            x       y       z     vdW  Elec       q    Type
REMARK                         _______ _______ _______ _____ _____    ______ ____
ROOT
ATOM      2  O   UNL     1     -14.751   9.165  20.962  0.00  0.00    -0.267 OA
ATOM      4  N   UNL     1     -12.018   9.225  16.768  0.00  0.00    -0.297 NA
ATOM      5  N   UNL     1     -12.682   9.154  19.889  0.00  0.00    -0.311 N 
ATOM      6  C   UNL     1     -11.873  11.099  18.427  0.00  0.00    +0.024 C 
ATOM      7  C   UNL     1     -10.455   9.125  18.715  0.00  0.00    +0.050 C 
ATOM      8  C   UNL     1     -10.483  10.645  18.850  0.00  0.00    +0.017 C 
ATOM      9  C   UNL     1     -12.148  10.673  16.969  0.00  0.00    +0.090 C 
ATOM     10  C   UNL     1     -10.716   8.732  17.243  0.00  0.00    +0.094 C 
ATOM     11  C   UNL     1     -12.903  10.527  19.411  0.00  0.00    +0.130 C 
ATOM     12  C   UNL     1     -11.485   8.484  19.626  0.00  0.00    +0.026 A 
ATOM     14  C   UNL     1     -11.260   7.275  20.163  0.00  0.00    +0.022 A 
ATOM     15  C   UNL     1     -13.691   8.595  20.697  0.00  0.00    +0.259 A 
ATOM     16  C   UNL     1     -13.422   7.226  21.264  0.00  0.00    +0.040 A 
ATOM     17  C   UNL     1     -12.246   6.641  20.991  0.00  0.00    +0.015 A 
ENDROOT
BRANCH  16  20
ATOM     20  C   UNL     1     -14.412   6.579  22.087  0.00  0.00    +0.014 C 
ATOM     24  C   UNL     1     -14.455   5.254  22.266  0.00  0.00    +0.008 C 
BRANCH  24  26
ATOM      1 CL   UNL     1     -18.490   2.390  25.599  0.00  0.00    -0.084 Cl
ATOM     26  C   UNL     1     -15.452   4.547  23.089  0.00  0.00    -0.025 A 
ATOM     27  C   UNL     1     -15.064   3.994  24.299  0.00  0.00    +0.009 A 
ATOM     28  C   UNL     1     -16.758   4.448  22.638  0.00  0.00    +0.009 A 
ATOM     29  C   UNL     1     -16.007   3.324  25.078  0.00  0.00    +0.020 A 
ATOM     30  C   UNL     1     -17.702   3.778  23.417  0.00  0.00    +0.020 A 
ATOM     31  C   UNL     1     -17.326   3.217  24.637  0.00  0.00    +0.041 A 
ENDBRANCH  24  26
ENDBRANCH  16  20
BRANCH   4  13
ATOM     13  C   UNL     1     -12.233   8.869  15.367  0.00  0.00    +0.123 C 
BRANCH  13  18
ATOM     18  C   UNL     1     -13.556   8.177  15.183  0.00  0.00    +0.008 A 
ATOM     19  C   UNL     1     -13.852   7.536  13.986  0.00  0.00    +0.121 A 
ATOM     21  C   UNL     1     -14.472   8.192  16.228  0.00  0.00    +0.008 A 
ATOM     22  C   UNL     1     -15.084   6.900  13.831  0.00  0.00    +0.046 A 
ATOM     23  C   UNL     1     -15.703   7.555  16.073  0.00  0.00    +0.001 A 
ATOM     25  C   UNL     1     -16.009   6.909  14.875  0.00  0.00    +0.004 A 
BRANCH  19   3
ATOM      3  O   UNL     1     -12.960   7.518  12.957  0.00  0.00    -0.506 OA
ATOM     32  H   UNL     1     -12.452   8.347  12.962  0.00  0.00    +0.292 HD
ENDBRANCH  19   3
ENDBRANCH  13  18
ENDBRANCH   4  13
TORSDOF 5
ENDMDL
MODEL 8
REMARK VINA RESULT:      -7.0     13.706     16.999
REMARK  Name = 7144075
REMARK  5 active torsions:
REMARK  status: ('A' for Active; 'I' for Inactive)
REMARK    1  A    between atoms: O_3  and  C_19
REMARK    2  A    between atoms: N_4  and  C_13
REMARK    3  A    between atoms: C_13  and  C_18
REMARK    4  A    between atoms: C_16  and  C_20
REMARK    5  A    between atoms: C_24  and  C_26
REMARK                            x       y       z     vdW  Elec       q    Type
REMARK                         _______ _______ _______ _____ _____    ______ ____
ROOT
ATOM      2  O   UNL     1      18.214  -5.604  28.774  0.00  0.00    -0.267 OA
ATOM      4  N   UNL     1      19.134  -5.329  23.860  0.00  0.00    -0.297 NA
ATOM      5  N   UNL     1      18.349  -6.610  26.676  0.00  0.00    -0.311 N 
ATOM      6  C   UNL     1      20.543  -6.765  25.357  0.00  0.00    +0.024 C 
ATOM      7  C   UNL     1      18.483  -7.680  24.401  0.00  0.00    +0.050 C 
ATOM      8  C   UNL     1      19.924  -8.024  24.764  0.00  0.00    +0.017 C 
ATOM      9  C   UNL     1      20.496  -5.617  24.325  0.00  0.00    +0.090 C 
ATOM     10  C   UNL     1      18.471  -6.540  23.355  0.00  0.00    +0.094 C 
ATOM     11  C   UNL     1      19.807  -6.417  26.658  0.00  0.00    +0.130 C 
ATOM     12  C   UNL     1      17.698  -7.276  25.635  0.00  0.00    +0.026 A 
ATOM     14  C   UNL     1      16.385  -7.538  25.722  0.00  0.00    +0.022 A 
ATOM     15  C   UNL     1      17.667  -6.178  27.831  0.00  0.00    +0.259 A 
ATOM     16  C   UNL     1      16.189  -6.462  27.888  0.00  0.00    +0.040 A 
ATOM     17  C   UNL     1      15.625  -7.122  26.866  0.00  0.00    +0.015 A 
ENDROOT
BRANCH  16  20
ATOM     20  C   UNL     1      15.418  -6.038  29.029  0.00  0.00    +0.014 C 
ATOM     24  C   UNL     1      14.311  -6.670  29.434  0.00  0.00    +0.008 C 
BRANCH  24  26
ATOM      1 CL   UNL     1      10.965  -5.047  34.099  0.00  0.00    -0.084 Cl
ATOM     26  C   UNL     1      13.485  -6.269  30.587  0.00  0.00    -0.025 A 
ATOM     27  C   UNL     1      12.321  -6.967  30.862  0.00  0.00    +0.009 A 
ATOM     28  C   UNL     1      13.888  -5.202  31.373  0.00  0.00    +0.009 A 
ATOM     29  C   UNL     1      11.538  -6.587  31.952  0.00  0.00    +0.020 A 
ATOM     30  C   UNL     1      13.106  -4.822  32.463  0.00  0.00    +0.020 A 
ATOM     31  C   UNL     1      11.931  -5.515  32.753  0.00  0.00    +0.041 A 
ENDBRANCH  24  26
ENDBRANCH  16  20
BRANCH   4  13
ATOM     13  C   UNL     1      19.139  -4.274  22.849  0.00  0.00    +0.123 C 
BRANCH  13  18
ATOM     18  C   UNL     1      18.368  -3.071  23.319  0.00  0.00    +0.008 A 
ATOM     19  C   UNL     1      18.911  -2.218  24.272  0.00  0.00    +0.121 A 
ATOM     21  C   UNL     1      17.109  -2.830  22.784  0.00  0.00    +0.008 A 
ATOM     22  C   UNL     1      18.183  -1.107  24.698  0.00  0.00    +0.046 A 
ATOM     23  C   UNL     1      16.381  -1.719  23.209  0.00  0.00    +0.001 A 
ATOM     25  C   UNL     1      16.918  -0.857  24.166  0.00  0.00    +0.004 A 
BRANCH  19   3
ATOM      3  O   UNL     1      20.145  -2.447  24.801  0.00  0.00    -0.506 OA
ATOM     32  H   UNL     1      20.112  -2.299  25.762  0.00  0.00    +0.292 HD
ENDBRANCH  19   3
ENDBRANCH  13  18
ENDBRANCH   4  13
TORSDOF 5
ENDMDL
MODEL 9
REMARK VINA RESULT:      -7.0     28.742     31.306
REMARK  Name = 7144075
REMARK  5 active torsions:
REMARK  status: ('A' for Active; 'I' for Inactive)
REMARK    1  A    between atoms: O_3  and  C_19
REMARK    2  A    between atoms: N_4  and  C_13
REMARK    3  A    between atoms: C_13  and  C_18
REMARK    4  A    between atoms: C_16  and  C_20
REMARK    5  A    between atoms: C_24  and  C_26
REMARK                            x       y       z     vdW  Elec       q    Type
REMARK                         _______ _______ _______ _____ _____    ______ ____
ROOT
ATOM      2  O   UNL     1     -15.817   8.386  31.304  0.00  0.00    -0.267 OA
ATOM      4  N   UNL     1     -12.410  12.046  31.057  0.00  0.00    -0.297 NA
ATOM      5  N   UNL     1     -14.405   9.917  32.351  0.00  0.00    -0.311 N 
ATOM      6  C   UNL     1     -14.666  12.452  32.072  0.00  0.00    +0.024 C 
ATOM      7  C   UNL     1     -12.862  11.563  33.467  0.00  0.00    +0.050 C 
ATOM      8  C   UNL     1     -14.051  12.519  33.463  0.00  0.00    +0.017 C 
ATOM      9  C   UNL     1     -13.624  12.869  31.012  0.00  0.00    +0.090 C 
ATOM     10  C   UNL     1     -11.830  12.017  32.408  0.00  0.00    +0.094 C 
ATOM     11  C   UNL     1     -15.209  11.036  31.837  0.00  0.00    +0.130 C 
ATOM     12  C   UNL     1     -13.313  10.141  33.193  0.00  0.00    +0.026 A 
ATOM     14  C   UNL     1     -12.660   9.103  33.737  0.00  0.00    +0.022 A 
ATOM     15  C   UNL     1     -14.849   8.618  32.029  0.00  0.00    +0.259 A 
ATOM     16  C   UNL     1     -14.080   7.473  32.634  0.00  0.00    +0.040 A 
ATOM     17  C   UNL     1     -13.053   7.752  33.449  0.00  0.00    +0.015 A 
ENDROOT
BRANCH  16  20
ATOM     20  C   UNL     1     -14.461   6.115  32.340  0.00  0.00    +0.014 C 
ATOM     24  C   UNL     1     -13.635   5.076  32.504  0.00  0.00    +0.008 C 
BRANCH  24  26
ATOM      1 CL   UNL     1     -15.014  -0.604  31.313  0.00  0.00    -0.084 Cl
ATOM     26  C   UNL     1     -13.975   3.673  32.209  0.00  0.00    -0.025 A 
ATOM     27  C   UNL     1     -14.573   2.900  33.191  0.00  0.00    +0.009 A 
ATOM     28  C   UNL     1     -13.692   3.154  30.957  0.00  0.00    +0.009 A 
ATOM     29  C   UNL     1     -14.895   1.572  32.913  0.00  0.00    +0.020 A 
ATOM     30  C   UNL     1     -14.014   1.826  30.678  0.00  0.00    +0.020 A 
ATOM     31  C   UNL     1     -14.616   1.035  31.656  0.00  0.00    +0.041 A 
ENDBRANCH  24  26
ENDBRANCH  16  20
BRANCH   4  13
ATOM     13  C   UNL     1     -11.429  12.505  30.076  0.00  0.00    +0.123 C 
BRANCH  13  18
ATOM     18  C   UNL     1     -11.607  11.795  28.761  0.00  0.00    +0.008 A 
ATOM     19  C   UNL     1     -11.579  10.407  28.704  0.00  0.00    +0.121 A 
ATOM     21  C   UNL     1     -11.798  12.551  27.612  0.00  0.00    +0.008 A 
ATOM     22  C   UNL     1     -11.745   9.765  27.477  0.00  0.00    +0.046 A 
ATOM     23  C   UNL     1     -11.964  11.909  26.385  0.00  0.00    +0.001 A 
ATOM     25  C   UNL     1     -11.938  10.516  26.317  0.00  0.00    +0.004 A 
BRANCH  19   3
ATOM      3  O   UNL     1     -11.392   9.659  29.826  0.00  0.00    -0.506 OA
ATOM     32  H   UNL     1     -10.971   8.817  29.581  0.00  0.00    +0.292 HD
ENDBRANCH  19   3
ENDBRANCH  13  18
ENDBRANCH   4  13
TORSDOF 5
ENDMDL
MODEL 10
REMARK VINA RESULT:      -7.0     19.372     22.899
REMARK  Name = 7144075
REMARK  5 active torsions:
REMARK  status: ('A' for Active; 'I' for Inactive)
REMARK    1  A    between atoms: O_3  and  C_19
REMARK    2  A    between atoms: N_4  and  C_13
REMARK    3  A    between atoms: C_13  and  C_18
REMARK    4  A    between atoms: C_16  and  C_20
REMARK    5  A    between atoms: C_24  and  C_26
REMARK                            x       y       z     vdW  Elec       q    Type
REMARK                         _______ _______ _______ _____ _____    ______ ____
ROOT
ATOM      2  O   UNL     1      12.455   7.831   2.431  0.00  0.00    -0.267 OA
ATOM      4  N   UNL     1      13.605   4.240  -0.863  0.00  0.00    -0.297 NA
ATOM      5  N   UNL     1      12.916   5.599   1.941  0.00  0.00    -0.311 N 
ATOM      6  C   UNL     1      15.174   4.828   1.003  0.00  0.00    +0.024 C 
ATOM      7  C   UNL     1      13.397   3.190   1.394  0.00  0.00    +0.050 C 
ATOM      8  C   UNL     1      14.853   3.519   1.711  0.00  0.00    +0.017 C 
ATOM      9  C   UNL     1      14.966   4.670  -0.519  0.00  0.00    +0.090 C 
ATOM     10  C   UNL     1      13.226   3.021  -0.133  0.00  0.00    +0.094 C 
ATOM     11  C   UNL     1      14.305   5.942   1.603  0.00  0.00    +0.130 C 
ATOM     12  C   UNL     1      12.474   4.274   1.916  0.00  0.00    +0.026 A 
ATOM     14  C   UNL     1      11.235   3.971   2.333  0.00  0.00    +0.022 A 
ATOM     15  C   UNL     1      12.092   6.655   2.380  0.00  0.00    +0.259 A 
ATOM     16  C   UNL     1      10.698   6.287   2.817  0.00  0.00    +0.040 A 
ATOM     17  C   UNL     1      10.339   4.996   2.787  0.00  0.00    +0.015 A 
ENDROOT
BRANCH  16  20
ATOM     20  C   UNL     1       9.790   7.312   3.264  0.00  0.00    +0.014 C 
ATOM     24  C   UNL     1       8.769   7.753   2.520  0.00  0.00    +0.008 C 
BRANCH  24  26
ATOM      1 CL   UNL     1       4.929  12.008   4.177  0.00  0.00    -0.084 Cl
ATOM     26  C   UNL     1       7.820   8.804   2.928  0.00  0.00    -0.025 A 
ATOM     27  C   UNL     1       7.695   9.120   4.272  0.00  0.00    +0.009 A 
ATOM     28  C   UNL     1       7.072   9.457   1.963  0.00  0.00    +0.009 A 
ATOM     29  C   UNL     1       6.797  10.114   4.659  0.00  0.00    +0.020 A 
ATOM     30  C   UNL     1       6.174  10.452   2.350  0.00  0.00    +0.020 A 
ATOM     31  C   UNL     1       6.037  10.781   3.699  0.00  0.00    +0.041 A 
ENDBRANCH  24  26
ENDBRANCH  16  20
BRANCH   4  13
ATOM     13  C   UNL     1      13.465   4.052  -2.305  0.00  0.00    +0.123 C 
BRANCH  13  18
ATOM     18  C   UNL     1      12.015   3.990  -2.703  0.00  0.00    +0.008 A 
ATOM     19  C   UNL     1      11.136   4.992  -2.311  0.00  0.00    +0.121 A 
ATOM     21  C   UNL     1      11.575   2.917  -3.467  0.00  0.00    +0.008 A 
ATOM     22  C   UNL     1       9.795   4.918  -2.688  0.00  0.00    +0.046 A 
ATOM     23  C   UNL     1      10.234   2.843  -3.845  0.00  0.00    +0.001 A 
ATOM     25  C   UNL     1       9.344   3.844  -3.456  0.00  0.00    +0.004 A 
BRANCH  19   3
ATOM      3  O   UNL     1      11.559   6.048  -1.562  0.00  0.00    -0.506 OA
ATOM     32  H   UNL     1      10.867   6.280  -0.920  0.00  0.00    +0.292 HD
ENDBRANCH  19   3
ENDBRANCH  13  18
ENDBRANCH   4  13
TORSDOF 5
ENDMDL
