MODEL 1
REMARK VINA RESULT:      -6.1      0.000      0.000
REMARK  Name = 75367092
REMARK  7 active torsions:
REMARK  status: ('A' for Active; 'I' for Inactive)
REMARK    1  A    between atoms: S_1  and  N_8
REMARK    2  A    between atoms: S_1  and  C_19
REMARK    3  A    between atoms: O_3  and  C_10
REMARK    4  A    between atoms: N_7  and  C_9
REMARK    5  A    between atoms: N_7  and  C_12
REMARK    6  A    between atoms: N_8  and  C_16
REMARK    7  A    between atoms: C_11  and  C_16
REMARK                            x       y       z     vdW  Elec       q    Type
REMARK                         _______ _______ _______ _____ _____    ______ ____
ROOT
ATOM      2  O   UNL     1      13.219   9.518  21.453  0.00  0.00    -0.371 OA
ATOM      9  C   UNL     1      11.670   8.225  20.199  0.00  0.00    +0.111 C 
ATOM     10  C   UNL     1      12.752   7.310  20.743  0.00  0.00    +0.164 C 
ATOM     11  C   UNL     1      13.298   8.151  21.889  0.00  0.00    +0.164 C 
ATOM     13  C   UNL     1      12.338   9.585  20.318  0.00  0.00    +0.181 C 
ENDROOT
BRANCH  10   3
ATOM      3  O   UNL     1      12.243   6.070  21.193  0.00  0.00    -0.388 OA
ATOM     21  H   UNL     1      11.480   6.243  21.769  0.00  0.00    +0.210 HD
ENDBRANCH  10   3
BRANCH   9   7
ATOM      7  N   UNL     1      11.267   7.908  18.839  0.00  0.00    -0.306 NA
ATOM     20  H   UNL     1      10.297   8.182  18.688  0.00  0.00    +0.123 HD
BRANCH   7  12
ATOM      4  O   UNL     1      13.319   8.621  15.246  0.00  0.00    -0.380 OA
ATOM     12  C   UNL     1      12.127   8.578  17.866  0.00  0.00    +0.058 C 
ATOM     14  C   UNL     1      11.339   8.971  16.612  0.00  0.00    +0.047 C 
ATOM     15  C   UNL     1      13.305   7.676  17.485  0.00  0.00    +0.047 C 
ATOM     17  C   UNL     1      12.277   9.546  15.556  0.00  0.00    +0.161 C 
ATOM     18  C   UNL     1      14.133   8.324  16.381  0.00  0.00    +0.161 C 
ENDBRANCH   7  12
ENDBRANCH   9   7
BRANCH  11  16
ATOM     16  C   UNL     1      14.731   7.809  22.255  0.00  0.00    +0.139 C 
BRANCH  16   8
ATOM      8  N   UNL     1      15.205   6.694  21.413  0.00  0.00    -0.192 NA
ATOM     22  H   UNL     1      14.495   5.964  21.264  0.00  0.00    +0.148 HD
BRANCH   8   1
ATOM      1  S   UNL     1      16.229   7.028  20.090  0.00  0.00    +0.027 S 
ATOM      5  O   UNL     1      16.117   8.427  19.722  0.00  0.00    -0.158 OA
ATOM      6  O   UNL     1      16.055   5.985  19.098  0.00  0.00    -0.158 OA
ATOM     19  C   UNL     1      17.824   6.787  20.840  0.00  0.00    +0.214 C 
ENDBRANCH   8   1
ENDBRANCH  16   8
ENDBRANCH  11  16
TORSDOF 6
ENDMDL
MODEL 2
REMARK VINA RESULT:      -5.8      3.459      5.718
REMARK  Name = 75367092
REMARK  7 active torsions:
REMARK  status: ('A' for Active; 'I' for Inactive)
REMARK    1  A    between atoms: S_1  and  N_8
REMARK    2  A    between atoms: S_1  and  C_19
REMARK    3  A    between atoms: O_3  and  C_10
REMARK    4  A    between atoms: N_7  and  C_9
REMARK    5  A    between atoms: N_7  and  C_12
REMARK    6  A    between atoms: N_8  and  C_16
REMARK    7  A    between atoms: C_11  and  C_16
REMARK                            x       y       z     vdW  Elec       q    Type
REMARK                         _______ _______ _______ _____ _____    ______ ____
ROOT
ATOM      2  O   UNL     1      13.183   7.983  21.600  0.00  0.00    -0.371 OA
ATOM      9  C   UNL     1      11.281   8.978  22.616  0.00  0.00    +0.111 C 
ATOM     10  C   UNL     1      10.818   7.969  21.581  0.00  0.00    +0.164 C 
ATOM     11  C   UNL     1      12.060   7.100  21.443  0.00  0.00    +0.164 C 
ATOM     13  C   UNL     1      12.720   9.212  22.186  0.00  0.00    +0.181 C 
ENDROOT
BRANCH  10   3
ATOM      3  O   UNL     1       9.695   7.223  22.009  0.00  0.00    -0.388 OA
ATOM     21  H   UNL     1       9.648   7.271  22.979  0.00  0.00    +0.210 HD
ENDBRANCH  10   3
BRANCH   9   7
ATOM      7  N   UNL     1      10.491  10.198  22.636  0.00  0.00    -0.306 NA
ATOM     20  H   UNL     1       9.653  10.063  23.201  0.00  0.00    +0.123 HD
BRANCH   7  12
ATOM      4  O   UNL     1      11.317  13.941  24.347  0.00  0.00    -0.380 OA
ATOM     12  C   UNL     1      11.266  11.319  23.161  0.00  0.00    +0.058 C 
ATOM     14  C   UNL     1      10.959  11.556  24.643  0.00  0.00    +0.047 C 
ATOM     15  C   UNL     1      10.980  12.590  22.356  0.00  0.00    +0.047 C 
ATOM     17  C   UNL     1      11.673  12.808  25.139  0.00  0.00    +0.161 C 
ATOM     18  C   UNL     1      11.693  13.784  22.979  0.00  0.00    +0.161 C 
ENDBRANCH   7  12
ENDBRANCH   9   7
BRANCH  11  16
ATOM     16  C   UNL     1      12.149   6.387  20.105  0.00  0.00    +0.139 C 
BRANCH  16   8
ATOM      8  N   UNL     1      13.148   7.059  19.251  0.00  0.00    -0.192 NA
ATOM     22  H   UNL     1      13.968   6.474  19.045  0.00  0.00    +0.148 HD
BRANCH   8   1
ATOM      1  S   UNL     1      12.613   8.077  17.991  0.00  0.00    +0.027 S 
ATOM      5  O   UNL     1      12.435   9.427  18.490  0.00  0.00    -0.158 OA
ATOM      6  O   UNL     1      11.543   7.403  17.280  0.00  0.00    -0.158 OA
ATOM     19  C   UNL     1      14.042   8.068  16.933  0.00  0.00    +0.214 C 
ENDBRANCH   8   1
ENDBRANCH  16   8
ENDBRANCH  11  16
TORSDOF 6
ENDMDL
MODEL 3
REMARK VINA RESULT:      -5.7      3.256      5.058
REMARK  Name = 75367092
REMARK  7 active torsions:
REMARK  status: ('A' for Active; 'I' for Inactive)
REMARK    1  A    between atoms: S_1  and  N_8
REMARK    2  A    between atoms: S_1  and  C_19
REMARK    3  A    between atoms: O_3  and  C_10
REMARK    4  A    between atoms: N_7  and  C_9
REMARK    5  A    between atoms: N_7  and  C_12
REMARK    6  A    between atoms: N_8  and  C_16
REMARK    7  A    between atoms: C_11  and  C_16
REMARK                            x       y       z     vdW  Elec       q    Type
REMARK                         _______ _______ _______ _____ _____    ______ ____
ROOT
ATOM      2  O   UNL     1      17.941   6.219  19.364  0.00  0.00    -0.371 OA
ATOM      9  C   UNL     1      15.798   6.880  20.146  0.00  0.00    +0.111 C 
ATOM     10  C   UNL     1      16.801   7.017  21.276  0.00  0.00    +0.164 C 
ATOM     11  C   UNL     1      18.110   7.081  20.501  0.00  0.00    +0.164 C 
ATOM     13  C   UNL     1      16.538   5.950  19.198  0.00  0.00    +0.181 C 
ENDROOT
BRANCH  10   3
ATOM      3  O   UNL     1      16.591   8.178  22.055  0.00  0.00    -0.388 OA
ATOM     21  H   UNL     1      17.458   8.524  22.329  0.00  0.00    +0.210 HD
ENDBRANCH  10   3
BRANCH   9   7
ATOM      7  N   UNL     1      14.512   6.352  20.568  0.00  0.00    -0.306 NA
ATOM     20  H   UNL     1      14.573   6.003  21.524  0.00  0.00    +0.123 HD
BRANCH   7  12
ATOM      4  O   UNL     1      10.788   8.096  19.721  0.00  0.00    -0.380 OA
ATOM     12  C   UNL     1      13.469   7.371  20.479  0.00  0.00    +0.058 C 
ATOM     14  C   UNL     1      12.246   6.984  21.316  0.00  0.00    +0.047 C 
ATOM     15  C   UNL     1      13.059   7.588  19.019  0.00  0.00    +0.047 C 
ATOM     17  C   UNL     1      11.120   7.990  21.106  0.00  0.00    +0.161 C 
ATOM     18  C   UNL     1      11.887   8.560  18.936  0.00  0.00    +0.161 C 
ENDBRANCH   7  12
ENDBRANCH   9   7
BRANCH  11  16
ATOM     16  C   UNL     1      19.312   6.632  21.313  0.00  0.00    +0.139 C 
BRANCH  16   8
ATOM      8  N   UNL     1      20.164   5.749  20.492  0.00  0.00    -0.192 NA
ATOM     22  H   UNL     1      20.464   6.180  19.608  0.00  0.00    +0.148 HD
BRANCH   8   1
ATOM      1  S   UNL     1      21.302   4.740  21.264  0.00  0.00    +0.027 S 
ATOM      5  O   UNL     1      21.136   3.373  20.810  0.00  0.00    -0.158 OA
ATOM      6  O   UNL     1      21.308   5.055  22.680  0.00  0.00    -0.158 OA
ATOM     19  C   UNL     1      22.816   5.366  20.574  0.00  0.00    +0.214 C 
ENDBRANCH   8   1
ENDBRANCH  16   8
ENDBRANCH  11  16
TORSDOF 6
ENDMDL
MODEL 4
REMARK VINA RESULT:      -5.5      3.167      5.087
REMARK  Name = 75367092
REMARK  7 active torsions:
REMARK  status: ('A' for Active; 'I' for Inactive)
REMARK    1  A    between atoms: S_1  and  N_8
REMARK    2  A    between atoms: S_1  and  C_19
REMARK    3  A    between atoms: O_3  and  C_10
REMARK    4  A    between atoms: N_7  and  C_9
REMARK    5  A    between atoms: N_7  and  C_12
REMARK    6  A    between atoms: N_8  and  C_16
REMARK    7  A    between atoms: C_11  and  C_16
REMARK                            x       y       z     vdW  Elec       q    Type
REMARK                         _______ _______ _______ _____ _____    ______ ____
ROOT
ATOM      2  O   UNL     1      18.092   6.116  19.343  0.00  0.00    -0.371 OA
ATOM      9  C   UNL     1      15.966   6.793  20.157  0.00  0.00    +0.111 C 
ATOM     10  C   UNL     1      16.967   6.833  21.296  0.00  0.00    +0.164 C 
ATOM     11  C   UNL     1      18.281   6.905  20.530  0.00  0.00    +0.164 C 
ATOM     13  C   UNL     1      16.683   5.899  19.157  0.00  0.00    +0.181 C 
ENDROOT
BRANCH  10   3
ATOM      3  O   UNL     1      16.787   7.952  22.142  0.00  0.00    -0.388 OA
ATOM     21  H   UNL     1      17.638   8.155  22.566  0.00  0.00    +0.210 HD
ENDBRANCH  10   3
BRANCH   9   7
ATOM      7  N   UNL     1      14.663   6.278  20.543  0.00  0.00    -0.306 NA
ATOM     20  H   UNL     1      14.694   5.927  21.499  0.00  0.00    +0.123 HD
BRANCH   7  12
ATOM      4  O   UNL     1      10.872   8.002  20.008  0.00  0.00    -0.380 OA
ATOM     12  C   UNL     1      13.635   7.310  20.429  0.00  0.00    +0.058 C 
ATOM     14  C   UNL     1      12.573   7.154  21.523  0.00  0.00    +0.047 C 
ATOM     15  C   UNL     1      12.976   7.257  19.047  0.00  0.00    +0.047 C 
ATOM     17  C   UNL     1      11.441   8.153  21.309  0.00  0.00    +0.161 C 
ATOM     18  C   UNL     1      11.822   8.250  18.972  0.00  0.00    +0.161 C 
ENDBRANCH   7  12
ENDBRANCH   9   7
BRANCH  11  16
ATOM     16  C   UNL     1      19.466   6.374  21.317  0.00  0.00    +0.139 C 
BRANCH  16   8
ATOM      8  N   UNL     1      19.197   6.500  22.763  0.00  0.00    -0.192 NA
ATOM     22  H   UNL     1      18.714   5.684  23.161  0.00  0.00    +0.148 HD
BRANCH   8   1
ATOM      1  S   UNL     1      20.360   7.249  23.762  0.00  0.00    +0.027 S 
ATOM      5  O   UNL     1      20.471   6.528  25.015  0.00  0.00    -0.158 OA
ATOM      6  O   UNL     1      20.122   8.680  23.749  0.00  0.00    -0.158 OA
ATOM     19  C   UNL     1      21.840   6.948  22.824  0.00  0.00    +0.214 C 
ENDBRANCH   8   1
ENDBRANCH  16   8
ENDBRANCH  11  16
TORSDOF 6
ENDMDL
MODEL 5
REMARK VINA RESULT:      -5.5      2.963      6.889
REMARK  Name = 75367092
REMARK  7 active torsions:
REMARK  status: ('A' for Active; 'I' for Inactive)
REMARK    1  A    between atoms: S_1  and  N_8
REMARK    2  A    between atoms: S_1  and  C_19
REMARK    3  A    between atoms: O_3  and  C_10
REMARK    4  A    between atoms: N_7  and  C_9
REMARK    5  A    between atoms: N_7  and  C_12
REMARK    6  A    between atoms: N_8  and  C_16
REMARK    7  A    between atoms: C_11  and  C_16
REMARK                            x       y       z     vdW  Elec       q    Type
REMARK                         _______ _______ _______ _____ _____    ______ ____
ROOT
ATOM      2  O   UNL     1      16.175   6.291  19.049  0.00  0.00    -0.371 OA
ATOM      9  C   UNL     1      17.085   6.605  21.220  0.00  0.00    +0.111 C 
ATOM     10  C   UNL     1      15.704   7.231  21.167  0.00  0.00    +0.164 C 
ATOM     11  C   UNL     1      15.097   6.504  19.975  0.00  0.00    +0.164 C 
ATOM     13  C   UNL     1      17.420   6.489  19.742  0.00  0.00    +0.181 C 
ENDROOT
BRANCH  10   3
ATOM      3  O   UNL     1      14.960   7.017  22.351  0.00  0.00    -0.388 OA
ATOM     21  H   UNL     1      15.016   7.819  22.897  0.00  0.00    +0.210 HD
ENDBRANCH  10   3
BRANCH   9   7
ATOM      7  N   UNL     1      18.055   7.394  21.960  0.00  0.00    -0.306 NA
ATOM     20  H   UNL     1      18.041   7.132  22.946  0.00  0.00    +0.123 HD
BRANCH   7  12
ATOM      4  O   UNL     1      22.248   7.471  21.759  0.00  0.00    -0.380 OA
ATOM     12  C   UNL     1      19.401   7.216  21.420  0.00  0.00    +0.058 C 
ATOM     14  C   UNL     1      20.216   6.244  22.280  0.00  0.00    +0.047 C 
ATOM     15  C   UNL     1      20.121   8.564  21.326  0.00  0.00    +0.047 C 
ATOM     17  C   UNL     1      21.655   6.173  21.780  0.00  0.00    +0.161 C 
ATOM     18  C   UNL     1      21.565   8.364  20.879  0.00  0.00    +0.161 C 
ENDBRANCH   7  12
ENDBRANCH   9   7
BRANCH  11  16
ATOM     16  C   UNL     1      13.983   7.283  19.298  0.00  0.00    +0.139 C 
BRANCH  16   8
ATOM      8  N   UNL     1      13.343   8.184  20.277  0.00  0.00    -0.192 NA
ATOM     22  H   UNL     1      13.478   9.181  20.063  0.00  0.00    +0.148 HD
BRANCH   8   1
ATOM      1  S   UNL     1      11.830   7.753  20.937  0.00  0.00    +0.027 S 
ATOM      5  O   UNL     1      11.915   6.439  21.546  0.00  0.00    -0.158 OA
ATOM      6  O   UNL     1      10.802   8.052  19.959  0.00  0.00    -0.158 OA
ATOM     19  C   UNL     1      11.688   8.953  22.241  0.00  0.00    +0.214 C 
ENDBRANCH   8   1
ENDBRANCH  16   8
ENDBRANCH  11  16
TORSDOF 6
ENDMDL
MODEL 6
REMARK VINA RESULT:      -5.4      3.341      6.689
REMARK  Name = 75367092
REMARK  7 active torsions:
REMARK  status: ('A' for Active; 'I' for Inactive)
REMARK    1  A    between atoms: S_1  and  N_8
REMARK    2  A    between atoms: S_1  and  C_19
REMARK    3  A    between atoms: O_3  and  C_10
REMARK    4  A    between atoms: N_7  and  C_9
REMARK    5  A    between atoms: N_7  and  C_12
REMARK    6  A    between atoms: N_8  and  C_16
REMARK    7  A    between atoms: C_11  and  C_16
REMARK                            x       y       z     vdW  Elec       q    Type
REMARK                         _______ _______ _______ _____ _____    ______ ____
ROOT
ATOM      2  O   UNL     1      15.820   9.542  21.171  0.00  0.00    -0.371 OA
ATOM      9  C   UNL     1      16.969   7.463  21.157  0.00  0.00    +0.111 C 
ATOM     10  C   UNL     1      15.496   7.213  21.422  0.00  0.00    +0.164 C 
ATOM     11  C   UNL     1      14.879   8.495  20.882  0.00  0.00    +0.164 C 
ATOM     13  C   UNL     1      17.088   8.942  21.490  0.00  0.00    +0.181 C 
ENDROOT
BRANCH  10   3
ATOM      3  O   UNL     1      15.008   6.068  20.750  0.00  0.00    -0.388 OA
ATOM     21  H   UNL     1      14.719   5.422  21.417  0.00  0.00    +0.210 HD
ENDBRANCH  10   3
BRANCH   9   7
ATOM      7  N   UNL     1      17.855   6.631  21.954  0.00  0.00    -0.306 NA
ATOM     20  H   UNL     1      17.702   5.647  21.736  0.00  0.00    +0.123 HD
BRANCH   7  12
ATOM      4  O   UNL     1      22.029   6.208  21.782  0.00  0.00    -0.380 OA
ATOM     12  C   UNL     1      19.255   6.977  21.719  0.00  0.00    +0.058 C 
ATOM     14  C   UNL     1      19.878   6.063  20.659  0.00  0.00    +0.047 C 
ATOM     15  C   UNL     1      20.053   6.887  23.023  0.00  0.00    +0.047 C 
ATOM     17  C   UNL     1      21.370   6.348  20.523  0.00  0.00    +0.161 C 
ATOM     18  C   UNL     1      21.535   7.127  22.756  0.00  0.00    +0.161 C 
ENDBRANCH   7  12
ENDBRANCH   9   7
BRANCH  11  16
ATOM     16  C   UNL     1      13.535   8.825  21.507  0.00  0.00    +0.139 C 
BRANCH  16   8
ATOM      8  N   UNL     1      12.816   7.575  21.823  0.00  0.00    -0.192 NA
ATOM     22  H   UNL     1      12.585   7.479  22.821  0.00  0.00    +0.148 HD
BRANCH   8   1
ATOM      1  S   UNL     1      11.656   6.983  20.722  0.00  0.00    +0.027 S 
ATOM      5  O   UNL     1      12.315   6.510  19.520  0.00  0.00    -0.158 OA
ATOM      6  O   UNL     1      10.568   7.939  20.642  0.00  0.00    -0.158 OA
ATOM     19  C   UNL     1      11.053   5.566  21.610  0.00  0.00    +0.214 C 
ENDBRANCH   8   1
ENDBRANCH  16   8
ENDBRANCH  11  16
TORSDOF 6
ENDMDL
MODEL 7
REMARK VINA RESULT:      -5.4      3.336      5.216
REMARK  Name = 75367092
REMARK  7 active torsions:
REMARK  status: ('A' for Active; 'I' for Inactive)
REMARK    1  A    between atoms: S_1  and  N_8
REMARK    2  A    between atoms: S_1  and  C_19
REMARK    3  A    between atoms: O_3  and  C_10
REMARK    4  A    between atoms: N_7  and  C_9
REMARK    5  A    between atoms: N_7  and  C_12
REMARK    6  A    between atoms: N_8  and  C_16
REMARK    7  A    between atoms: C_11  and  C_16
REMARK                            x       y       z     vdW  Elec       q    Type
REMARK                         _______ _______ _______ _____ _____    ______ ____
ROOT
ATOM      2  O   UNL     1      16.628   6.199  19.135  0.00  0.00    -0.371 OA
ATOM      9  C   UNL     1      15.554   7.437  20.854  0.00  0.00    +0.111 C 
ATOM     10  C   UNL     1      16.918   6.989  21.346  0.00  0.00    +0.164 C 
ATOM     11  C   UNL     1      17.630   6.715  20.028  0.00  0.00    +0.164 C 
ATOM     13  C   UNL     1      15.332   6.495  19.683  0.00  0.00    +0.181 C 
ENDROOT
BRANCH  10   3
ATOM      3  O   UNL     1      17.578   7.981  22.106  0.00  0.00    -0.388 OA
ATOM     21  H   UNL     1      18.292   7.556  22.611  0.00  0.00    +0.210 HD
ENDBRANCH  10   3
BRANCH   9   7
ATOM      7  N   UNL     1      14.511   7.344  21.862  0.00  0.00    -0.306 NA
ATOM     20  H   UNL     1      14.804   7.821  22.714  0.00  0.00    +0.123 HD
BRANCH   7  12
ATOM      4  O   UNL     1      10.589   8.839  21.938  0.00  0.00    -0.380 OA
ATOM     12  C   UNL     1      13.259   7.920  21.378  0.00  0.00    +0.058 C 
ATOM     14  C   UNL     1      12.978   9.270  22.047  0.00  0.00    +0.047 C 
ATOM     15  C   UNL     1      12.096   6.957  21.632  0.00  0.00    +0.047 C 
ATOM     17  C   UNL     1      11.607   9.792  21.633  0.00  0.00    +0.161 C 
ATOM     18  C   UNL     1      10.774   7.607  21.240  0.00  0.00    +0.161 C 
ENDBRANCH   7  12
ENDBRANCH   9   7
BRANCH  11  16
ATOM     16  C   UNL     1      18.768   5.718  20.155  0.00  0.00    +0.139 C 
BRANCH  16   8
ATOM      8  N   UNL     1      20.036   6.440  20.380  0.00  0.00    -0.192 NA
ATOM     22  H   UNL     1      20.042   7.388  19.980  0.00  0.00    +0.148 HD
BRANCH   8   1
ATOM      1  S   UNL     1      20.850   6.244  21.867  0.00  0.00    +0.027 S 
ATOM      5  O   UNL     1      19.886   6.104  22.941  0.00  0.00    -0.158 OA
ATOM      6  O   UNL     1      21.908   7.233  21.945  0.00  0.00    -0.158 OA
ATOM     19  C   UNL     1      21.620   4.662  21.612  0.00  0.00    +0.214 C 
ENDBRANCH   8   1
ENDBRANCH  16   8
ENDBRANCH  11  16
TORSDOF 6
ENDMDL
MODEL 8
REMARK VINA RESULT:      -5.3      3.276      4.738
REMARK  Name = 75367092
REMARK  7 active torsions:
REMARK  status: ('A' for Active; 'I' for Inactive)
REMARK    1  A    between atoms: S_1  and  N_8
REMARK    2  A    between atoms: S_1  and  C_19
REMARK    3  A    between atoms: O_3  and  C_10
REMARK    4  A    between atoms: N_7  and  C_9
REMARK    5  A    between atoms: N_7  and  C_12
REMARK    6  A    between atoms: N_8  and  C_16
REMARK    7  A    between atoms: C_11  and  C_16
REMARK                            x       y       z     vdW  Elec       q    Type
REMARK                         _______ _______ _______ _____ _____    ______ ____
ROOT
ATOM      2  O   UNL     1      10.379   7.596  22.281  0.00  0.00    -0.371 OA
ATOM      9  C   UNL     1      12.540   7.013  21.486  0.00  0.00    +0.111 C 
ATOM     10  C   UNL     1      12.497   8.507  21.751  0.00  0.00    +0.164 C 
ATOM     11  C   UNL     1      11.315   8.601  22.706  0.00  0.00    +0.164 C 
ATOM     13  C   UNL     1      11.060   6.678  21.408  0.00  0.00    +0.181 C 
ENDROOT
BRANCH  10   3
ATOM      3  O   UNL     1      13.689   8.993  22.336  0.00  0.00    -0.388 OA
ATOM     21  H   UNL     1      14.237   8.232  22.591  0.00  0.00    +0.210 HD
ENDBRANCH  10   3
BRANCH   9   7
ATOM      7  N   UNL     1      13.267   6.655  20.279  0.00  0.00    -0.306 NA
ATOM     20  H   UNL     1      12.909   5.778  19.903  0.00  0.00    +0.123 HD
BRANCH   7  12
ATOM      4  O   UNL     1      13.417   8.518  16.520  0.00  0.00    -0.380 OA
ATOM     12  C   UNL     1      13.160   7.706  19.270  0.00  0.00    +0.058 C 
ATOM     14  C   UNL     1      12.118   7.344  18.206  0.00  0.00    +0.047 C 
ATOM     15  C   UNL     1      14.520   7.952  18.610  0.00  0.00    +0.047 C 
ATOM     17  C   UNL     1      12.116   8.385  17.091  0.00  0.00    +0.161 C 
ATOM     18  C   UNL     1      14.384   8.959  17.474  0.00  0.00    +0.161 C 
ENDBRANCH   7  12
ENDBRANCH   9   7
BRANCH  11  16
ATOM     16  C   UNL     1      10.644   9.964  22.699  0.00  0.00    +0.139 C 
BRANCH  16   8
ATOM      8  N   UNL     1      11.671  11.022  22.760  0.00  0.00    -0.192 NA
ATOM     22  H   UNL     1      12.049  11.278  21.838  0.00  0.00    +0.148 HD
BRANCH   8   1
ATOM      1  S   UNL     1      11.485  12.297  23.877  0.00  0.00    +0.027 S 
ATOM      5  O   UNL     1      10.205  12.180  24.550  0.00  0.00    -0.158 OA
ATOM      6  O   UNL     1      11.869  13.536  23.229  0.00  0.00    -0.158 OA
ATOM     19  C   UNL     1      12.758  11.894  25.051  0.00  0.00    +0.214 C 
ENDBRANCH   8   1
ENDBRANCH  16   8
ENDBRANCH  11  16
TORSDOF 6
ENDMDL
MODEL 9
REMARK VINA RESULT:      -5.2      4.226      6.542
REMARK  Name = 75367092
REMARK  7 active torsions:
REMARK  status: ('A' for Active; 'I' for Inactive)
REMARK    1  A    between atoms: S_1  and  N_8
REMARK    2  A    between atoms: S_1  and  C_19
REMARK    3  A    between atoms: O_3  and  C_10
REMARK    4  A    between atoms: N_7  and  C_9
REMARK    5  A    between atoms: N_7  and  C_12
REMARK    6  A    between atoms: N_8  and  C_16
REMARK    7  A    between atoms: C_11  and  C_16
REMARK                            x       y       z     vdW  Elec       q    Type
REMARK                         _______ _______ _______ _____ _____    ______ ____
ROOT
ATOM      2  O   UNL     1      11.792  10.834  20.600  0.00  0.00    -0.371 OA
ATOM      9  C   UNL     1      11.214  10.888  22.903  0.00  0.00    +0.111 C 
ATOM     10  C   UNL     1      10.746   9.574  22.306  0.00  0.00    +0.164 C 
ATOM     11  C   UNL     1      11.626   9.484  21.066  0.00  0.00    +0.164 C 
ATOM     13  C   UNL     1      11.409  11.733  21.654  0.00  0.00    +0.181 C 
ENDROOT
BRANCH  10   3
ATOM      3  O   UNL     1      10.947   8.477  23.176  0.00  0.00    -0.388 OA
ATOM     21  H   UNL     1      10.727   7.661  22.695  0.00  0.00    +0.210 HD
ENDBRANCH  10   3
BRANCH   9   7
ATOM      7  N   UNL     1      10.270  11.472  23.841  0.00  0.00    -0.306 NA
ATOM     20  H   UNL     1       9.641  10.754  24.197  0.00  0.00    +0.123 HD
BRANCH   7  12
ATOM      4  O   UNL     1      12.879  14.062  25.867  0.00  0.00    -0.380 OA
ATOM     12  C   UNL     1      10.964  12.117  24.953  0.00  0.00    +0.058 C 
ATOM     14  C   UNL     1      10.653  13.617  25.001  0.00  0.00    +0.047 C 
ATOM     15  C   UNL     1      12.476  11.899  24.836  0.00  0.00    +0.047 C 
ATOM     17  C   UNL     1      11.488  14.297  26.081  0.00  0.00    +0.161 C 
ATOM     18  C   UNL     1      13.209  12.675  25.925  0.00  0.00    +0.161 C 
ENDBRANCH   7  12
ENDBRANCH   9   7
BRANCH  11  16
ATOM     16  C   UNL     1      11.025   8.630  19.964  0.00  0.00    +0.139 C 
BRANCH  16   8
ATOM      8  N   UNL     1      12.070   7.762  19.385  0.00  0.00    -0.192 NA
ATOM     22  H   UNL     1      11.817   6.765  19.382  0.00  0.00    +0.148 HD
BRANCH   8   1
ATOM      1  S   UNL     1      12.960   8.318  18.040  0.00  0.00    +0.027 S 
ATOM      5  O   UNL     1      12.417   9.581  17.578  0.00  0.00    -0.158 OA
ATOM      6  O   UNL     1      13.144   7.211  17.122  0.00  0.00    -0.158 OA
ATOM     19  C   UNL     1      14.534   8.645  18.801  0.00  0.00    +0.214 C 
ENDBRANCH   8   1
ENDBRANCH  16   8
ENDBRANCH  11  16
TORSDOF 6
ENDMDL
MODEL 10
REMARK VINA RESULT:      -5.2     25.915     27.715
REMARK  Name = 75367092
REMARK  7 active torsions:
REMARK  status: ('A' for Active; 'I' for Inactive)
REMARK    1  A    between atoms: S_1  and  N_8
REMARK    2  A    between atoms: S_1  and  C_19
REMARK    3  A    between atoms: O_3  and  C_10
REMARK    4  A    between atoms: N_7  and  C_9
REMARK    5  A    between atoms: N_7  and  C_12
REMARK    6  A    between atoms: N_8  and  C_16
REMARK    7  A    between atoms: C_11  and  C_16
REMARK                            x       y       z     vdW  Elec       q    Type
REMARK                         _______ _______ _______ _____ _____    ______ ____
ROOT
ATOM      2  O   UNL     1     -15.454   6.849  20.950  0.00  0.00    -0.371 OA
ATOM      9  C   UNL     1     -13.111   7.004  20.596  0.00  0.00    +0.111 C 
ATOM     10  C   UNL     1     -13.370   6.153  21.825  0.00  0.00    +0.164 C 
ATOM     11  C   UNL     1     -14.815   5.733  21.592  0.00  0.00    +0.164 C 
ATOM     13  C   UNL     1     -14.436   7.733  20.450  0.00  0.00    +0.181 C 
ENDROOT
BRANCH  10   3
ATOM      3  O   UNL     1     -12.503   5.039  21.911  0.00  0.00    -0.388 OA
ATOM     21  H   UNL     1     -12.260   4.911  22.843  0.00  0.00    +0.210 HD
ENDBRANCH  10   3
BRANCH   9   7
ATOM      7  N   UNL     1     -11.980   7.907  20.739  0.00  0.00    -0.306 NA
ATOM     20  H   UNL     1     -11.160   7.393  21.058  0.00  0.00    +0.123 HD
BRANCH   7  12
ATOM      4  O   UNL     1      -9.780   9.216  17.412  0.00  0.00    -0.380 OA
ATOM     12  C   UNL     1     -11.682   8.580  19.477  0.00  0.00    +0.058 C 
ATOM     14  C   UNL     1     -11.274   7.572  18.398  0.00  0.00    +0.047 C 
ATOM     15  C   UNL     1     -10.571   9.615  19.674  0.00  0.00    +0.047 C 
ATOM     17  C   UNL     1     -10.838   8.299  17.130  0.00  0.00    +0.161 C 
ATOM     18  C   UNL     1     -10.174  10.229  18.337  0.00  0.00    +0.161 C 
ENDBRANCH   7  12
ENDBRANCH   9   7
BRANCH  11  16
ATOM     16  C   UNL     1     -15.553   5.384  22.873  0.00  0.00    +0.139 C 
BRANCH  16   8
ATOM      8  N   UNL     1     -15.198   4.014  23.291  0.00  0.00    -0.192 NA
ATOM     22  H   UNL     1     -14.346   3.971  23.866  0.00  0.00    +0.148 HD
BRANCH   8   1
ATOM      1  S   UNL     1     -16.442   2.924  23.707  0.00  0.00    +0.027 S 
ATOM      5  O   UNL     1     -16.055   2.156  24.874  0.00  0.00    -0.158 OA
ATOM      6  O   UNL     1     -16.892   2.259  22.499  0.00  0.00    -0.158 OA
ATOM     19  C   UNL     1     -17.721   4.058  24.197  0.00  0.00    +0.214 C 
ENDBRANCH   8   1
ENDBRANCH  16   8
ENDBRANCH  11  16
TORSDOF 6
ENDMDL
