MODEL 1
REMARK VINA RESULT:      -8.1      0.000      0.000
REMARK  Name = 7051869
REMARK  5 active torsions:
REMARK  status: ('A' for Active; 'I' for Inactive)
REMARK    1  A    between atoms: N_3  and  C_15
REMARK    2  A    between atoms: N_5  and  C_26
REMARK    3  A    between atoms: N_6  and  C_19
REMARK    4  A    between atoms: C_15  and  C_18
REMARK    5  A    between atoms: C_28  and  C_30
REMARK                            x       y       z     vdW  Elec       q    Type
REMARK                         _______ _______ _______ _____ _____    ______ ____
ROOT
ATOM      1  O   UNL     1      -6.926 -10.870  10.861  0.00  0.00    -0.266 OA
ATOM      3  N   UNL     1      -3.337 -11.040  14.357  0.00  0.00    -0.297 NA
ATOM      4  N   UNL     1      -4.687 -11.143  11.467  0.00  0.00    -0.310 N 
ATOM      8  C   UNL     1      -3.874 -13.056  12.966  0.00  0.00    +0.024 C 
ATOM      9  C   UNL     1      -2.271 -11.405  12.127  0.00  0.00    +0.050 C 
ATOM     10  C   UNL     1      -2.565 -12.901  12.201  0.00  0.00    +0.017 C 
ATOM     11  C   UNL     1      -3.734 -12.453  14.380  0.00  0.00    +0.090 C 
ATOM     12  C   UNL     1      -2.121 -10.836  13.557  0.00  0.00    +0.094 C 
ATOM     13  C   UNL     1      -5.001 -12.403  12.156  0.00  0.00    +0.130 C 
ATOM     14  C   UNL     1      -3.371 -10.676  11.378  0.00  0.00    +0.026 A 
ATOM     16  C   UNL     1      -3.090  -9.581  10.652  0.00  0.00    +0.024 A 
ATOM     17  C   UNL     1      -5.756 -10.488  10.825  0.00  0.00    +0.273 A 
ATOM     19  C   UNL     1      -5.405  -9.259  10.044  0.00  0.00    +0.099 A 
ATOM     20  C   UNL     1      -4.131  -8.859   9.974  0.00  0.00    +0.030 A 
ENDROOT
BRANCH  19   6
ATOM      2  O   UNL     1      -6.244  -9.621   7.341  0.00  0.00    -0.270 OA
ATOM      6  N   UNL     1      -6.413  -8.588   9.418  0.00  0.00    -0.277 N 
ATOM     28  C   UNL     1      -6.775  -8.811   8.096  0.00  0.00    +0.248 C 
ATOM     35  H   UNL     1      -6.793  -7.800   9.931  0.00  0.00    +0.155 HD
BRANCH  28  30
ATOM      7  N   UNL     1     -10.034  -6.493   6.661  0.00  0.00    -0.263 NA
ATOM     30  C   UNL     1      -7.915  -7.999   7.594  0.00  0.00    +0.040 A 
ATOM     31  C   UNL     1      -8.219  -8.037   6.254  0.00  0.00    +0.033 A 
ATOM     32  C   UNL     1      -8.631  -7.236   8.484  0.00  0.00    +0.033 A 
ATOM     33  C   UNL     1      -9.291  -7.264   5.836  0.00  0.00    +0.111 A 
ATOM     34  C   UNL     1      -9.684  -6.499   7.967  0.00  0.00    +0.111 A 
ENDBRANCH  28  30
ENDBRANCH  19   6
BRANCH   3  15
ATOM     15  C   UNL     1      -3.165 -10.523  15.712  0.00  0.00    +0.121 C 
BRANCH  15  18
ATOM      5  N   UNL     1      -6.578  -9.760  16.765  0.00  0.00    -0.349 N 
ATOM     18  C   UNL     1      -4.500 -10.352  16.384  0.00  0.00    -0.008 A 
ATOM     21  C   UNL     1      -4.845 -10.847  17.656  0.00  0.00    +0.004 A 
ATOM     22  C   UNL     1      -5.563  -9.692  15.850  0.00  0.00    +0.091 A 
ATOM     23  C   UNL     1      -6.169 -10.460  17.878  0.00  0.00    +0.049 A 
ATOM     24  C   UNL     1      -4.179 -11.586  18.653  0.00  0.00    +0.010 A 
ATOM     25  C   UNL     1      -6.862 -10.776  19.052  0.00  0.00    +0.026 A 
ATOM     26  C   UNL     1      -7.889  -9.177  16.574  0.00  0.00    +0.149 C 
ATOM     27  C   UNL     1      -4.859 -11.909  19.833  0.00  0.00    +0.001 A 
ATOM     29  C   UNL     1      -6.180 -11.509  20.028  0.00  0.00    +0.002 A 
ENDBRANCH  15  18
ENDBRANCH   3  15
TORSDOF 4
ENDMDL
MODEL 2
REMARK VINA RESULT:      -7.6     28.365     30.538
REMARK  Name = 7051869
REMARK  5 active torsions:
REMARK  status: ('A' for Active; 'I' for Inactive)
REMARK    1  A    between atoms: N_3  and  C_15
REMARK    2  A    between atoms: N_5  and  C_26
REMARK    3  A    between atoms: N_6  and  C_19
REMARK    4  A    between atoms: C_15  and  C_18
REMARK    5  A    between atoms: C_28  and  C_30
REMARK                            x       y       z     vdW  Elec       q    Type
REMARK                         _______ _______ _______ _____ _____    ______ ____
ROOT
ATOM      1  O   UNL     1      10.962  10.307  22.387  0.00  0.00    -0.266 OA
ATOM      3  N   UNL     1      14.121   7.742  19.459  0.00  0.00    -0.297 NA
ATOM      4  N   UNL     1      12.033   9.991  20.336  0.00  0.00    -0.310 N 
ATOM      8  C   UNL     1      11.684   7.905  18.889  0.00  0.00    +0.024 C 
ATOM      9  C   UNL     1      13.218   9.661  18.138  0.00  0.00    +0.050 C 
ATOM     10  C   UNL     1      11.998   8.840  17.728  0.00  0.00    +0.017 C 
ATOM     11  C   UNL     1      12.894   6.989  19.172  0.00  0.00    +0.090 C 
ATOM     12  C   UNL     1      14.414   8.716  18.398  0.00  0.00    +0.094 C 
ATOM     13  C   UNL     1      11.285   8.747  20.108  0.00  0.00    +0.130 C 
ATOM     14  C   UNL     1      12.917  10.490  19.373  0.00  0.00    +0.026 A 
ATOM     16  C   UNL     1      13.510  11.683  19.553  0.00  0.00    +0.024 A 
ATOM     17  C   UNL     1      11.744  10.698  21.520  0.00  0.00    +0.273 A 
ATOM     19  C   UNL     1      12.441  12.012  21.693  0.00  0.00    +0.099 A 
ATOM     20  C   UNL     1      13.265  12.456  20.738  0.00  0.00    +0.030 A 
ENDROOT
BRANCH  19   6
ATOM      2  O   UNL     1      13.816  11.735  24.177  0.00  0.00    -0.270 OA
ATOM      6  N   UNL     1      12.197  12.722  22.831  0.00  0.00    -0.277 N 
ATOM     28  C   UNL     1      12.903  12.540  24.012  0.00  0.00    +0.248 C 
ATOM     35  H   UNL     1      11.359  13.293  22.813  0.00  0.00    +0.155 HD
BRANCH  28  30
ATOM      7  N   UNL     1      11.775  15.061  27.241  0.00  0.00    -0.263 NA
ATOM     30  C   UNL     1      12.509  13.423  25.142  0.00  0.00    +0.040 A 
ATOM     31  C   UNL     1      11.210  13.865  25.218  0.00  0.00    +0.033 A 
ATOM     32  C   UNL     1      13.455  13.769  26.076  0.00  0.00    +0.033 A 
ATOM     33  C   UNL     1      10.892  14.684  26.290  0.00  0.00    +0.111 A 
ATOM     34  C   UNL     1      13.037  14.593  27.110  0.00  0.00    +0.111 A 
ENDBRANCH  28  30
ENDBRANCH  19   6
BRANCH   3  15
ATOM     15  C   UNL     1      15.250   6.841  19.669  0.00  0.00    +0.121 C 
BRANCH  15  18
ATOM      5  N   UNL     1      17.529   9.098  21.416  0.00  0.00    -0.349 N 
ATOM     18  C   UNL     1      16.384   7.564  20.342  0.00  0.00    -0.008 A 
ATOM     21  C   UNL     1      17.700   7.082  20.474  0.00  0.00    +0.004 A 
ATOM     22  C   UNL     1      16.290   8.793  20.920  0.00  0.00    +0.091 A 
ATOM     23  C   UNL     1      18.409   8.072  21.160  0.00  0.00    +0.049 A 
ATOM     24  C   UNL     1      18.375   5.908  20.088  0.00  0.00    +0.010 A 
ATOM     25  C   UNL     1      19.766   7.944  21.478  0.00  0.00    +0.026 A 
ATOM     26  C   UNL     1      17.848  10.326  22.112  0.00  0.00    +0.149 C 
ATOM     27  C   UNL     1      19.733   5.768  20.398  0.00  0.00    +0.001 A 
ATOM     29  C   UNL     1      20.416   6.771  21.083  0.00  0.00    +0.002 A 
ENDBRANCH  15  18
ENDBRANCH   3  15
TORSDOF 4
ENDMDL
MODEL 3
REMARK VINA RESULT:      -7.3     23.361     25.931
REMARK  Name = 7051869
REMARK  5 active torsions:
REMARK  status: ('A' for Active; 'I' for Inactive)
REMARK    1  A    between atoms: N_3  and  C_15
REMARK    2  A    between atoms: N_5  and  C_26
REMARK    3  A    between atoms: N_6  and  C_19
REMARK    4  A    between atoms: C_15  and  C_18
REMARK    5  A    between atoms: C_28  and  C_30
REMARK                            x       y       z     vdW  Elec       q    Type
REMARK                         _______ _______ _______ _____ _____    ______ ____
ROOT
ATOM      1  O   UNL     1      10.176   4.411   2.554  0.00  0.00    -0.266 OA
ATOM      3  N   UNL     1       9.264   8.080   5.846  0.00  0.00    -0.297 NA
ATOM      4  N   UNL     1      10.802   5.678   4.414  0.00  0.00    -0.310 N 
ATOM      8  C   UNL     1       9.465   5.697   6.600  0.00  0.00    +0.024 C 
ATOM      9  C   UNL     1      11.482   7.071   6.398  0.00  0.00    +0.050 C 
ATOM     10  C   UNL     1      10.811   5.995   7.247  0.00  0.00    +0.017 C 
ATOM     11  C   UNL     1       8.605   6.978   6.557  0.00  0.00    +0.090 C 
ATOM     12  C   UNL     1      10.605   8.344   6.389  0.00  0.00    +0.094 C 
ATOM     13  C   UNL     1       9.706   5.103   5.206  0.00  0.00    +0.130 C 
ATOM     14  C   UNL     1      11.713   6.574   4.983  0.00  0.00    +0.026 A 
ATOM     16  C   UNL     1      12.770   7.006   4.274  0.00  0.00    +0.024 A 
ATOM     17  C   UNL     1      10.943   5.211   3.092  0.00  0.00    +0.273 A 
ATOM     19  C   UNL     1      12.121   5.732   2.328  0.00  0.00    +0.099 A 
ATOM     20  C   UNL     1      12.974   6.575   2.919  0.00  0.00    +0.030 A 
ENDROOT
BRANCH  19   6
ATOM      2  O   UNL     1      13.433   3.341   1.490  0.00  0.00    -0.270 OA
ATOM      6  N   UNL     1      12.285   5.313   1.041  0.00  0.00    -0.277 N 
ATOM     28  C   UNL     1      12.935   4.136   0.696  0.00  0.00    +0.248 C 
ATOM     35  H   UNL     1      12.036   5.993   0.330  0.00  0.00    +0.155 HD
BRANCH  28  30
ATOM      7  N   UNL     1      13.108   3.278  -3.461  0.00  0.00    -0.263 NA
ATOM     30  C   UNL     1      12.997   3.835  -0.758  0.00  0.00    +0.040 A 
ATOM     31  C   UNL     1      12.199   2.838  -1.266  0.00  0.00    +0.033 A 
ATOM     32  C   UNL     1      13.848   4.565  -1.552  0.00  0.00    +0.033 A 
ATOM     33  C   UNL     1      12.291   2.597  -2.627  0.00  0.00    +0.111 A 
ATOM     34  C   UNL     1      13.867   4.247  -2.901  0.00  0.00    +0.111 A 
ENDBRANCH  28  30
ENDBRANCH  19   6
BRANCH   3  15
ATOM     15  C   UNL     1       8.441   9.287   5.873  0.00  0.00    +0.121 C 
BRANCH  15  18
ATOM      5  N   UNL     1       6.199   9.974   3.073  0.00  0.00    -0.349 N 
ATOM     18  C   UNL     1       7.735   9.473   4.558  0.00  0.00    -0.008 A 
ATOM     21  C   UNL     1       8.270   9.171   3.291  0.00  0.00    +0.004 A 
ATOM     22  C   UNL     1       6.474   9.961   4.414  0.00  0.00    +0.091 A 
ATOM     23  C   UNL     1       7.278   9.498   2.363  0.00  0.00    +0.049 A 
ATOM     24  C   UNL     1       9.494   8.655   2.822  0.00  0.00    +0.010 A 
ATOM     25  C   UNL     1       7.450   9.332   0.984  0.00  0.00    +0.026 A 
ATOM     26  C   UNL     1       4.950  10.429   2.501  0.00  0.00    +0.149 C 
ATOM     27  C   UNL     1       9.679   8.483   1.446  0.00  0.00    +0.001 A 
ATOM     29  C   UNL     1       8.672   8.817   0.543  0.00  0.00    +0.002 A 
ENDBRANCH  15  18
ENDBRANCH   3  15
TORSDOF 4
ENDMDL
MODEL 4
REMARK VINA RESULT:      -7.3     24.671     27.709
REMARK  Name = 7051869
REMARK  5 active torsions:
REMARK  status: ('A' for Active; 'I' for Inactive)
REMARK    1  A    between atoms: N_3  and  C_15
REMARK    2  A    between atoms: N_5  and  C_26
REMARK    3  A    between atoms: N_6  and  C_19
REMARK    4  A    between atoms: C_15  and  C_18
REMARK    5  A    between atoms: C_28  and  C_30
REMARK                            x       y       z     vdW  Elec       q    Type
REMARK                         _______ _______ _______ _____ _____    ______ ____
ROOT
ATOM      1  O   UNL     1      13.716   6.577   6.969  0.00  0.00    -0.266 OA
ATOM      3  N   UNL     1       9.130   7.532   5.185  0.00  0.00    -0.297 NA
ATOM      4  N   UNL     1      11.718   7.785   7.035  0.00  0.00    -0.310 N 
ATOM      8  C   UNL     1       9.450   6.698   7.528  0.00  0.00    +0.024 C 
ATOM      9  C   UNL     1       9.572   9.102   7.078  0.00  0.00    +0.050 C 
ATOM     10  C   UNL     1       9.082   8.066   8.087  0.00  0.00    +0.017 C 
ATOM     11  C   UNL     1       8.775   6.489   6.155  0.00  0.00    +0.090 C 
ATOM     12  C   UNL     1       8.866   8.876   5.721  0.00  0.00    +0.094 C 
ATOM     13  C   UNL     1      10.978   6.586   7.456  0.00  0.00    +0.130 C 
ATOM     14  C   UNL     1      11.078   9.023   6.913  0.00  0.00    +0.026 A 
ATOM     16  C   UNL     1      11.791  10.127   6.633  0.00  0.00    +0.024 A 
ATOM     17  C   UNL     1      13.108   7.643   6.857  0.00  0.00    +0.273 A 
ATOM     19  C   UNL     1      13.863   8.892   6.524  0.00  0.00    +0.099 A 
ATOM     20  C   UNL     1      13.211  10.056   6.433  0.00  0.00    +0.030 A 
ENDROOT
BRANCH  19   6
ATOM      2  O   UNL     1      15.175   8.331   4.052  0.00  0.00    -0.270 OA
ATOM      6  N   UNL     1      15.209   8.795   6.331  0.00  0.00    -0.277 N 
ATOM     28  C   UNL     1      15.789   8.518   5.100  0.00  0.00    +0.248 C 
ATOM     35  H   UNL     1      15.767   8.786   7.178  0.00  0.00    +0.155 HD
BRANCH  28  30
ATOM      7  N   UNL     1      20.035   8.389   5.050  0.00  0.00    -0.263 NA
ATOM     30  C   UNL     1      17.274   8.474   5.082  0.00  0.00    +0.040 A 
ATOM     31  C   UNL     1      17.964   8.829   6.216  0.00  0.00    +0.033 A 
ATOM     32  C   UNL     1      17.914   8.078   3.932  0.00  0.00    +0.033 A 
ATOM     33  C   UNL     1      19.347   8.770   6.149  0.00  0.00    +0.111 A 
ATOM     34  C   UNL     1      19.299   8.053   3.967  0.00  0.00    +0.111 A 
ENDBRANCH  28  30
ENDBRANCH  19   6
BRANCH   3  15
ATOM     15  C   UNL     1       8.432   7.327   3.919  0.00  0.00    +0.121 C 
BRANCH  15  18
ATOM      5  N   UNL     1      10.622   7.427   0.998  0.00  0.00    -0.349 N 
ATOM     18  C   UNL     1       9.416   7.107   2.803  0.00  0.00    -0.008 A 
ATOM     21  C   UNL     1      10.212   5.960   2.628  0.00  0.00    +0.004 A 
ATOM     22  C   UNL     1       9.674   7.996   1.805  0.00  0.00    +0.091 A 
ATOM     23  C   UNL     1      10.970   6.185   1.476  0.00  0.00    +0.049 A 
ATOM     24  C   UNL     1      10.378   4.745   3.322  0.00  0.00    +0.010 A 
ATOM     25  C   UNL     1      11.888   5.251   0.981  0.00  0.00    +0.026 A 
ATOM     26  C   UNL     1      11.171   8.058  -0.184  0.00  0.00    +0.149 C 
ATOM     27  C   UNL     1      11.292   3.802   2.838  0.00  0.00    +0.001 A 
ATOM     29  C   UNL     1      12.034   4.053   1.686  0.00  0.00    +0.002 A 
ENDBRANCH  15  18
ENDBRANCH   3  15
TORSDOF 4
ENDMDL
MODEL 5
REMARK VINA RESULT:      -7.2      3.955      7.800
REMARK  Name = 7051869
REMARK  5 active torsions:
REMARK  status: ('A' for Active; 'I' for Inactive)
REMARK    1  A    between atoms: N_3  and  C_15
REMARK    2  A    between atoms: N_5  and  C_26
REMARK    3  A    between atoms: N_6  and  C_19
REMARK    4  A    between atoms: C_15  and  C_18
REMARK    5  A    between atoms: C_28  and  C_30
REMARK                            x       y       z     vdW  Elec       q    Type
REMARK                         _______ _______ _______ _____ _____    ______ ____
ROOT
ATOM      1  O   UNL     1      -8.702  -8.464  17.328  0.00  0.00    -0.266 OA
ATOM      3  N   UNL     1      -5.000 -11.598  16.063  0.00  0.00    -0.297 NA
ATOM      4  N   UNL     1      -7.636 -10.534  17.514  0.00  0.00    -0.310 N 
ATOM      8  C   UNL     1      -5.256 -10.796  18.426  0.00  0.00    +0.024 C 
ATOM      9  C   UNL     1      -6.497 -12.773  17.683  0.00  0.00    +0.050 C 
ATOM     10  C   UNL     1      -5.735 -12.175  18.863  0.00  0.00    +0.017 C 
ATOM     11  C   UNL     1      -4.342 -10.922  17.188  0.00  0.00    +0.090 C 
ATOM     12  C   UNL     1      -5.551 -12.900  16.467  0.00  0.00    +0.094 C 
ATOM     13  C   UNL     1      -6.478  -9.906  18.167  0.00  0.00    +0.130 C 
ATOM     14  C   UNL     1      -7.701 -11.919  17.332  0.00  0.00    +0.026 A 
ATOM     16  C   UNL     1      -8.813 -12.484  16.832  0.00  0.00    +0.024 A 
ATOM     17  C   UNL     1      -8.708  -9.685  17.172  0.00  0.00    +0.273 A 
ATOM     19  C   UNL     1      -9.920 -10.351  16.597  0.00  0.00    +0.099 A 
ATOM     20  C   UNL     1      -9.943 -11.680  16.456  0.00  0.00    +0.030 A 
ENDROOT
BRANCH  19   6
ATOM      2  O   UNL     1     -12.007  -9.450  18.322  0.00  0.00    -0.270 OA
ATOM      6  N   UNL     1     -10.975  -9.563  16.242  0.00  0.00    -0.277 N 
ATOM     28  C   UNL     1     -11.961  -9.157  17.130  0.00  0.00    +0.248 C 
ATOM     35  H   UNL     1     -11.084  -9.411  15.244  0.00  0.00    +0.155 HD
BRANCH  28  30
ATOM      7  N   UNL     1     -14.986  -6.655  15.505  0.00  0.00    -0.263 NA
ATOM     30  C   UNL     1     -13.020  -8.281  16.563  0.00  0.00    +0.040 A 
ATOM     31  C   UNL     1     -12.654  -7.245  15.738  0.00  0.00    +0.033 A 
ATOM     32  C   UNL     1     -14.333  -8.535  16.879  0.00  0.00    +0.033 A 
ATOM     33  C   UNL     1     -13.677  -6.459  15.233  0.00  0.00    +0.111 A 
ATOM     34  C   UNL     1     -15.281  -7.690  16.323  0.00  0.00    +0.111 A 
ENDBRANCH  28  30
ENDBRANCH  19   6
BRANCH   3  15
ATOM     15  C   UNL     1      -4.087 -11.743  14.933  0.00  0.00    +0.121 C 
BRANCH  15  18
ATOM      5  N   UNL     1      -5.920  -9.912  12.359  0.00  0.00    -0.349 N 
ATOM     18  C   UNL     1      -4.584 -10.959  13.750  0.00  0.00    -0.008 A 
ATOM     21  C   UNL     1      -3.787 -10.471  12.698  0.00  0.00    +0.004 A 
ATOM     22  C   UNL     1      -5.882 -10.613  13.534  0.00  0.00    +0.091 A 
ATOM     23  C   UNL     1      -4.655  -9.809  11.827  0.00  0.00    +0.049 A 
ATOM     24  C   UNL     1      -2.414 -10.515  12.383  0.00  0.00    +0.010 A 
ATOM     25  C   UNL     1      -4.217  -9.187  10.651  0.00  0.00    +0.026 A 
ATOM     26  C   UNL     1      -7.126  -9.362  11.777  0.00  0.00    +0.149 C 
ATOM     27  C   UNL     1      -1.963  -9.898  11.210  0.00  0.00    +0.001 A 
ATOM     29  C   UNL     1      -2.852  -9.245  10.359  0.00  0.00    +0.002 A 
ENDBRANCH  15  18
ENDBRANCH   3  15
TORSDOF 4
ENDMDL
MODEL 6
REMARK VINA RESULT:      -6.9     18.885     22.007
REMARK  Name = 7051869
REMARK  5 active torsions:
REMARK  status: ('A' for Active; 'I' for Inactive)
REMARK    1  A    between atoms: N_3  and  C_15
REMARK    2  A    between atoms: N_5  and  C_26
REMARK    3  A    between atoms: N_6  and  C_19
REMARK    4  A    between atoms: C_15  and  C_18
REMARK    5  A    between atoms: C_28  and  C_30
REMARK                            x       y       z     vdW  Elec       q    Type
REMARK                         _______ _______ _______ _____ _____    ______ ____
ROOT
ATOM      1  O   UNL     1      -6.699   9.694   4.917  0.00  0.00    -0.266 OA
ATOM      3  N   UNL     1      -1.798  10.402   4.139  0.00  0.00    -0.297 NA
ATOM      4  N   UNL     1      -4.469   9.275   5.471  0.00  0.00    -0.310 N 
ATOM      8  C   UNL     1      -2.871  11.102   6.294  0.00  0.00    +0.024 C 
ATOM      9  C   UNL     1      -2.061   8.804   6.041  0.00  0.00    +0.050 C 
ATOM     10  C   UNL     1      -2.182   9.960   7.031  0.00  0.00    +0.017 C 
ATOM     11  C   UNL     1      -2.036  11.517   5.064  0.00  0.00    +0.090 C 
ATOM     12  C   UNL     1      -1.207   9.247   4.831  0.00  0.00    +0.094 C 
ATOM     13  C   UNL     1      -4.293  10.663   5.920  0.00  0.00    +0.130 C 
ATOM     14  C   UNL     1      -3.433   8.342   5.584  0.00  0.00    +0.026 A 
ATOM     16  C   UNL     1      -3.646   7.053   5.269  0.00  0.00    +0.024 A 
ATOM     17  C   UNL     1      -5.752   8.912   5.017  0.00  0.00    +0.273 A 
ATOM     19  C   UNL     1      -5.944   7.472   4.655  0.00  0.00    +0.099 A 
ATOM     20  C   UNL     1      -4.928   6.613   4.794  0.00  0.00    +0.030 A 
ENDROOT
BRANCH  19   6
ATOM      2  O   UNL     1      -7.897   5.997   6.122  0.00  0.00    -0.270 OA
ATOM      6  N   UNL     1      -7.168   7.083   4.199  0.00  0.00    -0.277 N 
ATOM     28  C   UNL     1      -8.078   6.365   4.964  0.00  0.00    +0.248 C 
ATOM     35  H   UNL     1      -7.322   7.219   3.206  0.00  0.00    +0.155 HD
BRANCH  28  30
ATOM      7  N   UNL     1     -11.775   5.467   3.073  0.00  0.00    -0.263 NA
ATOM     30  C   UNL     1      -9.371   6.052   4.303  0.00  0.00    +0.040 A 
ATOM     31  C   UNL     1      -9.358   5.467   3.059  0.00  0.00    +0.033 A 
ATOM     32  C   UNL     1     -10.542   6.355   4.954  0.00  0.00    +0.033 A 
ATOM     33  C   UNL     1     -10.589   5.193   2.485  0.00  0.00    +0.111 A 
ATOM     34  C   UNL     1     -11.721   6.042   4.295  0.00  0.00    +0.111 A 
ENDBRANCH  28  30
ENDBRANCH  19   6
BRANCH   3  15
ATOM     15  C   UNL     1      -0.962  10.824   3.017  0.00  0.00    +0.121 C 
BRANCH  15  18
ATOM      5  N   UNL     1      -1.864   9.801  -0.371  0.00  0.00    -0.349 N 
ATOM     18  C   UNL     1      -1.603  10.445   1.711  0.00  0.00    -0.008 A 
ATOM     21  C   UNL     1      -2.986  10.439   1.449  0.00  0.00    +0.004 A 
ATOM     22  C   UNL     1      -0.929  10.055   0.596  0.00  0.00    +0.091 A 
ATOM     23  C   UNL     1      -3.129  10.026   0.122  0.00  0.00    +0.049 A 
ATOM     24  C   UNL     1      -4.144  10.738   2.194  0.00  0.00    +0.010 A 
ATOM     25  C   UNL     1      -4.377   9.899  -0.499  0.00  0.00    +0.026 A 
ATOM     26  C   UNL     1      -1.550   9.357  -1.712  0.00  0.00    +0.149 C 
ATOM     27  C   UNL     1      -5.398  10.616   1.585  0.00  0.00    +0.001 A 
ATOM     29  C   UNL     1      -5.511  10.202   0.259  0.00  0.00    +0.002 A 
ENDBRANCH  15  18
ENDBRANCH   3  15
TORSDOF 4
ENDMDL
MODEL 7
REMARK VINA RESULT:      -6.9      2.981      7.907
REMARK  Name = 7051869
REMARK  5 active torsions:
REMARK  status: ('A' for Active; 'I' for Inactive)
REMARK    1  A    between atoms: N_3  and  C_15
REMARK    2  A    between atoms: N_5  and  C_26
REMARK    3  A    between atoms: N_6  and  C_19
REMARK    4  A    between atoms: C_15  and  C_18
REMARK    5  A    between atoms: C_28  and  C_30
REMARK                            x       y       z     vdW  Elec       q    Type
REMARK                         _______ _______ _______ _____ _____    ______ ____
ROOT
ATOM      1  O   UNL     1      -4.999 -10.004  16.766  0.00  0.00    -0.266 OA
ATOM      3  N   UNL     1      -2.773 -10.543  12.307  0.00  0.00    -0.297 NA
ATOM      4  N   UNL     1      -3.988 -11.349  15.146  0.00  0.00    -0.310 N 
ATOM      8  C   UNL     1      -1.544 -11.066  14.430  0.00  0.00    +0.024 C 
ATOM      9  C   UNL     1      -2.925 -12.795  13.380  0.00  0.00    +0.050 C 
ATOM     10  C   UNL     1      -1.615 -12.557  14.127  0.00  0.00    +0.017 C 
ATOM     11  C   UNL     1      -1.581 -10.258  13.115  0.00  0.00    +0.090 C 
ATOM     12  C   UNL     1      -2.923 -11.986  12.063  0.00  0.00    +0.094 C 
ATOM     13  C   UNL     1      -2.691 -10.698  15.380  0.00  0.00    +0.130 C 
ATOM     14  C   UNL     1      -4.113 -12.408  14.240  0.00  0.00    +0.026 A 
ATOM     16  C   UNL     1      -5.282 -13.060  14.120  0.00  0.00    +0.024 A 
ATOM     17  C   UNL     1      -5.066 -10.919  15.945  0.00  0.00    +0.273 A 
ATOM     19  C   UNL     1      -6.357 -11.657  15.765  0.00  0.00    +0.099 A 
ATOM     20  C   UNL     1      -6.425 -12.674  14.899  0.00  0.00    +0.030 A 
ENDROOT
BRANCH  19   6
ATOM      2  O   UNL     1      -6.949 -12.485  18.432  0.00  0.00    -0.270 OA
ATOM      6  N   UNL     1      -7.429 -11.264  16.511  0.00  0.00    -0.277 N 
ATOM     28  C   UNL     1      -7.662 -11.704  17.807  0.00  0.00    +0.248 C 
ATOM     35  H   UNL     1      -8.138 -10.742  16.007  0.00  0.00    +0.155 HD
BRANCH  28  30
ATOM      7  N   UNL     1     -11.115 -10.110  19.701  0.00  0.00    -0.263 NA
ATOM     30  C   UNL     1      -8.871 -11.147  18.469  0.00  0.00    +0.040 A 
ATOM     31  C   UNL     1      -9.337 -11.745  19.615  0.00  0.00    +0.033 A 
ATOM     32  C   UNL     1      -9.486 -10.049  17.916  0.00  0.00    +0.033 A 
ATOM     33  C   UNL     1     -10.465 -11.187  20.195  0.00  0.00    +0.111 A 
ATOM     34  C   UNL     1     -10.608  -9.568  18.572  0.00  0.00    +0.111 A 
ENDBRANCH  28  30
ENDBRANCH  19   6
BRANCH   3  15
ATOM     15  C   UNL     1      -2.744  -9.800  11.051  0.00  0.00    +0.121 C 
BRANCH  15  18
ATOM      5  N   UNL     1      -5.678  -9.880   8.878  0.00  0.00    -0.349 N 
ATOM     18  C   UNL     1      -4.100  -9.809  10.401  0.00  0.00    -0.008 A 
ATOM     21  C   UNL     1      -5.332  -9.717  11.076  0.00  0.00    +0.004 A 
ATOM     22  C   UNL     1      -4.322  -9.908   9.063  0.00  0.00    +0.091 A 
ATOM     23  C   UNL     1      -6.320  -9.765  10.090  0.00  0.00    +0.049 A 
ATOM     24  C   UNL     1      -5.725  -9.599  12.424  0.00  0.00    +0.010 A 
ATOM     25  C   UNL     1      -7.687  -9.700  10.386  0.00  0.00    +0.026 A 
ATOM     26  C   UNL     1      -6.327  -9.964   7.587  0.00  0.00    +0.149 C 
ATOM     27  C   UNL     1      -7.088  -9.532  12.734  0.00  0.00    +0.001 A 
ATOM     29  C   UNL     1      -8.052  -9.581  11.730  0.00  0.00    +0.002 A 
ENDBRANCH  15  18
ENDBRANCH   3  15
TORSDOF 4
ENDMDL
MODEL 8
REMARK VINA RESULT:      -6.9     18.809     22.240
REMARK  Name = 7051869
REMARK  5 active torsions:
REMARK  status: ('A' for Active; 'I' for Inactive)
REMARK    1  A    between atoms: N_3  and  C_15
REMARK    2  A    between atoms: N_5  and  C_26
REMARK    3  A    between atoms: N_6  and  C_19
REMARK    4  A    between atoms: C_15  and  C_18
REMARK    5  A    between atoms: C_28  and  C_30
REMARK                            x       y       z     vdW  Elec       q    Type
REMARK                         _______ _______ _______ _____ _____    ______ ____
ROOT
ATOM      1  O   UNL     1      -7.109   9.475   4.951  0.00  0.00    -0.266 OA
ATOM      3  N   UNL     1      -2.257  10.211   3.928  0.00  0.00    -0.297 NA
ATOM      4  N   UNL     1      -4.852   9.063   5.389  0.00  0.00    -0.310 N 
ATOM      8  C   UNL     1      -3.223  10.893   6.140  0.00  0.00    +0.024 C 
ATOM      9  C   UNL     1      -2.416   8.601   5.831  0.00  0.00    +0.050 C 
ATOM     10  C   UNL     1      -2.491   9.750   6.833  0.00  0.00    +0.017 C 
ATOM     11  C   UNL     1      -2.453  11.319   4.871  0.00  0.00    +0.090 C 
ATOM     12  C   UNL     1      -1.627   9.055   4.582  0.00  0.00    +0.094 C 
ATOM     13  C   UNL     1      -4.659  10.449   5.836  0.00  0.00    +0.130 C 
ATOM     14  C   UNL     1      -3.807   8.134   5.442  0.00  0.00    +0.026 A 
ATOM     16  C   UNL     1      -4.030   6.846   5.131  0.00  0.00    +0.024 A 
ATOM     17  C   UNL     1      -6.155   8.697   4.998  0.00  0.00    +0.273 A 
ATOM     19  C   UNL     1      -6.358   7.257   4.638  0.00  0.00    +0.099 A 
ATOM     20  C   UNL     1      -5.332   6.403   4.720  0.00  0.00    +0.030 A 
ENDROOT
BRANCH  19   6
ATOM      2  O   UNL     1      -8.370   6.110   6.304  0.00  0.00    -0.270 OA
ATOM      6  N   UNL     1      -7.602   6.865   4.243  0.00  0.00    -0.277 N 
ATOM     28  C   UNL     1      -8.540   6.312   5.105  0.00  0.00    +0.248 C 
ATOM     35  H   UNL     1      -7.756   6.860   3.240  0.00  0.00    +0.155 HD
BRANCH  28  30
ATOM      7  N   UNL     1     -12.288   5.330   3.362  0.00  0.00    -0.263 NA
ATOM     30  C   UNL     1      -9.851   5.967   4.495  0.00  0.00    +0.040 A 
ATOM     31  C   UNL     1     -10.969   5.934   5.294  0.00  0.00    +0.033 A 
ATOM     32  C   UNL     1      -9.907   5.693   3.150  0.00  0.00    +0.033 A 
ATOM     33  C   UNL     1     -12.166   5.610   4.679  0.00  0.00    +0.111 A 
ATOM     34  C   UNL     1     -11.153   5.379   2.630  0.00  0.00    +0.111 A 
ENDBRANCH  28  30
ENDBRANCH  19   6
BRANCH   3  15
ATOM     15  C   UNL     1      -1.482  10.643   2.768  0.00  0.00    +0.121 C 
BRANCH  15  18
ATOM      5  N   UNL     1      -3.988  10.273   0.137  0.00  0.00    -0.349 N 
ATOM     18  C   UNL     1      -2.288  10.486   1.507  0.00  0.00    -0.008 A 
ATOM     21  C   UNL     1      -1.761  10.394   0.205  0.00  0.00    +0.004 A 
ATOM     22  C   UNL     1      -3.645  10.412   1.455  0.00  0.00    +0.091 A 
ATOM     23  C   UNL     1      -2.859  10.260  -0.649  0.00  0.00    +0.049 A 
ATOM     24  C   UNL     1      -0.467  10.411  -0.351  0.00  0.00    +0.010 A 
ATOM     25  C   UNL     1      -2.725  10.141  -2.037  0.00  0.00    +0.026 A 
ATOM     26  C   UNL     1      -5.349  10.161  -0.343  0.00  0.00    +0.149 C 
ATOM     27  C   UNL     1      -0.318  10.291  -1.738  0.00  0.00    +0.001 A 
ATOM     29  C   UNL     1      -1.431  10.158  -2.566  0.00  0.00    +0.002 A 
ENDBRANCH  15  18
ENDBRANCH   3  15
TORSDOF 4
ENDMDL
MODEL 9
REMARK VINA RESULT:      -6.9     21.123     24.973
REMARK  Name = 7051869
REMARK  5 active torsions:
REMARK  status: ('A' for Active; 'I' for Inactive)
REMARK    1  A    between atoms: N_3  and  C_15
REMARK    2  A    between atoms: N_5  and  C_26
REMARK    3  A    between atoms: N_6  and  C_19
REMARK    4  A    between atoms: C_15  and  C_18
REMARK    5  A    between atoms: C_28  and  C_30
REMARK                            x       y       z     vdW  Elec       q    Type
REMARK                         _______ _______ _______ _____ _____    ______ ____
ROOT
ATOM      1  O   UNL     1       9.522  -9.591  31.918  0.00  0.00    -0.266 OA
ATOM      3  N   UNL     1       8.218  -7.024  36.022  0.00  0.00    -0.297 NA
ATOM      4  N   UNL     1       8.665  -7.667  32.928  0.00  0.00    -0.310 N 
ATOM      8  C   UNL     1      10.041  -6.196  34.512  0.00  0.00    +0.024 C 
ATOM      9  C   UNL     1       7.713  -5.610  34.025  0.00  0.00    +0.050 C 
ATOM     10  C   UNL     1       9.141  -5.073  34.010  0.00  0.00    +0.017 C 
ATOM     11  C   UNL     1       9.624  -6.608  35.940  0.00  0.00    +0.090 C 
ATOM     12  C   UNL     1       7.321  -5.998  35.469  0.00  0.00    +0.094 C 
ATOM     13  C   UNL     1       9.976  -7.363  33.519  0.00  0.00    +0.130 C 
ATOM     14  C   UNL     1       7.577  -6.804  33.098  0.00  0.00    +0.026 A 
ATOM     16  C   UNL     1       6.418  -7.043  32.462  0.00  0.00    +0.024 A 
ATOM     17  C   UNL     1       8.587  -8.812  32.110  0.00  0.00    +0.273 A 
ATOM     19  C   UNL     1       7.272  -9.056  31.437  0.00  0.00    +0.099 A 
ATOM     20  C   UNL     1       6.265  -8.194  31.616  0.00  0.00    +0.030 A 
ENDROOT
BRANCH  19   6
ATOM      2  O   UNL     1       6.451 -11.654  32.285  0.00  0.00    -0.270 OA
ATOM      6  N   UNL     1       7.152 -10.160  30.646  0.00  0.00    -0.277 N 
ATOM     28  C   UNL     1       6.747 -11.400  31.120  0.00  0.00    +0.248 C 
ATOM     35  H   UNL     1       7.526 -10.062  29.708  0.00  0.00    +0.155 HD
BRANCH  28  30
ATOM      7  N   UNL     1       6.480 -14.485  28.210  0.00  0.00    -0.263 NA
ATOM     30  C   UNL     1       6.654 -12.480  30.102  0.00  0.00    +0.040 A 
ATOM     31  C   UNL     1       5.549 -13.297  30.097  0.00  0.00    +0.033 A 
ATOM     32  C   UNL     1       7.676 -12.629  29.196  0.00  0.00    +0.033 A 
ATOM     33  C   UNL     1       5.509 -14.287  29.129  0.00  0.00    +0.111 A 
ATOM     34  C   UNL     1       7.541 -13.650  28.267  0.00  0.00    +0.111 A 
ENDBRANCH  28  30
ENDBRANCH  19   6
BRANCH   3  15
ATOM     15  C   UNL     1       7.850  -7.356  37.396  0.00  0.00    +0.121 C 
BRANCH  15  18
ATOM      5  N   UNL     1       4.287  -7.638  38.144  0.00  0.00    -0.349 N 
ATOM     18  C   UNL     1       6.381  -7.663  37.489  0.00  0.00    -0.008 A 
ATOM     21  C   UNL     1       5.680  -8.570  36.672  0.00  0.00    +0.004 A 
ATOM     22  C   UNL     1       5.522  -7.100  38.382  0.00  0.00    +0.091 A 
ATOM     23  C   UNL     1       4.353  -8.538  37.105  0.00  0.00    +0.049 A 
ATOM     24  C   UNL     1       6.025  -9.422  35.604  0.00  0.00    +0.010 A 
ATOM     25  C   UNL     1       3.349  -9.320  36.520  0.00  0.00    +0.026 A 
ATOM     26  C   UNL     1       3.092  -7.297  38.886  0.00  0.00    +0.149 C 
ATOM     27  C   UNL     1       5.032 -10.210  35.011  0.00  0.00    +0.001 A 
ATOM     29  C   UNL     1       3.715 -10.158  35.464  0.00  0.00    +0.002 A 
ENDBRANCH  15  18
ENDBRANCH   3  15
TORSDOF 4
ENDMDL
MODEL 10
REMARK VINA RESULT:      -6.9     23.766     28.050
REMARK  Name = 7051869
REMARK  5 active torsions:
REMARK  status: ('A' for Active; 'I' for Inactive)
REMARK    1  A    between atoms: N_3  and  C_15
REMARK    2  A    between atoms: N_5  and  C_26
REMARK    3  A    between atoms: N_6  and  C_19
REMARK    4  A    between atoms: C_15  and  C_18
REMARK    5  A    between atoms: C_28  and  C_30
REMARK                            x       y       z     vdW  Elec       q    Type
REMARK                         _______ _______ _______ _____ _____    ______ ____
ROOT
ATOM      1  O   UNL     1     -16.750   6.337  31.186  0.00  0.00    -0.266 OA
ATOM      3  N   UNL     1     -14.495  10.782  31.718  0.00  0.00    -0.297 NA
ATOM      4  N   UNL     1     -15.675   7.927  32.517  0.00  0.00    -0.310 N 
ATOM      8  C   UNL     1     -16.628  10.269  32.933  0.00  0.00    +0.024 C 
ATOM      9  C   UNL     1     -14.486   9.634  33.937  0.00  0.00    +0.050 C 
ATOM     10  C   UNL     1     -15.876  10.179  34.255  0.00  0.00    +0.017 C 
ATOM     11  C   UNL     1     -15.879  11.207  31.962  0.00  0.00    +0.090 C 
ATOM     12  C   UNL     1     -13.758  10.603  32.977  0.00  0.00    +0.094 C 
ATOM     13  C   UNL     1     -16.805   8.854  32.366  0.00  0.00    +0.130 C 
ATOM     14  C   UNL     1     -14.578   8.248  33.324  0.00  0.00    +0.026 A 
ATOM     16  C   UNL     1     -13.607   7.345  33.536  0.00  0.00    +0.024 A 
ATOM     17  C   UNL     1     -15.797   6.671  31.891  0.00  0.00    +0.273 A 
ATOM     19  C   UNL     1     -14.683   5.699  32.135  0.00  0.00    +0.099 A 
ATOM     20  C   UNL     1     -13.663   6.046  32.927  0.00  0.00    +0.030 A 
ENDROOT
BRANCH  19   6
ATOM      2  O   UNL     1     -15.673   3.301  33.323  0.00  0.00    -0.270 OA
ATOM      6  N   UNL     1     -14.758   4.476  31.537  0.00  0.00    -0.277 N 
ATOM     28  C   UNL     1     -15.251   3.343  32.170  0.00  0.00    +0.248 C 
ATOM     35  H   UNL     1     -14.287   4.404  30.641  0.00  0.00    +0.155 HD
BRANCH  28  30
ATOM      7  N   UNL     1     -15.321  -0.198  29.824  0.00  0.00    -0.263 NA
ATOM     30  C   UNL     1     -15.275   2.105  31.348  0.00  0.00    +0.040 A 
ATOM     31  C   UNL     1     -14.852   0.925  31.911  0.00  0.00    +0.033 A 
ATOM     32  C   UNL     1     -15.721   2.176  30.050  0.00  0.00    +0.033 A 
ATOM     33  C   UNL     1     -14.895  -0.202  31.106  0.00  0.00    +0.111 A 
ATOM     34  C   UNL     1     -15.724   0.993  29.327  0.00  0.00    +0.111 A 
ENDBRANCH  28  30
ENDBRANCH  19   6
BRANCH   3  15
ATOM     15  C   UNL     1     -13.807  11.723  30.838  0.00  0.00    +0.121 C 
BRANCH  15  18
ATOM      5  N   UNL     1     -14.718  10.678  27.459  0.00  0.00    -0.349 N 
ATOM     18  C   UNL     1     -13.898  11.270  29.407  0.00  0.00    -0.008 A 
ATOM     21  C   UNL     1     -12.806  10.964  28.573  0.00  0.00    +0.004 A 
ATOM     22  C   UNL     1     -15.058  11.093  28.718  0.00  0.00    +0.091 A 
ATOM     23  C   UNL     1     -13.349  10.591  27.342  0.00  0.00    +0.049 A 
ATOM     24  C   UNL     1     -11.405  10.961  28.725  0.00  0.00    +0.010 A 
ATOM     25  C   UNL     1     -12.558  10.214  26.250  0.00  0.00    +0.026 A 
ATOM     26  C   UNL     1     -15.673  10.381  26.413  0.00  0.00    +0.149 C 
ATOM     27  C   UNL     1     -10.602  10.585  27.643  0.00  0.00    +0.001 A 
ATOM     29  C   UNL     1     -11.171  10.218  26.425  0.00  0.00    +0.002 A 
ENDBRANCH  15  18
ENDBRANCH   3  15
TORSDOF 4
ENDMDL
