MODEL 1
REMARK VINA RESULT:      -7.3      0.000      0.000
REMARK  Name = 40777363
REMARK  6 active torsions:
REMARK  status: ('A' for Active; 'I' for Inactive)
REMARK    1  A    between atoms: N_4  and  C_13
REMARK    2  A    between atoms: C_6  and  C_10
REMARK    3  A    between atoms: C_7  and  C_12
REMARK    4  A    between atoms: C_10  and  C_16
REMARK    5  A    between atoms: C_12  and  C_20
REMARK    6  A    between atoms: C_22  and  C_23
REMARK                            x       y       z     vdW  Elec       q    Type
REMARK                         _______ _______ _______ _____ _____    ______ ____
ROOT
ATOM      3  N   UNL     1      12.003   7.328  17.465  0.00  0.00    -0.316 NA
ATOM      6  C   UNL     1      13.455   9.123  19.304  0.00  0.00    +0.004 C 
ATOM      7  C   UNL     1      13.820   7.629  19.133  0.00  0.00    +0.012 C 
ATOM      8  C   UNL     1      12.745   9.616  18.032  0.00  0.00    +0.019 C 
ATOM      9  C   UNL     1      12.606   6.796  18.688  0.00  0.00    +0.085 C 
ATOM     11  C   UNL     1      11.577   8.716  17.629  0.00  0.00    +0.081 C 
ATOM     29  H   UNL     1      11.199   6.757  17.208  0.00  0.00    +0.122 HD
ENDROOT
BRANCH   6  10
ATOM     10  C   UNL     1      12.611   9.420  20.549  0.00  0.00    +0.099 C 
BRANCH  10  16
ATOM      1  O   UNL     1      14.488  10.598  21.521  0.00  0.00    -0.276 OA
ATOM      4  N   UNL     1      12.331  11.126  22.206  0.00  0.00    -0.312 N 
ATOM     16  C   UNL     1      13.272  10.431  21.462  0.00  0.00    +0.214 C 
ATOM     30  H   UNL     1      11.344  10.960  22.033  0.00  0.00    +0.149 HD
BRANCH   4  13
ATOM     13  C   UNL     1      12.681  12.153  23.163  0.00  0.00    +0.073 C 
ATOM     14  C   UNL     1      12.264  13.539  22.660  0.00  0.00    +0.022 C 
ATOM     15  C   UNL     1      12.074  11.854  24.538  0.00  0.00    +0.022 C 
ATOM     17  C   UNL     1      10.749  13.741  22.690  0.00  0.00    +0.002 C 
ATOM     18  C   UNL     1      10.559  12.060  24.565  0.00  0.00    +0.002 C 
ATOM     19  C   UNL     1      10.170  13.450  24.072  0.00  0.00    +0.000 C 
ENDBRANCH   4  13
ENDBRANCH  10  16
ENDBRANCH   6  10
BRANCH   7  12
ATOM     12  C   UNL     1      14.460   7.022  20.381  0.00  0.00    +0.064 C 
BRANCH  12  20
ATOM      2  O   UNL     1      17.547   5.727  19.053  0.00  0.00    -0.354 OA
ATOM      5  N   UNL     1      16.182   5.977  18.972  0.00  0.00    -0.083 NA
ATOM     20  C   UNL     1      15.875   6.595  20.117  0.00  0.00    +0.085 A 
ATOM     21  C   UNL     1      16.995   6.760  20.951  0.00  0.00    +0.076 A 
ATOM     22  C   UNL     1      18.020   6.199  20.236  0.00  0.00    +0.167 A 
BRANCH  22  23
ATOM     23  C   UNL     1      19.422   6.011  20.463  0.00  0.00    +0.020 A 
ATOM     24  C   UNL     1      20.211   7.083  20.882  0.00  0.00    +0.011 A 
ATOM     25  C   UNL     1      19.999   4.757  20.264  0.00  0.00    +0.011 A 
ATOM     26  C   UNL     1      21.576   6.901  21.103  0.00  0.00    +0.001 A 
ATOM     27  C   UNL     1      21.365   4.575  20.485  0.00  0.00    +0.001 A 
ATOM     28  C   UNL     1      22.153   5.646  20.905  0.00  0.00    +0.000 A 
ENDBRANCH  22  23
ENDBRANCH  12  20
ENDBRANCH   7  12
TORSDOF 6
ENDMDL
MODEL 2
REMARK VINA RESULT:      -7.0      4.364      6.234
REMARK  Name = 40777363
REMARK  6 active torsions:
REMARK  status: ('A' for Active; 'I' for Inactive)
REMARK    1  A    between atoms: N_4  and  C_13
REMARK    2  A    between atoms: C_6  and  C_10
REMARK    3  A    between atoms: C_7  and  C_12
REMARK    4  A    between atoms: C_10  and  C_16
REMARK    5  A    between atoms: C_12  and  C_20
REMARK    6  A    between atoms: C_22  and  C_23
REMARK                            x       y       z     vdW  Elec       q    Type
REMARK                         _______ _______ _______ _____ _____    ______ ____
ROOT
ATOM      3  N   UNL     1      10.763   6.503  21.303  0.00  0.00    -0.316 NA
ATOM      6  C   UNL     1      12.378   8.901  20.709  0.00  0.00    +0.004 C 
ATOM      7  C   UNL     1      12.464   7.605  19.867  0.00  0.00    +0.012 C 
ATOM      8  C   UNL     1      11.006   8.960  21.401  0.00  0.00    +0.019 C 
ATOM      9  C   UNL     1      12.086   6.364  20.694  0.00  0.00    +0.085 C 
ATOM     11  C   UNL     1      10.683   7.678  22.168  0.00  0.00    +0.081 C 
ATOM     29  H   UNL     1      10.553   5.668  21.849  0.00  0.00    +0.122 HD
ENDROOT
BRANCH   6  10
ATOM     10  C   UNL     1      13.511   9.057  21.730  0.00  0.00    +0.099 C 
BRANCH  10  16
ATOM      1  O   UNL     1      14.219  10.967  23.034  0.00  0.00    -0.276 OA
ATOM      4  N   UNL     1      13.827  11.222  20.758  0.00  0.00    -0.312 N 
ATOM     16  C   UNL     1      13.895  10.505  21.943  0.00  0.00    +0.214 C 
ATOM     30  H   UNL     1      13.613  10.731  19.896  0.00  0.00    +0.149 HD
BRANCH   4  13
ATOM     13  C   UNL     1      14.138  12.632  20.668  0.00  0.00    +0.073 C 
ATOM     14  C   UNL     1      15.627  12.849  20.376  0.00  0.00    +0.022 C 
ATOM     15  C   UNL     1      13.260  13.324  19.621  0.00  0.00    +0.022 C 
ATOM     17  C   UNL     1      16.005  12.465  18.946  0.00  0.00    +0.002 C 
ATOM     18  C   UNL     1      13.642  12.940  18.191  0.00  0.00    +0.002 C 
ATOM     19  C   UNL     1      15.125  13.176  17.921  0.00  0.00    +0.000 C 
ENDBRANCH   4  13
ENDBRANCH  10  16
ENDBRANCH   6  10
BRANCH   7  12
ATOM     12  C   UNL     1      13.826   7.413  19.200  0.00  0.00    +0.064 C 
BRANCH  12  20
ATOM      2  O   UNL     1      13.659   8.462  15.759  0.00  0.00    -0.354 OA
ATOM      5  N   UNL     1      13.446   7.538  16.775  0.00  0.00    -0.083 NA
ATOM     20  C   UNL     1      13.897   8.132  17.884  0.00  0.00    +0.085 A 
ATOM     21  C   UNL     1      14.401   9.420  17.632  0.00  0.00    +0.076 A 
ATOM     22  C   UNL     1      14.227   9.579  16.282  0.00  0.00    +0.167 A 
BRANCH  22  23
ATOM     23  C   UNL     1      14.508  10.629  15.347  0.00  0.00    +0.020 A 
ATOM     24  C   UNL     1      13.462  11.367  14.792  0.00  0.00    +0.011 A 
ATOM     25  C   UNL     1      15.827  10.913  14.993  0.00  0.00    +0.011 A 
ATOM     26  C   UNL     1      13.735  12.387  13.882  0.00  0.00    +0.001 A 
ATOM     27  C   UNL     1      16.100  11.934  14.082  0.00  0.00    +0.001 A 
ATOM     28  C   UNL     1      15.054  12.672  13.528  0.00  0.00    +0.000 A 
ENDBRANCH  22  23
ENDBRANCH  12  20
ENDBRANCH   7  12
TORSDOF 6
ENDMDL
MODEL 3
REMARK VINA RESULT:      -7.0      2.070      3.296
REMARK  Name = 40777363
REMARK  6 active torsions:
REMARK  status: ('A' for Active; 'I' for Inactive)
REMARK    1  A    between atoms: N_4  and  C_13
REMARK    2  A    between atoms: C_6  and  C_10
REMARK    3  A    between atoms: C_7  and  C_12
REMARK    4  A    between atoms: C_10  and  C_16
REMARK    5  A    between atoms: C_12  and  C_20
REMARK    6  A    between atoms: C_22  and  C_23
REMARK                            x       y       z     vdW  Elec       q    Type
REMARK                         _______ _______ _______ _____ _____    ______ ____
ROOT
ATOM      3  N   UNL     1      11.985   7.620  17.155  0.00  0.00    -0.316 NA
ATOM      6  C   UNL     1      13.586   9.198  19.066  0.00  0.00    +0.004 C 
ATOM      7  C   UNL     1      13.753   7.669  18.899  0.00  0.00    +0.012 C 
ATOM      8  C   UNL     1      13.004   9.785  17.769  0.00  0.00    +0.019 C 
ATOM      9  C   UNL     1      12.457   7.008  18.397  0.00  0.00    +0.085 C 
ATOM     11  C   UNL     1      11.743   9.053  17.311  0.00  0.00    +0.081 C 
ATOM     29  H   UNL     1      11.122   7.163  16.859  0.00  0.00    +0.122 HD
ENDROOT
BRANCH   6  10
ATOM     10  C   UNL     1      12.738   9.604  20.277  0.00  0.00    +0.099 C 
BRANCH  10  16
ATOM      1  O   UNL     1      12.881  11.353  21.944  0.00  0.00    -0.276 OA
ATOM      4  N   UNL     1      14.833  10.493  21.020  0.00  0.00    -0.312 N 
ATOM     16  C   UNL     1      13.459  10.584  21.179  0.00  0.00    +0.214 C 
ATOM     30  H   UNL     1      15.214   9.777  20.411  0.00  0.00    +0.149 HD
BRANCH   4  13
ATOM     13  C   UNL     1      15.769  11.316  21.756  0.00  0.00    +0.073 C 
ATOM     14  C   UNL     1      17.064  10.548  22.047  0.00  0.00    +0.022 C 
ATOM     15  C   UNL     1      16.055  12.624  21.013  0.00  0.00    +0.022 C 
ATOM     17  C   UNL     1      17.916  10.340  20.796  0.00  0.00    +0.002 C 
ATOM     18  C   UNL     1      16.909  12.413  19.762  0.00  0.00    +0.002 C 
ATOM     19  C   UNL     1      18.197  11.658  20.081  0.00  0.00    +0.000 C 
ENDBRANCH   4  13
ENDBRANCH  10  16
ENDBRANCH   6  10
BRANCH   7  12
ATOM     12  C   UNL     1      14.252   6.978  20.168  0.00  0.00    +0.064 C 
BRANCH  12  20
ATOM      2  O   UNL     1      17.550   5.911  19.195  0.00  0.00    -0.354 OA
ATOM      5  N   UNL     1      16.194   6.089  18.952  0.00  0.00    -0.083 NA
ATOM     20  C   UNL     1      15.711   6.641  20.070  0.00  0.00    +0.085 A 
ATOM     21  C   UNL     1      16.708   6.832  21.043  0.00  0.00    +0.076 A 
ATOM     22  C   UNL     1      17.844   6.358  20.443  0.00  0.00    +0.167 A 
BRANCH  22  23
ATOM     23  C   UNL     1      19.217   6.238  20.838  0.00  0.00    +0.020 A 
ATOM     24  C   UNL     1      19.736   7.081  21.821  0.00  0.00    +0.011 A 
ATOM     25  C   UNL     1      20.034   5.280  20.239  0.00  0.00    +0.011 A 
ATOM     26  C   UNL     1      21.072   6.965  22.205  0.00  0.00    +0.001 A 
ATOM     27  C   UNL     1      21.371   5.164  20.623  0.00  0.00    +0.001 A 
ATOM     28  C   UNL     1      21.889   6.006  21.607  0.00  0.00    +0.000 A 
ENDBRANCH  22  23
ENDBRANCH  12  20
ENDBRANCH   7  12
TORSDOF 6
ENDMDL
MODEL 4
REMARK VINA RESULT:      -6.6     29.023     31.287
REMARK  Name = 40777363
REMARK  6 active torsions:
REMARK  status: ('A' for Active; 'I' for Inactive)
REMARK    1  A    between atoms: N_4  and  C_13
REMARK    2  A    between atoms: C_6  and  C_10
REMARK    3  A    between atoms: C_7  and  C_12
REMARK    4  A    between atoms: C_10  and  C_16
REMARK    5  A    between atoms: C_12  and  C_20
REMARK    6  A    between atoms: C_22  and  C_23
REMARK                            x       y       z     vdW  Elec       q    Type
REMARK                         _______ _______ _______ _____ _____    ______ ____
ROOT
ATOM      3  N   UNL     1     -13.163   9.965  31.028  0.00  0.00    -0.316 NA
ATOM      6  C   UNL     1     -12.451   8.195  33.280  0.00  0.00    +0.004 C 
ATOM      7  C   UNL     1     -13.669   7.931  32.362  0.00  0.00    +0.012 C 
ATOM      8  C   UNL     1     -11.420   9.041  32.515  0.00  0.00    +0.019 C 
ATOM      9  C   UNL     1     -14.208   9.234  31.746  0.00  0.00    +0.085 C 
ATOM     11  C   UNL     1     -12.036  10.295  31.898  0.00  0.00    +0.081 C 
ATOM     29  H   UNL     1     -13.555  10.823  30.643  0.00  0.00    +0.122 HD
ENDROOT
BRANCH   6  10
ATOM     10  C   UNL     1     -12.810   8.851  34.618  0.00  0.00    +0.099 C 
BRANCH  10  16
ATOM      1  O   UNL     1     -12.861   7.042  36.225  0.00  0.00    -0.276 OA
ATOM      4  N   UNL     1     -11.151   8.613  36.328  0.00  0.00    -0.312 N 
ATOM     16  C   UNL     1     -12.305   8.053  35.801  0.00  0.00    +0.214 C 
ATOM     30  H   UNL     1     -10.733   9.411  35.862  0.00  0.00    +0.149 HD
BRANCH   4  13
ATOM     13  C   UNL     1     -10.452   8.058  37.467  0.00  0.00    +0.073 C 
ATOM     14  C   UNL     1      -9.043   7.601  37.077  0.00  0.00    +0.022 C 
ATOM     15  C   UNL     1     -10.411   9.057  38.628  0.00  0.00    +0.022 C 
ATOM     17  C   UNL     1      -8.099   8.773  36.811  0.00  0.00    +0.002 C 
ATOM     18  C   UNL     1      -9.464  10.228  38.358  0.00  0.00    +0.002 C 
ATOM     19  C   UNL     1      -8.066   9.747  37.985  0.00  0.00    +0.000 C 
ENDBRANCH   4  13
ENDBRANCH  10  16
ENDBRANCH   6  10
BRANCH   7  12
ATOM     12  C   UNL     1     -14.791   7.162  33.060  0.00  0.00    +0.064 C 
BRANCH  12  20
ATOM      2  O   UNL     1     -14.133   3.660  33.578  0.00  0.00    -0.354 OA
ATOM      5  N   UNL     1     -14.230   4.972  34.025  0.00  0.00    -0.083 NA
ATOM     20  C   UNL     1     -14.589   5.679  32.949  0.00  0.00    +0.085 A 
ATOM     21  C   UNL     1     -14.731   4.874  31.805  0.00  0.00    +0.076 A 
ATOM     22  C   UNL     1     -14.434   3.614  32.255  0.00  0.00    +0.167 A 
BRANCH  22  23
ATOM     23  C   UNL     1     -14.375   2.316  31.649  0.00  0.00    +0.020 A 
ATOM     24  C   UNL     1     -13.749   2.150  30.413  0.00  0.00    +0.011 A 
ATOM     25  C   UNL     1     -14.944   1.219  32.296  0.00  0.00    +0.011 A 
ATOM     26  C   UNL     1     -13.693   0.888  29.824  0.00  0.00    +0.001 A 
ATOM     27  C   UNL     1     -14.888  -0.045  31.706  0.00  0.00    +0.001 A 
ATOM     28  C   UNL     1     -14.261  -0.210  30.470  0.00  0.00    +0.000 A 
ENDBRANCH  22  23
ENDBRANCH  12  20
ENDBRANCH   7  12
TORSDOF 6
ENDMDL
MODEL 5
REMARK VINA RESULT:      -6.6     17.293     21.359
REMARK  Name = 40777363
REMARK  6 active torsions:
REMARK  status: ('A' for Active; 'I' for Inactive)
REMARK    1  A    between atoms: N_4  and  C_13
REMARK    2  A    between atoms: C_6  and  C_10
REMARK    3  A    between atoms: C_7  and  C_12
REMARK    4  A    between atoms: C_10  and  C_16
REMARK    5  A    between atoms: C_12  and  C_20
REMARK    6  A    between atoms: C_22  and  C_23
REMARK                            x       y       z     vdW  Elec       q    Type
REMARK                         _______ _______ _______ _____ _____    ______ ____
ROOT
ATOM      3  N   UNL     1      15.329   4.191   1.171  0.00  0.00    -0.316 NA
ATOM      6  C   UNL     1      12.870   4.361  -0.451  0.00  0.00    +0.004 C 
ATOM      7  C   UNL     1      12.861   4.455   1.093  0.00  0.00    +0.012 C 
ATOM      8  C   UNL     1      14.254   4.785  -0.972  0.00  0.00    +0.019 C 
ATOM      9  C   UNL     1      14.057   3.714   1.714  0.00  0.00    +0.085 C 
ATOM     11  C   UNL     1      15.393   4.036  -0.281  0.00  0.00    +0.081 C 
ATOM     29  H   UNL     1      16.096   3.672   1.599  0.00  0.00    +0.122 HD
ENDROOT
BRANCH   6  10
ATOM     10  C   UNL     1      12.483   2.979  -0.994  0.00  0.00    +0.099 C 
BRANCH  10  16
ATOM      1  O   UNL     1      10.913   2.085  -2.603  0.00  0.00    -0.276 OA
ATOM      4  N   UNL     1      10.780   4.326  -2.003  0.00  0.00    -0.312 N 
ATOM     16  C   UNL     1      11.316   3.048  -1.956  0.00  0.00    +0.214 C 
ATOM     30  H   UNL     1      11.143   5.037  -1.377  0.00  0.00    +0.149 HD
BRANCH   4  13
ATOM     13  C   UNL     1       9.655   4.681  -2.842  0.00  0.00    +0.073 C 
ATOM     14  C   UNL     1       8.812   5.783  -2.192  0.00  0.00    +0.022 C 
ATOM     15  C   UNL     1      10.121   5.090  -4.242  0.00  0.00    +0.022 C 
ATOM     17  C   UNL     1       9.512   7.141  -2.206  0.00  0.00    +0.002 C 
ATOM     18  C   UNL     1      10.819   6.450  -4.253  0.00  0.00    +0.002 C 
ATOM     19  C   UNL     1       9.955   7.532  -3.613  0.00  0.00    +0.000 C 
ENDBRANCH   4  13
ENDBRANCH  10  16
ENDBRANCH   6  10
BRANCH   7  12
ATOM     12  C   UNL     1      11.549   3.974   1.715  0.00  0.00    +0.064 C 
BRANCH  12  20
ATOM      2  O   UNL     1      11.208   6.352   4.397  0.00  0.00    -0.354 OA
ATOM      5  N   UNL     1      11.650   5.979   3.134  0.00  0.00    -0.083 NA
ATOM     20  C   UNL     1      11.242   4.714   2.984  0.00  0.00    +0.085 A 
ATOM     21  C   UNL     1      10.546   4.242   4.110  0.00  0.00    +0.076 A 
ATOM     22  C   UNL     1      10.551   5.310   4.969  0.00  0.00    +0.167 A 
BRANCH  22  23
ATOM     23  C   UNL     1      10.034   5.548   6.284  0.00  0.00    +0.020 A 
ATOM     24  C   UNL     1       9.517   6.801   6.615  0.00  0.00    +0.011 A 
ATOM     25  C   UNL     1      10.049   4.527   7.234  0.00  0.00    +0.011 A 
ATOM     26  C   UNL     1       9.015   7.032   7.895  0.00  0.00    +0.001 A 
ATOM     27  C   UNL     1       9.546   4.759   8.515  0.00  0.00    +0.001 A 
ATOM     28  C   UNL     1       9.028   6.011   8.845  0.00  0.00    +0.000 A 
ENDBRANCH  22  23
ENDBRANCH  12  20
ENDBRANCH   7  12
TORSDOF 6
ENDMDL
MODEL 6
REMARK VINA RESULT:      -6.6     25.819     28.293
REMARK  Name = 40777363
REMARK  6 active torsions:
REMARK  status: ('A' for Active; 'I' for Inactive)
REMARK    1  A    between atoms: N_4  and  C_13
REMARK    2  A    between atoms: C_6  and  C_10
REMARK    3  A    between atoms: C_7  and  C_12
REMARK    4  A    between atoms: C_10  and  C_16
REMARK    5  A    between atoms: C_12  and  C_20
REMARK    6  A    between atoms: C_22  and  C_23
REMARK                            x       y       z     vdW  Elec       q    Type
REMARK                         _______ _______ _______ _____ _____    ______ ____
ROOT
ATOM      3  N   UNL     1     -14.209   4.328  21.993  0.00  0.00    -0.316 NA
ATOM      6  C   UNL     1     -14.142   7.146  21.117  0.00  0.00    +0.004 C 
ATOM      7  C   UNL     1     -12.916   6.207  21.009  0.00  0.00    +0.012 C 
ATOM      8  C   UNL     1     -15.424   6.297  21.128  0.00  0.00    +0.019 C 
ATOM      9  C   UNL     1     -12.961   5.090  22.066  0.00  0.00    +0.085 C 
ATOM     11  C   UNL     1     -15.380   5.184  22.173  0.00  0.00    +0.081 C 
ATOM     29  H   UNL     1     -14.206   3.605  22.712  0.00  0.00    +0.122 HD
ENDROOT
BRANCH   6  10
ATOM     10  C   UNL     1     -14.101   8.088  22.327  0.00  0.00    +0.099 C 
BRANCH  10  16
ATOM      1  O   UNL     1     -15.853   9.695  22.776  0.00  0.00    -0.276 OA
ATOM      4  N   UNL     1     -14.387  10.069  21.013  0.00  0.00    -0.312 N 
ATOM     16  C   UNL     1     -14.891   9.357  22.091  0.00  0.00    +0.214 C 
ATOM     30  H   UNL     1     -13.544   9.738  20.553  0.00  0.00    +0.149 HD
BRANCH   4  13
ATOM     13  C   UNL     1     -14.950  11.322  20.560  0.00  0.00    +0.073 C 
ATOM     14  C   UNL     1     -13.968  12.478  20.780  0.00  0.00    +0.022 C 
ATOM     15  C   UNL     1     -15.382  11.233  19.093  0.00  0.00    +0.022 C 
ATOM     17  C   UNL     1     -12.781  12.429  19.819  0.00  0.00    +0.002 C 
ATOM     18  C   UNL     1     -14.192  11.187  18.134  0.00  0.00    +0.002 C 
ATOM     19  C   UNL     1     -13.237  12.353  18.365  0.00  0.00    +0.000 C 
ENDBRANCH   4  13
ENDBRANCH  10  16
ENDBRANCH   6  10
BRANCH   7  12
ATOM     12  C   UNL     1     -11.583   6.953  21.073  0.00  0.00    +0.064 C 
BRANCH  12  20
ATOM      2  O   UNL     1     -10.941   7.945  17.671  0.00  0.00    -0.354 OA
ATOM      5  N   UNL     1     -11.207   6.989  18.644  0.00  0.00    -0.083 NA
ATOM     20  C   UNL     1     -11.298   7.675  19.788  0.00  0.00    +0.085 A 
ATOM     21  C   UNL     1     -11.099   9.054  19.599  0.00  0.00    +0.076 A 
ATOM     22  C   UNL     1     -10.880   9.171  18.252  0.00  0.00    +0.167 A 
BRANCH  22  23
ATOM     23  C   UNL     1     -10.610  10.265  17.367  0.00  0.00    +0.020 A 
ATOM     24  C   UNL     1     -11.146  10.269  16.078  0.00  0.00    +0.011 A 
ATOM     25  C   UNL     1      -9.811  11.326  17.793  0.00  0.00    +0.011 A 
ATOM     26  C   UNL     1     -10.883  11.333  15.217  0.00  0.00    +0.001 A 
ATOM     27  C   UNL     1      -9.548  12.391  16.930  0.00  0.00    +0.001 A 
ATOM     28  C   UNL     1     -10.085  12.395  15.643  0.00  0.00    +0.000 A 
ENDBRANCH  22  23
ENDBRANCH  12  20
ENDBRANCH   7  12
TORSDOF 6
ENDMDL
MODEL 7
REMARK VINA RESULT:      -6.6     27.846     29.866
REMARK  Name = 40777363
REMARK  6 active torsions:
REMARK  status: ('A' for Active; 'I' for Inactive)
REMARK    1  A    between atoms: N_4  and  C_13
REMARK    2  A    between atoms: C_6  and  C_10
REMARK    3  A    between atoms: C_7  and  C_12
REMARK    4  A    between atoms: C_10  and  C_16
REMARK    5  A    between atoms: C_12  and  C_20
REMARK    6  A    between atoms: C_22  and  C_23
REMARK                            x       y       z     vdW  Elec       q    Type
REMARK                         _______ _______ _______ _____ _____    ______ ____
ROOT
ATOM      3  N   UNL     1     -11.351  -7.461  15.689  0.00  0.00    -0.316 NA
ATOM      6  C   UNL     1      -9.011  -9.177  16.222  0.00  0.00    +0.004 C 
ATOM      7  C   UNL     1      -9.609  -8.996  14.806  0.00  0.00    +0.012 C 
ATOM      8  C   UNL     1      -9.369  -7.953  17.080  0.00  0.00    +0.019 C 
ATOM      9  C   UNL     1     -11.106  -8.644  14.864  0.00  0.00    +0.085 C 
ATOM     11  C   UNL     1     -10.865  -7.641  17.055  0.00  0.00    +0.081 C 
ATOM     29  H   UNL     1     -12.351  -7.265  15.710  0.00  0.00    +0.122 HD
ENDROOT
BRANCH   6  10
ATOM     10  C   UNL     1      -9.438 -10.475  16.918  0.00  0.00    +0.099 C 
BRANCH  10  16
ATOM      1  O   UNL     1      -8.577 -10.992  19.119  0.00  0.00    -0.276 OA
ATOM      4  N   UNL     1      -7.243 -11.371  17.254  0.00  0.00    -0.312 N 
ATOM     16  C   UNL     1      -8.399 -10.966  17.903  0.00  0.00    +0.214 C 
ATOM     30  H   UNL     1      -7.222 -11.374  16.239  0.00  0.00    +0.149 HD
BRANCH   4  13
ATOM     13  C   UNL     1      -6.084 -11.884  17.950  0.00  0.00    +0.073 C 
ATOM     14  C   UNL     1      -5.419 -13.012  17.155  0.00  0.00    +0.022 C 
ATOM     15  C   UNL     1      -5.088 -10.762  18.261  0.00  0.00    +0.022 C 
ATOM     17  C   UNL     1      -4.698 -12.503  15.907  0.00  0.00    +0.002 C 
ATOM     18  C   UNL     1      -4.367 -10.256  17.011  0.00  0.00    +0.002 C 
ATOM     19  C   UNL     1      -3.704 -11.396  16.244  0.00  0.00    +0.000 C 
ENDBRANCH   4  13
ENDBRANCH  10  16
ENDBRANCH   6  10
BRANCH   7  12
ATOM     12  C   UNL     1      -9.375 -10.203  13.897  0.00  0.00    +0.064 C 
BRANCH  12  20
ATOM      2  O   UNL     1      -6.963  -9.550  11.305  0.00  0.00    -0.354 OA
ATOM      5  N   UNL     1      -8.265  -9.609  11.786  0.00  0.00    -0.083 NA
ATOM     20  C   UNL     1      -8.148 -10.022  13.052  0.00  0.00    +0.085 A 
ATOM     21  C   UNL     1      -6.808 -10.236  13.421  0.00  0.00    +0.076 A 
ATOM     22  C   UNL     1      -6.104  -9.925  12.288  0.00  0.00    +0.167 A 
BRANCH  22  23
ATOM     23  C   UNL     1      -4.715  -9.913  11.937  0.00  0.00    +0.020 A 
ATOM     24  C   UNL     1      -4.302  -9.322  10.742  0.00  0.00    +0.011 A 
ATOM     25  C   UNL     1      -3.775 -10.492  12.789  0.00  0.00    +0.011 A 
ATOM     26  C   UNL     1      -2.950  -9.311  10.400  0.00  0.00    +0.001 A 
ATOM     27  C   UNL     1      -2.422 -10.481  12.447  0.00  0.00    +0.001 A 
ATOM     28  C   UNL     1      -2.010  -9.890  11.253  0.00  0.00    +0.000 A 
ENDBRANCH  22  23
ENDBRANCH  12  20
ENDBRANCH   7  12
TORSDOF 6
ENDMDL
MODEL 8
REMARK VINA RESULT:      -6.6     29.017     30.987
REMARK  Name = 40777363
REMARK  6 active torsions:
REMARK  status: ('A' for Active; 'I' for Inactive)
REMARK    1  A    between atoms: N_4  and  C_13
REMARK    2  A    between atoms: C_6  and  C_10
REMARK    3  A    between atoms: C_7  and  C_12
REMARK    4  A    between atoms: C_10  and  C_16
REMARK    5  A    between atoms: C_12  and  C_20
REMARK    6  A    between atoms: C_22  and  C_23
REMARK                            x       y       z     vdW  Elec       q    Type
REMARK                         _______ _______ _______ _____ _____    ______ ____
ROOT
ATOM      3  N   UNL     1     -14.101   9.566  30.706  0.00  0.00    -0.316 NA
ATOM      6  C   UNL     1     -11.857   8.816  32.470  0.00  0.00    +0.004 C 
ATOM      7  C   UNL     1     -13.180   8.015  32.413  0.00  0.00    +0.012 C 
ATOM      8  C   UNL     1     -11.669   9.570  31.143  0.00  0.00    +0.019 C 
ATOM      9  C   UNL     1     -14.362   8.900  31.983  0.00  0.00    +0.085 C 
ATOM     11  C   UNL     1     -12.898  10.394  30.761  0.00  0.00    +0.081 C 
ATOM     29  H   UNL     1     -14.900  10.149  30.460  0.00  0.00    +0.122 HD
ENDROOT
BRANCH   6  10
ATOM     10  C   UNL     1     -11.760   9.776  33.661  0.00  0.00    +0.099 C 
BRANCH  10  16
ATOM      1  O   UNL     1      -9.342   9.699  33.689  0.00  0.00    -0.276 OA
ATOM      4  N   UNL     1     -10.505   9.752  35.701  0.00  0.00    -0.312 N 
ATOM     16  C   UNL     1     -10.397   9.738  34.318  0.00  0.00    +0.214 C 
ATOM     30  H   UNL     1     -11.422   9.855  36.123  0.00  0.00    +0.149 HD
BRANCH   4  13
ATOM     13  C   UNL     1      -9.359   9.721  36.584  0.00  0.00    +0.073 C 
ATOM     14  C   UNL     1      -9.664  10.437  37.904  0.00  0.00    +0.022 C 
ATOM     15  C   UNL     1      -8.891   8.283  36.826  0.00  0.00    +0.022 C 
ATOM     17  C   UNL     1     -10.626   9.646  38.791  0.00  0.00    +0.002 C 
ATOM     18  C   UNL     1      -9.854   7.496  37.715  0.00  0.00    +0.002 C 
ATOM     19  C   UNL     1     -10.131   8.222  39.028  0.00  0.00    +0.000 C 
ENDBRANCH   4  13
ENDBRANCH  10  16
ENDBRANCH   6  10
BRANCH   7  12
ATOM     12  C   UNL     1     -13.499   7.291  33.722  0.00  0.00    +0.064 C 
BRANCH  12  20
ATOM      2  O   UNL     1     -14.723   3.907  33.862  0.00  0.00    -0.354 OA
ATOM      5  N   UNL     1     -14.561   5.180  34.397  0.00  0.00    -0.083 NA
ATOM     20  C   UNL     1     -13.864   5.856  33.478  0.00  0.00    +0.085 A 
ATOM     21  C   UNL     1     -13.561   5.068  32.353  0.00  0.00    +0.076 A 
ATOM     22  C   UNL     1     -14.124   3.854  32.645  0.00  0.00    +0.167 A 
BRANCH  22  23
ATOM     23  C   UNL     1     -14.209   2.594  31.966  0.00  0.00    +0.020 A 
ATOM     24  C   UNL     1     -14.793   1.497  32.600  0.00  0.00    +0.011 A 
ATOM     25  C   UNL     1     -13.706   2.464  30.671  0.00  0.00    +0.011 A 
ATOM     26  C   UNL     1     -14.875   0.272  31.940  0.00  0.00    +0.001 A 
ATOM     27  C   UNL     1     -13.788   1.238  30.011  0.00  0.00    +0.001 A 
ATOM     28  C   UNL     1     -14.374   0.142  30.645  0.00  0.00    +0.000 A 
ENDBRANCH  22  23
ENDBRANCH  12  20
ENDBRANCH   7  12
TORSDOF 6
ENDMDL
MODEL 9
REMARK VINA RESULT:      -6.5     25.769     28.490
REMARK  Name = 40777363
REMARK  6 active torsions:
REMARK  status: ('A' for Active; 'I' for Inactive)
REMARK    1  A    between atoms: N_4  and  C_13
REMARK    2  A    between atoms: C_6  and  C_10
REMARK    3  A    between atoms: C_7  and  C_12
REMARK    4  A    between atoms: C_10  and  C_16
REMARK    5  A    between atoms: C_12  and  C_20
REMARK    6  A    between atoms: C_22  and  C_23
REMARK                            x       y       z     vdW  Elec       q    Type
REMARK                         _______ _______ _______ _____ _____    ______ ____
ROOT
ATOM      3  N   UNL     1     -16.719   7.223  21.702  0.00  0.00    -0.316 NA
ATOM      6  C   UNL     1     -13.822   7.438  21.180  0.00  0.00    +0.004 C 
ATOM      7  C   UNL     1     -14.645   8.585  21.813  0.00  0.00    +0.012 C 
ATOM      8  C   UNL     1     -14.531   6.101  21.453  0.00  0.00    +0.019 C 
ATOM      9  C   UNL     1     -16.123   8.523  21.393  0.00  0.00    +0.085 C 
ATOM     11  C   UNL     1     -16.004   6.128  21.047  0.00  0.00    +0.081 C 
ATOM     29  H   UNL     1     -17.693   7.217  21.401  0.00  0.00    +0.122 HD
ENDROOT
BRANCH   6  10
ATOM     10  C   UNL     1     -13.554   7.618  19.681  0.00  0.00    +0.099 C 
BRANCH  10  16
ATOM      1  O   UNL     1     -11.201   7.318  20.159  0.00  0.00    -0.276 OA
ATOM      4  N   UNL     1     -11.849   8.132  18.081  0.00  0.00    -0.312 N 
ATOM     16  C   UNL     1     -12.074   7.660  19.365  0.00  0.00    +0.214 C 
ATOM     30  H   UNL     1     -12.643   8.325  17.479  0.00  0.00    +0.149 HD
BRANCH   4  13
ATOM     13  C   UNL     1     -10.526   8.280  17.514  0.00  0.00    +0.073 C 
ATOM     14  C   UNL     1     -10.591   8.383  15.986  0.00  0.00    +0.022 C 
ATOM     15  C   UNL     1      -9.798   9.483  18.121  0.00  0.00    +0.022 C 
ATOM     17  C   UNL     1     -11.165   9.719  15.513  0.00  0.00    +0.002 C 
ATOM     18  C   UNL     1     -10.373  10.817  17.645  0.00  0.00    +0.002 C 
ATOM     19  C   UNL     1     -10.416  10.900  16.122  0.00  0.00    +0.000 C 
ENDBRANCH   4  13
ENDBRANCH  10  16
ENDBRANCH   6  10
BRANCH   7  12
ATOM     12  C   UNL     1     -14.063   9.970  21.527  0.00  0.00    +0.064 C 
BRANCH  12  20
ATOM      2  O   UNL     1     -11.617  11.485  23.694  0.00  0.00    -0.354 OA
ATOM      5  N   UNL     1     -12.148  11.213  22.438  0.00  0.00    -0.083 NA
ATOM     20  C   UNL     1     -13.226  10.459  22.674  0.00  0.00    +0.085 A 
ATOM     21  C   UNL     1     -13.422  10.223  24.046  0.00  0.00    +0.076 A 
ATOM     22  C   UNL     1     -12.385  10.890  24.643  0.00  0.00    +0.167 A 
BRANCH  22  23
ATOM     23  C   UNL     1     -11.958  11.083  25.997  0.00  0.00    +0.020 A 
ATOM     24  C   UNL     1     -12.269  12.268  26.665  0.00  0.00    +0.011 A 
ATOM     25  C   UNL     1     -11.230  10.086  26.648  0.00  0.00    +0.011 A 
ATOM     26  C   UNL     1     -11.853  12.456  27.983  0.00  0.00    +0.001 A 
ATOM     27  C   UNL     1     -10.814  10.275  27.966  0.00  0.00    +0.001 A 
ATOM     28  C   UNL     1     -11.127  11.459  28.634  0.00  0.00    +0.000 A 
ENDBRANCH  22  23
ENDBRANCH  12  20
ENDBRANCH   7  12
TORSDOF 6
ENDMDL
MODEL 10
REMARK VINA RESULT:      -6.4     14.504     17.778
REMARK  Name = 40777363
REMARK  6 active torsions:
REMARK  status: ('A' for Active; 'I' for Inactive)
REMARK    1  A    between atoms: N_4  and  C_13
REMARK    2  A    between atoms: C_6  and  C_10
REMARK    3  A    between atoms: C_7  and  C_12
REMARK    4  A    between atoms: C_10  and  C_16
REMARK    5  A    between atoms: C_12  and  C_20
REMARK    6  A    between atoms: C_22  and  C_23
REMARK                            x       y       z     vdW  Elec       q    Type
REMARK                         _______ _______ _______ _____ _____    ______ ____
ROOT
ATOM      3  N   UNL     1      17.750   9.199   2.441  0.00  0.00    -0.316 NA
ATOM      6  C   UNL     1      15.091   8.111   3.119  0.00  0.00    +0.004 C 
ATOM      7  C   UNL     1      16.130   8.511   4.194  0.00  0.00    +0.012 C 
ATOM      8  C   UNL     1      15.375   8.899   1.829  0.00  0.00    +0.019 C 
ATOM      9  C   UNL     1      17.569   8.409   3.659  0.00  0.00    +0.085 C 
ATOM     11  C   UNL     1      16.832   8.783   1.382  0.00  0.00    +0.081 C 
ATOM     29  H   UNL     1      18.710   9.099   2.113  0.00  0.00    +0.122 HD
ENDROOT
BRANCH   6  10
ATOM     10  C   UNL     1      15.035   6.605   2.837  0.00  0.00    +0.099 C 
BRANCH  10  16
ATOM      1  O   UNL     1      13.765   6.237   0.811  0.00  0.00    -0.276 OA
ATOM      4  N   UNL     1      12.764   5.846   2.871  0.00  0.00    -0.312 N 
ATOM     16  C   UNL     1      13.809   6.217   2.038  0.00  0.00    +0.214 C 
ATOM     30  H   UNL     1      12.924   5.798   3.872  0.00  0.00    +0.149 HD
BRANCH   4  13
ATOM     13  C   UNL     1      11.469   5.430   2.378  0.00  0.00    +0.073 C 
ATOM     14  C   UNL     1      10.909   4.273   3.213  0.00  0.00    +0.022 C 
ATOM     15  C   UNL     1      10.492   6.608   2.335  0.00  0.00    +0.022 C 
ATOM     17  C   UNL     1      10.463   4.718   4.605  0.00  0.00    +0.002 C 
ATOM     18  C   UNL     1      10.046   7.050   3.730  0.00  0.00    +0.002 C 
ATOM     19  C   UNL     1       9.481   5.884   4.535  0.00  0.00    +0.000 C 
ENDBRANCH   4  13
ENDBRANCH  10  16
ENDBRANCH   6  10
BRANCH   7  12
ATOM     12  C   UNL     1      15.982   7.720   5.494  0.00  0.00    +0.064 C 
BRANCH  12  20
ATOM      2  O   UNL     1      13.000   8.981   7.071  0.00  0.00    -0.354 OA
ATOM      5  N   UNL     1      14.290   9.136   6.577  0.00  0.00    -0.083 NA
ATOM     20  C   UNL     1      14.630   7.930   6.111  0.00  0.00    +0.085 A 
ATOM     21  C   UNL     1      13.604   6.985   6.283  0.00  0.00    +0.076 A 
ATOM     22  C   UNL     1      12.603   7.696   6.889  0.00  0.00    +0.167 A 
BRANCH  22  23
ATOM     23  C   UNL     1      11.283   7.383   7.352  0.00  0.00    +0.020 A 
ATOM     24  C   UNL     1      10.265   8.332   7.253  0.00  0.00    +0.011 A 
ATOM     25  C   UNL     1      11.016   6.130   7.903  0.00  0.00    +0.011 A 
ATOM     26  C   UNL     1       8.981   8.028   7.704  0.00  0.00    +0.001 A 
ATOM     27  C   UNL     1       9.731   5.825   8.355  0.00  0.00    +0.001 A 
ATOM     28  C   UNL     1       8.714   6.774   8.254  0.00  0.00    +0.000 A 
ENDBRANCH  22  23
ENDBRANCH  12  20
ENDBRANCH   7  12
TORSDOF 6
ENDMDL
