MODEL 1
REMARK VINA RESULT:      -6.4      0.000      0.000
REMARK  Name = 25388909
REMARK  8 active torsions:
REMARK  status: ('A' for Active; 'I' for Inactive)
REMARK    1  A    between atoms: O_2  and  C_22
REMARK    2  A    between atoms: O_2  and  C_27
REMARK    3  A    between atoms: N_4  and  C_18
REMARK    4  A    between atoms: N_5  and  C_15
REMARK    5  A    between atoms: C_8  and  C_14
REMARK    6  A    between atoms: C_9  and  C_15
REMARK    7  A    between atoms: C_17  and  C_20
REMARK    8  A    between atoms: C_19  and  C_21
REMARK                            x       y       z     vdW  Elec       q    Type
REMARK                         _______ _______ _______ _____ _____    ______ ____
ROOT
ATOM      3  N   UNL     1      -6.127 -10.302  17.771  0.00  0.00    -0.297 NA
ATOM      7  C   UNL     1      -4.504 -12.155  16.926  0.00  0.00    +0.002 C 
ATOM      8  C   UNL     1      -4.087 -10.770  16.362  0.00  0.00    +0.055 C 
ATOM      9  C   UNL     1      -6.903 -11.440  17.213  0.00  0.00    +0.074 C 
ATOM     10  C   UNL     1      -5.965 -12.452  16.522  0.00  0.00    +0.024 C 
ATOM     11  C   UNL     1      -4.476 -12.038  18.465  0.00  0.00    +0.019 C 
ATOM     12  C   UNL     1      -5.207  -9.759  16.740  0.00  0.00    +0.094 C 
ATOM     13  C   UNL     1      -5.309 -10.818  18.896  0.00  0.00    +0.085 C 
ENDROOT
BRANCH   8  14
ATOM      4  N   UNL     1      -2.404 -10.668  14.466  0.00  0.00    -0.270 N 
ATOM      6  N   UNL     1      -2.274 -10.581  13.131  0.00  0.00    -0.171 NA
ATOM     14  C   UNL     1      -3.700 -10.679  14.893  0.00  0.00    +0.044 A 
ATOM     16  C   UNL     1      -4.470 -10.594  13.759  0.00  0.00    +0.053 A 
ATOM     17  C   UNL     1      -3.539 -10.536  12.705  0.00  0.00    +0.096 A 
ATOM     18  C   UNL     1      -1.218 -10.735  15.288  0.00  0.00    +0.172 C 
BRANCH  17  20
ATOM     20  C   UNL     1      -3.835 -10.437  11.299  0.00  0.00    +0.044 A 
ATOM     22  C   UNL     1      -4.110 -11.577  10.544  0.00  0.00    +0.129 A 
ATOM     23  C   UNL     1      -3.845  -9.181  10.694  0.00  0.00    +0.014 A 
ATOM     24  C   UNL     1      -4.395 -11.460   9.184  0.00  0.00    +0.046 A 
ATOM     25  C   UNL     1      -4.130  -9.064   9.334  0.00  0.00    +0.001 A 
ATOM     26  C   UNL     1      -4.404 -10.204   8.578  0.00  0.00    +0.004 A 
BRANCH  22   2
ATOM      2  O   UNL     1      -4.108 -12.818  11.109  0.00  0.00    -0.494 OA
ATOM     27  C   UNL     1      -5.366 -13.481  11.218  0.00  0.00    +0.277 C 
ENDBRANCH  22   2
ENDBRANCH  17  20
ENDBRANCH   8  14
BRANCH   9  15
ATOM     15  C   UNL     1      -8.027 -10.978  16.283  0.00  0.00    +0.123 C 
BRANCH  15   5
ATOM      1  O   UNL     1      -9.334  -8.788  14.895  0.00  0.00    -0.276 OA
ATOM      5  N   UNL     1      -8.756  -9.892  16.864  0.00  0.00    -0.314 N 
ATOM     19  C   UNL     1      -9.355  -8.879  16.119  0.00  0.00    +0.210 C 
ATOM     21  C   UNL     1     -10.080  -7.877  16.978  0.00  0.00    +0.109 C 
ATOM     28  H   UNL     1      -8.841  -9.869  17.876  0.00  0.00    +0.149 HD
ENDBRANCH  15   5
ENDBRANCH   9  15
TORSDOF 5
ENDMDL
MODEL 2
REMARK VINA RESULT:      -6.3     23.733     25.758
REMARK  Name = 25388909
REMARK  8 active torsions:
REMARK  status: ('A' for Active; 'I' for Inactive)
REMARK    1  A    between atoms: O_2  and  C_22
REMARK    2  A    between atoms: O_2  and  C_27
REMARK    3  A    between atoms: N_4  and  C_18
REMARK    4  A    between atoms: N_5  and  C_15
REMARK    5  A    between atoms: C_8  and  C_14
REMARK    6  A    between atoms: C_9  and  C_15
REMARK    7  A    between atoms: C_17  and  C_20
REMARK    8  A    between atoms: C_19  and  C_21
REMARK                            x       y       z     vdW  Elec       q    Type
REMARK                         _______ _______ _______ _____ _____    ______ ____
ROOT
ATOM      3  N   UNL     1       9.544   7.877   6.909  0.00  0.00    -0.297 NA
ATOM      7  C   UNL     1       9.560   5.396   6.116  0.00  0.00    +0.002 C 
ATOM      8  C   UNL     1      10.880   6.105   5.707  0.00  0.00    +0.055 C 
ATOM      9  C   UNL     1       8.284   7.567   6.185  0.00  0.00    +0.074 C 
ATOM     10  C   UNL     1       8.361   6.171   5.530  0.00  0.00    +0.024 C 
ATOM     11  C   UNL     1       9.458   5.498   7.654  0.00  0.00    +0.019 C 
ATOM     12  C   UNL     1      10.713   7.617   6.031  0.00  0.00    +0.094 C 
ATOM     13  C   UNL     1       9.633   6.966   8.077  0.00  0.00    +0.085 C 
ENDROOT
BRANCH   8  14
ATOM      4  N   UNL     1      12.455   6.581   3.775  0.00  0.00    -0.270 N 
ATOM      6  N   UNL     1      12.775   6.223   2.520  0.00  0.00    -0.171 NA
ATOM     14  C   UNL     1      11.415   5.872   4.302  0.00  0.00    +0.044 A 
ATOM     16  C   UNL     1      11.028   4.990   3.323  0.00  0.00    +0.053 A 
ATOM     17  C   UNL     1      11.900   5.251   2.249  0.00  0.00    +0.096 A 
ATOM     18  C   UNL     1      13.203   7.634   4.422  0.00  0.00    +0.172 C 
BRANCH  17  20
ATOM     20  C   UNL     1      11.911   4.592   0.968  0.00  0.00    +0.044 A 
ATOM     22  C   UNL     1      12.797   3.546   0.710  0.00  0.00    +0.129 A 
ATOM     23  C   UNL     1      11.020   5.012  -0.020  0.00  0.00    +0.014 A 
ATOM     24  C   UNL     1      12.792   2.920  -0.536  0.00  0.00    +0.046 A 
ATOM     25  C   UNL     1      11.016   4.386  -1.266  0.00  0.00    +0.001 A 
ATOM     26  C   UNL     1      11.902   3.341  -1.525  0.00  0.00    +0.004 A 
BRANCH  22   2
ATOM      2  O   UNL     1      13.678   3.114   1.657  0.00  0.00    -0.494 OA
ATOM     27  C   UNL     1      15.034   3.531   1.516  0.00  0.00    +0.277 C 
ENDBRANCH  22   2
ENDBRANCH  17  20
ENDBRANCH   8  14
BRANCH   9  15
ATOM     15  C   UNL     1       7.913   8.652   5.171  0.00  0.00    +0.123 C 
BRANCH  15   5
ATOM      1  O   UNL     1       9.969   9.508   3.308  0.00  0.00    -0.276 OA
ATOM      5  N   UNL     1       8.119   8.191   3.832  0.00  0.00    -0.314 N 
ATOM     19  C   UNL     1       9.137   8.658   3.003  0.00  0.00    +0.210 C 
ATOM     21  C   UNL     1       9.143   7.987   1.656  0.00  0.00    +0.109 C 
ATOM     28  H   UNL     1       7.487   7.480   3.476  0.00  0.00    +0.149 HD
ENDBRANCH  15   5
ENDBRANCH   9  15
TORSDOF 5
ENDMDL
MODEL 3
REMARK VINA RESULT:      -6.2      1.750      2.488
REMARK  Name = 25388909
REMARK  8 active torsions:
REMARK  status: ('A' for Active; 'I' for Inactive)
REMARK    1  A    between atoms: O_2  and  C_22
REMARK    2  A    between atoms: O_2  and  C_27
REMARK    3  A    between atoms: N_4  and  C_18
REMARK    4  A    between atoms: N_5  and  C_15
REMARK    5  A    between atoms: C_8  and  C_14
REMARK    6  A    between atoms: C_9  and  C_15
REMARK    7  A    between atoms: C_17  and  C_20
REMARK    8  A    between atoms: C_19  and  C_21
REMARK                            x       y       z     vdW  Elec       q    Type
REMARK                         _______ _______ _______ _____ _____    ______ ____
ROOT
ATOM      3  N   UNL     1      -6.714 -10.382  18.786  0.00  0.00    -0.297 NA
ATOM      7  C   UNL     1      -6.983 -12.493  17.286  0.00  0.00    +0.002 C 
ATOM      8  C   UNL     1      -5.530 -11.952  17.206  0.00  0.00    +0.055 C 
ATOM      9  C   UNL     1      -7.908 -10.235  17.914  0.00  0.00    +0.074 C 
ATOM     10  C   UNL     1      -7.967 -11.377  16.875  0.00  0.00    +0.024 C 
ATOM     11  C   UNL     1      -7.258 -12.816  18.771  0.00  0.00    +0.019 C 
ATOM     12  C   UNL     1      -5.499 -10.591  17.958  0.00  0.00    +0.094 C 
ATOM     13  C   UNL     1      -6.911 -11.586  19.629  0.00  0.00    +0.085 C 
ENDROOT
BRANCH   8  14
ATOM      4  N   UNL     1      -4.416 -12.968  15.164  0.00  0.00    -0.270 N 
ATOM      6  N   UNL     1      -3.862 -12.683  13.973  0.00  0.00    -0.171 NA
ATOM     14  C   UNL     1      -4.868 -11.871  15.838  0.00  0.00    +0.044 A 
ATOM     16  C   UNL     1      -4.589 -10.794  15.032  0.00  0.00    +0.053 A 
ATOM     17  C   UNL     1      -3.970 -11.354  13.898  0.00  0.00    +0.096 A 
ATOM     18  C   UNL     1      -4.478 -14.343  15.603  0.00  0.00    +0.172 C 
BRANCH  17  20
ATOM     20  C   UNL     1      -3.480 -10.644  12.745  0.00  0.00    +0.044 A 
ATOM     22  C   UNL     1      -4.359 -10.144  11.785  0.00  0.00    +0.129 A 
ATOM     23  C   UNL     1      -2.105 -10.458  12.597  0.00  0.00    +0.014 A 
ATOM     24  C   UNL     1      -3.864  -9.458  10.676  0.00  0.00    +0.046 A 
ATOM     25  C   UNL     1      -1.611  -9.773  11.488  0.00  0.00    +0.001 A 
ATOM     26  C   UNL     1      -2.490  -9.273  10.527  0.00  0.00    +0.004 A 
BRANCH  22   2
ATOM      2  O   UNL     1      -5.707 -10.310  11.905  0.00  0.00    -0.494 OA
ATOM     27  C   UNL     1      -6.481  -9.143  12.170  0.00  0.00    +0.277 C 
ENDBRANCH  22   2
ENDBRANCH  17  20
ENDBRANCH   8  14
BRANCH   9  15
ATOM     15  C   UNL     1      -7.978  -8.858  17.250  0.00  0.00    +0.123 C 
BRANCH  15   5
ATOM      1  O   UNL     1      -9.805  -8.132  15.112  0.00  0.00    -0.276 OA
ATOM      5  N   UNL     1      -9.288  -8.296  17.379  0.00  0.00    -0.314 N 
ATOM     19  C   UNL     1     -10.101  -7.977  16.293  0.00  0.00    +0.210 C 
ATOM     21  C   UNL     1     -11.438  -7.425  16.712  0.00  0.00    +0.109 C 
ATOM     28  H   UNL     1      -9.639  -8.128  18.317  0.00  0.00    +0.149 HD
ENDBRANCH  15   5
ENDBRANCH   9  15
TORSDOF 5
ENDMDL
MODEL 4
REMARK VINA RESULT:      -6.0     23.653     26.558
REMARK  Name = 25388909
REMARK  8 active torsions:
REMARK  status: ('A' for Active; 'I' for Inactive)
REMARK    1  A    between atoms: O_2  and  C_22
REMARK    2  A    between atoms: O_2  and  C_27
REMARK    3  A    between atoms: N_4  and  C_18
REMARK    4  A    between atoms: N_5  and  C_15
REMARK    5  A    between atoms: C_8  and  C_14
REMARK    6  A    between atoms: C_9  and  C_15
REMARK    7  A    between atoms: C_17  and  C_20
REMARK    8  A    between atoms: C_19  and  C_21
REMARK                            x       y       z     vdW  Elec       q    Type
REMARK                         _______ _______ _______ _____ _____    ______ ____
ROOT
ATOM      3  N   UNL     1      10.457   7.216   5.165  0.00  0.00    -0.297 NA
ATOM      7  C   UNL     1       8.209   8.379   5.780  0.00  0.00    +0.002 C 
ATOM      8  C   UNL     1       9.366   9.414   5.756  0.00  0.00    +0.055 C 
ATOM      9  C   UNL     1       9.780   6.467   6.255  0.00  0.00    +0.074 C 
ATOM     10  C   UNL     1       8.554   7.249   6.775  0.00  0.00    +0.024 C 
ATOM     11  C   UNL     1       8.150   7.742   4.375  0.00  0.00    +0.019 C 
ATOM     12  C   UNL     1      10.693   8.621   5.583  0.00  0.00    +0.094 C 
ATOM     13  C   UNL     1       9.550   7.230   3.991  0.00  0.00    +0.085 C 
ENDROOT
BRANCH   8  14
ATOM      4  N   UNL     1       9.340  11.776   6.682  0.00  0.00    -0.270 N 
ATOM      6  N   UNL     1       9.435  12.504   7.808  0.00  0.00    -0.171 NA
ATOM     14  C   UNL     1       9.444  10.431   6.885  0.00  0.00    +0.044 A 
ATOM     16  C   UNL     1       9.621  10.268   8.237  0.00  0.00    +0.053 A 
ATOM     17  C   UNL     1       9.607  11.578   8.754  0.00  0.00    +0.096 A 
ATOM     18  C   UNL     1       9.146  12.451   5.419  0.00  0.00    +0.172 C 
BRANCH  17  20
ATOM     20  C   UNL     1       9.757  11.960  10.134  0.00  0.00    +0.044 A 
ATOM     22  C   UNL     1       8.667  12.423  10.871  0.00  0.00    +0.129 A 
ATOM     23  C   UNL     1      11.013  11.862  10.733  0.00  0.00    +0.014 A 
ATOM     24  C   UNL     1       8.833  12.788  12.206  0.00  0.00    +0.046 A 
ATOM     25  C   UNL     1      11.178  12.228  12.069  0.00  0.00    +0.001 A 
ATOM     26  C   UNL     1      10.089  12.691  12.806  0.00  0.00    +0.004 A 
BRANCH  22   2
ATOM      2  O   UNL     1       7.428  12.529  10.311  0.00  0.00    -0.494 OA
ATOM     27  C   UNL     1       6.936  13.846  10.076  0.00  0.00    +0.277 C 
ENDBRANCH  22   2
ENDBRANCH  17  20
ENDBRANCH   8  14
BRANCH   9  15
ATOM     15  C   UNL     1      10.739   6.093   7.387  0.00  0.00    +0.123 C 
BRANCH  15   5
ATOM      1  O   UNL     1       9.645   3.566   8.308  0.00  0.00    -0.276 OA
ATOM      5  N   UNL     1      10.023   5.847   8.602  0.00  0.00    -0.314 N 
ATOM     19  C   UNL     1       9.530   4.596   8.967  0.00  0.00    +0.210 C 
ATOM     21  C   UNL     1       8.840   4.611  10.305  0.00  0.00    +0.109 C 
ATOM     28  H   UNL     1       9.873   6.632   9.228  0.00  0.00    +0.149 HD
ENDBRANCH  15   5
ENDBRANCH   9  15
TORSDOF 5
ENDMDL
MODEL 5
REMARK VINA RESULT:      -6.0      2.197      6.995
REMARK  Name = 25388909
REMARK  8 active torsions:
REMARK  status: ('A' for Active; 'I' for Inactive)
REMARK    1  A    between atoms: O_2  and  C_22
REMARK    2  A    between atoms: O_2  and  C_27
REMARK    3  A    between atoms: N_4  and  C_18
REMARK    4  A    between atoms: N_5  and  C_15
REMARK    5  A    between atoms: C_8  and  C_14
REMARK    6  A    between atoms: C_9  and  C_15
REMARK    7  A    between atoms: C_17  and  C_20
REMARK    8  A    between atoms: C_19  and  C_21
REMARK                            x       y       z     vdW  Elec       q    Type
REMARK                         _______ _______ _______ _____ _____    ______ ____
ROOT
ATOM      3  N   UNL     1      -5.195 -12.496  16.749  0.00  0.00    -0.297 NA
ATOM      7  C   UNL     1      -5.719 -10.711  18.571  0.00  0.00    +0.002 C 
ATOM      8  C   UNL     1      -7.025 -11.406  18.100  0.00  0.00    +0.055 C 
ATOM      9  C   UNL     1      -4.539 -11.208  16.401  0.00  0.00    +0.074 C 
ATOM     10  C   UNL     1      -5.004 -10.086  17.354  0.00  0.00    +0.024 C 
ATOM     11  C   UNL     1      -4.795 -11.822  19.117  0.00  0.00    +0.019 C 
ATOM     12  C   UNL     1      -6.661 -12.302  16.882  0.00  0.00    +0.094 C 
ATOM     13  C   UNL     1      -4.665 -12.935  18.063  0.00  0.00    +0.085 C 
ENDROOT
BRANCH   8  14
ATOM      4  N   UNL     1      -9.333 -10.506  18.653  0.00  0.00    -0.270 N 
ATOM      6  N   UNL     1     -10.303  -9.674  18.239  0.00  0.00    -0.171 NA
ATOM     14  C   UNL     1      -8.244 -10.535  17.831  0.00  0.00    +0.044 A 
ATOM     16  C   UNL     1      -8.523  -9.662  16.808  0.00  0.00    +0.053 A 
ATOM     17  C   UNL     1      -9.803  -9.161  17.112  0.00  0.00    +0.096 A 
ATOM     18  C   UNL     1      -9.521 -11.260  19.871  0.00  0.00    +0.172 C 
BRANCH  17  20
ATOM     20  C   UNL     1     -10.558  -8.204  16.345  0.00  0.00    +0.044 A 
ATOM     22  C   UNL     1     -11.163  -8.569  15.142  0.00  0.00    +0.129 A 
ATOM     23  C   UNL     1     -10.680  -6.898  16.819  0.00  0.00    +0.014 A 
ATOM     24  C   UNL     1     -11.890  -7.627  14.415  0.00  0.00    +0.046 A 
ATOM     25  C   UNL     1     -11.406  -5.957  16.091  0.00  0.00    +0.001 A 
ATOM     26  C   UNL     1     -12.011  -6.321  14.888  0.00  0.00    +0.004 A 
BRANCH  22   2
ATOM      2  O   UNL     1     -11.062  -9.838  14.655  0.00  0.00    -0.494 OA
ATOM     27  C   UNL     1     -10.515  -9.986  13.346  0.00  0.00    +0.277 C 
ENDBRANCH  22   2
ENDBRANCH  17  20
ENDBRANCH   8  14
BRANCH   9  15
ATOM     15  C   UNL     1      -4.743 -10.829  14.932  0.00  0.00    +0.123 C 
BRANCH  15   5
ATOM      1  O   UNL     1      -4.278 -10.107  12.159  0.00  0.00    -0.276 OA
ATOM      5  N   UNL     1      -3.506 -10.887  14.215  0.00  0.00    -0.314 N 
ATOM     19  C   UNL     1      -3.372 -10.519  12.878  0.00  0.00    +0.210 C 
ATOM     21  C   UNL     1      -1.958 -10.651  12.378  0.00  0.00    +0.109 C 
ATOM     28  H   UNL     1      -2.685 -11.211  14.716  0.00  0.00    +0.149 HD
ENDBRANCH  15   5
ENDBRANCH   9  15
TORSDOF 5
ENDMDL
MODEL 6
REMARK VINA RESULT:      -5.9     24.465     27.269
REMARK  Name = 25388909
REMARK  8 active torsions:
REMARK  status: ('A' for Active; 'I' for Inactive)
REMARK    1  A    between atoms: O_2  and  C_22
REMARK    2  A    between atoms: O_2  and  C_27
REMARK    3  A    between atoms: N_4  and  C_18
REMARK    4  A    between atoms: N_5  and  C_15
REMARK    5  A    between atoms: C_8  and  C_14
REMARK    6  A    between atoms: C_9  and  C_15
REMARK    7  A    between atoms: C_17  and  C_20
REMARK    8  A    between atoms: C_19  and  C_21
REMARK                            x       y       z     vdW  Elec       q    Type
REMARK                         _______ _______ _______ _____ _____    ______ ____
ROOT
ATOM      3  N   UNL     1      10.684   6.936   5.372  0.00  0.00    -0.297 NA
ATOM      7  C   UNL     1       8.519   7.347   6.761  0.00  0.00    +0.002 C 
ATOM      8  C   UNL     1       9.138   8.698   6.309  0.00  0.00    +0.055 C 
ATOM      9  C   UNL     1      10.739   6.161   6.639  0.00  0.00    +0.074 C 
ATOM     10  C   UNL     1       9.567   6.549   7.567  0.00  0.00    +0.024 C 
ATOM     11  C   UNL     1       8.223   6.540   5.478  0.00  0.00    +0.019 C 
ATOM     12  C   UNL     1      10.520   8.383   5.667  0.00  0.00    +0.094 C 
ATOM     13  C   UNL     1       9.494   6.482   4.612  0.00  0.00    +0.085 C 
ENDROOT
BRANCH   8  14
ATOM      4  N   UNL     1       9.037  11.139   6.995  0.00  0.00    -0.270 N 
ATOM      6  N   UNL     1       9.149  11.981   8.036  0.00  0.00    -0.171 NA
ATOM     14  C   UNL     1       9.219   9.828   7.325  0.00  0.00    +0.044 A 
ATOM     16  C   UNL     1       9.469   9.812   8.676  0.00  0.00    +0.053 A 
ATOM     17  C   UNL     1       9.413  11.165   9.059  0.00  0.00    +0.096 A 
ATOM     18  C   UNL     1       8.749  11.672   5.683  0.00  0.00    +0.172 C 
BRANCH  17  20
ATOM     20  C   UNL     1       9.610  11.693  10.385  0.00  0.00    +0.044 A 
ATOM     22  C   UNL     1      10.891  11.833  10.916  0.00  0.00    +0.129 A 
ATOM     23  C   UNL     1       8.497  12.067  11.138  0.00  0.00    +0.014 A 
ATOM     24  C   UNL     1      11.060  12.347  12.202  0.00  0.00    +0.046 A 
ATOM     25  C   UNL     1       8.666  12.581  12.423  0.00  0.00    +0.001 A 
ATOM     26  C   UNL     1       9.947  12.720  12.956  0.00  0.00    +0.004 A 
BRANCH  22   2
ATOM      2  O   UNL     1      11.997  11.476  10.203  0.00  0.00    -0.494 OA
ATOM     27  C   UNL     1      12.858  12.530   9.775  0.00  0.00    +0.277 C 
ENDBRANCH  22   2
ENDBRANCH  17  20
ENDBRANCH   8  14
BRANCH   9  15
ATOM     15  C   UNL     1      12.091   6.292   7.344  0.00  0.00    +0.123 C 
BRANCH  15   5
ATOM      1  O   UNL     1      13.924   8.511   6.964  0.00  0.00    -0.276 OA
ATOM      5  N   UNL     1      13.155   6.387   6.392  0.00  0.00    -0.314 N 
ATOM     19  C   UNL     1      13.991   7.496   6.278  0.00  0.00    +0.210 C 
ATOM     21  C   UNL     1      15.043   7.323   5.214  0.00  0.00    +0.109 C 
ATOM     28  H   UNL     1      13.305   5.597   5.772  0.00  0.00    +0.149 HD
ENDBRANCH  15   5
ENDBRANCH   9  15
TORSDOF 5
ENDMDL
MODEL 7
REMARK VINA RESULT:      -5.9     20.218     23.234
REMARK  Name = 25388909
REMARK  8 active torsions:
REMARK  status: ('A' for Active; 'I' for Inactive)
REMARK    1  A    between atoms: O_2  and  C_22
REMARK    2  A    between atoms: O_2  and  C_27
REMARK    3  A    between atoms: N_4  and  C_18
REMARK    4  A    between atoms: N_5  and  C_15
REMARK    5  A    between atoms: C_8  and  C_14
REMARK    6  A    between atoms: C_9  and  C_15
REMARK    7  A    between atoms: C_17  and  C_20
REMARK    8  A    between atoms: C_19  and  C_21
REMARK                            x       y       z     vdW  Elec       q    Type
REMARK                         _______ _______ _______ _____ _____    ______ ____
ROOT
ATOM      3  N   UNL     1     -12.670   9.518  18.074  0.00  0.00    -0.297 NA
ATOM      7  C   UNL     1     -10.144   9.906  18.576  0.00  0.00    +0.002 C 
ATOM      8  C   UNL     1     -10.859  11.259  18.313  0.00  0.00    +0.055 C 
ATOM      9  C   UNL     1     -11.841   8.620  17.229  0.00  0.00    +0.074 C 
ATOM     10  C   UNL     1     -10.344   8.977  17.359  0.00  0.00    +0.024 C 
ATOM     11  C   UNL     1     -10.864   9.246  19.773  0.00  0.00    +0.019 C 
ATOM     12  C   UNL     1     -12.301  10.935  17.827  0.00  0.00    +0.094 C 
ATOM     13  C   UNL     1     -12.376   9.205  19.494  0.00  0.00    +0.085 C 
ENDROOT
BRANCH   8  14
ATOM      4  N   UNL     1     -10.375  13.621  17.524  0.00  0.00    -0.270 N 
ATOM      6  N   UNL     1      -9.667  14.350  16.644  0.00  0.00    -0.171 NA
ATOM     14  C   UNL     1     -10.165  12.277  17.421  0.00  0.00    +0.044 A 
ATOM     16  C   UNL     1      -9.256  12.116  16.404  0.00  0.00    +0.053 A 
ATOM     17  C   UNL     1      -8.986  13.426  15.963  0.00  0.00    +0.096 A 
ATOM     18  C   UNL     1     -11.255  14.294  18.452  0.00  0.00    +0.172 C 
BRANCH  17  20
ATOM     20  C   UNL     1      -8.090  13.809  14.902  0.00  0.00    +0.044 A 
ATOM     22  C   UNL     1      -6.710  13.825  15.102  0.00  0.00    +0.129 A 
ATOM     23  C   UNL     1      -8.620  14.168  13.663  0.00  0.00    +0.014 A 
ATOM     24  C   UNL     1      -5.860  14.199  14.062  0.00  0.00    +0.046 A 
ATOM     25  C   UNL     1      -7.770  14.543  12.624  0.00  0.00    +0.001 A 
ATOM     26  C   UNL     1      -6.389  14.559  12.822  0.00  0.00    +0.004 A 
BRANCH  22   2
ATOM      2  O   UNL     1      -6.164  13.478  16.302  0.00  0.00    -0.494 OA
ATOM     27  C   UNL     1      -5.706  14.542  17.134  0.00  0.00    +0.277 C 
ENDBRANCH  22   2
ENDBRANCH  17  20
ENDBRANCH   8  14
BRANCH   9  15
ATOM     15  C   UNL     1     -12.298   8.608  15.768  0.00  0.00    +0.123 C 
BRANCH  15   5
ATOM      1  O   UNL     1     -11.843   9.054  12.936  0.00  0.00    -0.276 OA
ATOM      5  N   UNL     1     -11.324   7.973  14.934  0.00  0.00    -0.314 N 
ATOM     19  C   UNL     1     -11.174   8.249  13.577  0.00  0.00    +0.210 C 
ATOM     21  C   UNL     1     -10.058   7.460  12.944  0.00  0.00    +0.109 C 
ATOM     28  H   UNL     1     -10.711   7.288  15.364  0.00  0.00    +0.149 HD
ENDBRANCH  15   5
ENDBRANCH   9  15
TORSDOF 5
ENDMDL
MODEL 8
REMARK VINA RESULT:      -5.9      2.302      6.116
REMARK  Name = 25388909
REMARK  8 active torsions:
REMARK  status: ('A' for Active; 'I' for Inactive)
REMARK    1  A    between atoms: O_2  and  C_22
REMARK    2  A    between atoms: O_2  and  C_27
REMARK    3  A    between atoms: N_4  and  C_18
REMARK    4  A    between atoms: N_5  and  C_15
REMARK    5  A    between atoms: C_8  and  C_14
REMARK    6  A    between atoms: C_9  and  C_15
REMARK    7  A    between atoms: C_17  and  C_20
REMARK    8  A    between atoms: C_19  and  C_21
REMARK                            x       y       z     vdW  Elec       q    Type
REMARK                         _______ _______ _______ _____ _____    ______ ____
ROOT
ATOM      3  N   UNL     1      -6.046 -10.466   9.512  0.00  0.00    -0.297 NA
ATOM      7  C   UNL     1      -4.372  -8.860  10.697  0.00  0.00    +0.002 C 
ATOM      8  C   UNL     1      -4.145 -10.323  11.166  0.00  0.00    +0.055 C 
ATOM      9  C   UNL     1      -6.777  -9.309  10.092  0.00  0.00    +0.074 C 
ATOM     10  C   UNL     1      -5.837  -8.457  10.972  0.00  0.00    +0.024 C 
ATOM     11  C   UNL     1      -4.179  -8.848   9.165  0.00  0.00    +0.019 C 
ATOM     12  C   UNL     1      -5.300 -11.183  10.577  0.00  0.00    +0.094 C 
ATOM     13  C   UNL     1      -5.062  -9.939   8.534  0.00  0.00    +0.085 C 
ENDROOT
BRANCH   8  14
ATOM      4  N   UNL     1      -2.714 -10.511  13.253  0.00  0.00    -0.270 N 
ATOM      6  N   UNL     1      -2.743 -10.769  14.571  0.00  0.00    -0.171 NA
ATOM     14  C   UNL     1      -3.937 -10.577  12.652  0.00  0.00    +0.044 A 
ATOM     16  C   UNL     1      -4.827 -10.902  13.647  0.00  0.00    +0.053 A 
ATOM     17  C   UNL     1      -4.035 -11.007  14.806  0.00  0.00    +0.096 A 
ATOM     18  C   UNL     1      -1.452 -10.203  12.621  0.00  0.00    +0.172 C 
BRANCH  17  20
ATOM     20  C   UNL     1      -4.491 -11.333  16.133  0.00  0.00    +0.044 A 
ATOM     22  C   UNL     1      -4.634 -12.660  16.535  0.00  0.00    +0.129 A 
ATOM     23  C   UNL     1      -4.790 -10.299  17.021  0.00  0.00    +0.014 A 
ATOM     24  C   UNL     1      -5.076 -12.955  17.824  0.00  0.00    +0.046 A 
ATOM     25  C   UNL     1      -5.232 -10.594  18.310  0.00  0.00    +0.001 A 
ATOM     26  C   UNL     1      -5.376 -11.921  18.712  0.00  0.00    +0.004 A 
BRANCH  22   2
ATOM      2  O   UNL     1      -4.349 -13.691  15.688  0.00  0.00    -0.494 OA
ATOM     27  C   UNL     1      -5.448 -14.478  15.235  0.00  0.00    +0.277 C 
ENDBRANCH  22   2
ENDBRANCH  17  20
ENDBRANCH   8  14
BRANCH   9  15
ATOM     15  C   UNL     1      -8.035  -9.736  10.850  0.00  0.00    +0.123 C 
BRANCH  15   5
ATOM      1  O   UNL     1      -9.454 -11.061  13.009  0.00  0.00    -0.276 OA
ATOM      5  N   UNL     1      -7.885  -9.513  12.256  0.00  0.00    -0.314 N 
ATOM     19  C   UNL     1      -8.610 -10.197  13.228  0.00  0.00    +0.210 C 
ATOM     21  C   UNL     1      -8.237  -9.787  14.628  0.00  0.00    +0.109 C 
ATOM     28  H   UNL     1      -7.206  -8.818  12.552  0.00  0.00    +0.149 HD
ENDBRANCH  15   5
ENDBRANCH   9  15
TORSDOF 5
ENDMDL
MODEL 9
REMARK VINA RESULT:      -5.9      4.452      8.343
REMARK  Name = 25388909
REMARK  8 active torsions:
REMARK  status: ('A' for Active; 'I' for Inactive)
REMARK    1  A    between atoms: O_2  and  C_22
REMARK    2  A    between atoms: O_2  and  C_27
REMARK    3  A    between atoms: N_4  and  C_18
REMARK    4  A    between atoms: N_5  and  C_15
REMARK    5  A    between atoms: C_8  and  C_14
REMARK    6  A    between atoms: C_9  and  C_15
REMARK    7  A    between atoms: C_17  and  C_20
REMARK    8  A    between atoms: C_19  and  C_21
REMARK                            x       y       z     vdW  Elec       q    Type
REMARK                         _______ _______ _______ _____ _____    ______ ____
ROOT
ATOM      3  N   UNL     1      -5.721 -11.904  17.263  0.00  0.00    -0.297 NA
ATOM      7  C   UNL     1      -6.272 -11.327  19.742  0.00  0.00    +0.002 C 
ATOM      8  C   UNL     1      -7.279 -12.374  19.191  0.00  0.00    +0.055 C 
ATOM      9  C   UNL     1      -5.776 -10.429  17.441  0.00  0.00    +0.074 C 
ATOM     10  C   UNL     1      -6.303 -10.069  18.847  0.00  0.00    +0.024 C 
ATOM     11  C   UNL     1      -4.865 -11.947  19.605  0.00  0.00    +0.019 C 
ATOM     12  C   UNL     1      -7.014 -12.514  17.665  0.00  0.00    +0.094 C 
ATOM     13  C   UNL     1      -4.663 -12.430  18.158  0.00  0.00    +0.085 C 
ENDROOT
BRANCH   8  14
ATOM      4  N   UNL     1      -9.470 -13.058  20.272  0.00  0.00    -0.270 N 
ATOM      6  N   UNL     1     -10.759 -12.713  20.430  0.00  0.00    -0.171 NA
ATOM     14  C   UNL     1      -8.756 -12.185  19.506  0.00  0.00    +0.044 A 
ATOM     16  C   UNL     1      -9.639 -11.201  19.136  0.00  0.00    +0.053 A 
ATOM     17  C   UNL     1     -10.857 -11.578  19.734  0.00  0.00    +0.096 A 
ATOM     18  C   UNL     1      -8.981 -14.266  20.897  0.00  0.00    +0.172 C 
BRANCH  17  20
ATOM     20  C   UNL     1     -12.111 -10.875  19.651  0.00  0.00    +0.044 A 
ATOM     22  C   UNL     1     -12.928 -11.001  18.528  0.00  0.00    +0.129 A 
ATOM     23  C   UNL     1     -12.505 -10.062  20.713  0.00  0.00    +0.014 A 
ATOM     24  C   UNL     1     -14.140 -10.312  18.467  0.00  0.00    +0.046 A 
ATOM     25  C   UNL     1     -13.716  -9.373  20.651  0.00  0.00    +0.001 A 
ATOM     26  C   UNL     1     -14.534  -9.498  19.528  0.00  0.00    +0.004 A 
BRANCH  22   2
ATOM      2  O   UNL     1     -12.569 -11.789  17.475  0.00  0.00    -0.494 OA
ATOM     27  C   UNL     1     -12.356 -11.139  16.224  0.00  0.00    +0.277 C 
ENDBRANCH  22   2
ENDBRANCH  17  20
ENDBRANCH   8  14
BRANCH   9  15
ATOM     15  C   UNL     1      -6.582  -9.739  16.337  0.00  0.00    +0.123 C 
BRANCH  15   5
ATOM      1  O   UNL     1      -9.280  -9.450  15.306  0.00  0.00    -0.276 OA
ATOM      5  N   UNL     1      -7.646  -8.961  16.894  0.00  0.00    -0.314 N 
ATOM     19  C   UNL     1      -8.918  -8.879  16.330  0.00  0.00    +0.210 C 
ATOM     21  C   UNL     1      -9.853  -8.013  17.131  0.00  0.00    +0.109 C 
ATOM     28  H   UNL     1      -7.458  -8.447  17.749  0.00  0.00    +0.149 HD
ENDBRANCH  15   5
ENDBRANCH   9  15
TORSDOF 5
ENDMDL
MODEL 10
REMARK VINA RESULT:      -5.6      2.205      4.322
REMARK  Name = 25388909
REMARK  8 active torsions:
REMARK  status: ('A' for Active; 'I' for Inactive)
REMARK    1  A    between atoms: O_2  and  C_22
REMARK    2  A    between atoms: O_2  and  C_27
REMARK    3  A    between atoms: N_4  and  C_18
REMARK    4  A    between atoms: N_5  and  C_15
REMARK    5  A    between atoms: C_8  and  C_14
REMARK    6  A    between atoms: C_9  and  C_15
REMARK    7  A    between atoms: C_17  and  C_20
REMARK    8  A    between atoms: C_19  and  C_21
REMARK                            x       y       z     vdW  Elec       q    Type
REMARK                         _______ _______ _______ _____ _____    ______ ____
ROOT
ATOM      3  N   UNL     1      -6.652 -12.033  17.534  0.00  0.00    -0.297 NA
ATOM      7  C   UNL     1      -6.926  -9.539  16.835  0.00  0.00    +0.002 C 
ATOM      8  C   UNL     1      -7.592 -10.472  15.787  0.00  0.00    +0.055 C 
ATOM      9  C   UNL     1      -5.338 -11.341  17.596  0.00  0.00    +0.074 C 
ATOM     10  C   UNL     1      -5.439  -9.924  16.990  0.00  0.00    +0.024 C 
ATOM     11  C   UNL     1      -7.612  -9.826  18.188  0.00  0.00    +0.019 C 
ATOM     12  C   UNL     1      -7.215 -11.934  16.163  0.00  0.00    +0.094 C 
ATOM     13  C   UNL     1      -7.576 -11.339  18.464  0.00  0.00    +0.085 C 
ENDROOT
BRANCH   8  14
ATOM      4  N   UNL     1      -8.352  -9.762  13.473  0.00  0.00    -0.270 N 
ATOM      6  N   UNL     1      -7.943  -9.557  12.209  0.00  0.00    -0.171 NA
ATOM     14  C   UNL     1      -7.360 -10.178  14.312  0.00  0.00    +0.044 A 
ATOM     16  C   UNL     1      -6.224 -10.251  13.544  0.00  0.00    +0.053 A 
ATOM     17  C   UNL     1      -6.643  -9.857  12.259  0.00  0.00    +0.096 A 
ATOM     18  C   UNL     1      -9.738  -9.536  13.812  0.00  0.00    +0.172 C 
BRANCH  17  20
ATOM     20  C   UNL     1      -5.825  -9.765  11.077  0.00  0.00    +0.044 A 
ATOM     22  C   UNL     1      -5.622 -10.876  10.258  0.00  0.00    +0.129 A 
ATOM     23  C   UNL     1      -5.232  -8.544  10.756  0.00  0.00    +0.014 A 
ATOM     24  C   UNL     1      -4.827 -10.766   9.118  0.00  0.00    +0.046 A 
ATOM     25  C   UNL     1      -4.436  -8.435   9.616  0.00  0.00    +0.001 A 
ATOM     26  C   UNL     1      -4.233  -9.545   8.797  0.00  0.00    +0.004 A 
BRANCH  22   2
ATOM      2  O   UNL     1      -6.190 -12.081  10.548  0.00  0.00    -0.494 OA
ATOM     27  C   UNL     1      -5.319 -13.111  11.013  0.00  0.00    +0.277 C 
ENDBRANCH  22   2
ENDBRANCH  17  20
ENDBRANCH   8  14
BRANCH   9  15
ATOM     15  C   UNL     1      -4.218 -12.158  16.949  0.00  0.00    +0.123 C 
BRANCH  15   5
ATOM      1  O   UNL     1      -2.722 -11.736  14.496  0.00  0.00    -0.276 OA
ATOM      5  N   UNL     1      -3.041 -11.362  16.774  0.00  0.00    -0.314 N 
ATOM     19  C   UNL     1      -2.384 -11.214  15.555  0.00  0.00    +0.210 C 
ATOM     21  C   UNL     1      -1.190 -10.302  15.646  0.00  0.00    +0.109 C 
ATOM     28  H   UNL     1      -2.674 -10.879  17.588  0.00  0.00    +0.149 HD
ENDBRANCH  15   5
ENDBRANCH   9  15
TORSDOF 5
ENDMDL
