MODEL 1
REMARK VINA RESULT:      -6.4      0.000      0.000
REMARK  Name = 28962225
REMARK  12 active torsions:
REMARK  status: ('A' for Active; 'I' for Inactive)
REMARK    1  A    between atoms: O_3  and  C_9
REMARK    2  A    between atoms: O_4  and  C_12
REMARK    3  A    between atoms: N_5  and  C_7
REMARK    4  A    between atoms: N_5  and  C_13
REMARK    5  A    between atoms: N_5  and  C_14
REMARK    6  A    between atoms: N_6  and  C_11
REMARK    7  A    between atoms: N_6  and  C_16
REMARK    8  A    between atoms: C_8  and  C_11
REMARK    9  A    between atoms: C_10  and  C_12
REMARK   10  A    between atoms: C_13  and  C_15
REMARK   11  A    between atoms: C_15  and  C_17
REMARK   12  A    between atoms: C_16  and  C_18
REMARK                            x       y       z     vdW  Elec       q    Type
REMARK                         _______ _______ _______ _____ _____    ______ ____
ROOT
ATOM      2  O   UNL     1     -16.930   5.108  22.896  0.00  0.00    -0.366 OA
ATOM      7  C   UNL     1     -17.158   3.496  24.632  0.00  0.00    +0.118 C 
ATOM      8  C   UNL     1     -16.331   4.691  24.143  0.00  0.00    +0.152 C 
ATOM      9  C   UNL     1     -17.734   2.927  23.345  0.00  0.00    +0.165 C 
ATOM     10  C   UNL     1     -18.008   4.209  22.569  0.00  0.00    +0.174 C 
ENDROOT
BRANCH   9   3
ATOM      3  O   UNL     1     -16.781   2.126  22.658  0.00  0.00    -0.388 OA
ATOM     29  H   UNL     1     -16.823   1.231  23.034  0.00  0.00    +0.210 HD
ENDBRANCH   9   3
BRANCH   7   5
ATOM      5  N   UNL     1     -16.465   2.539  25.478  0.00  0.00    -0.297 NA
ATOM     14  C   UNL     1     -17.275   1.332  25.671  0.00  0.00    +0.105 C 
BRANCH   5  13
ATOM     13  C   UNL     1     -16.134   3.134  26.776  0.00  0.00    +0.089 C 
BRANCH  13  15
ATOM     15  C   UNL     1     -16.765   2.339  27.919  0.00  0.00    +0.050 C 
BRANCH  15  17
ATOM     17  C   UNL     1     -15.758   2.028  28.999  0.00  0.00    -0.046 A 
ATOM     19  C   UNL     1     -14.910   3.030  29.471  0.00  0.00    +0.003 A 
ATOM     20  C   UNL     1     -15.674   0.739  29.523  0.00  0.00    +0.003 A 
ATOM     23  C   UNL     1     -13.978   2.742  30.468  0.00  0.00    +0.000 A 
ATOM     24  C   UNL     1     -14.742   0.451  30.520  0.00  0.00    +0.000 A 
ATOM     25  C   UNL     1     -13.895   1.453  30.993  0.00  0.00    +0.000 A 
ENDBRANCH  15  17
ENDBRANCH  13  15
ENDBRANCH   5  13
ENDBRANCH   7   5
BRANCH   8  11
ATOM     11  C   UNL     1     -14.853   4.433  23.870  0.00  0.00    +0.114 C 
BRANCH  11   6
ATOM      6  N   UNL     1     -14.557   4.548  22.449  0.00  0.00    -0.310 NA
ATOM     30  H   UNL     1     -15.252   5.150  22.006  0.00  0.00    +0.122 HD
BRANCH   6  16
ATOM     16  C   UNL     1     -13.226   5.100  22.237  0.00  0.00    +0.116 C 
BRANCH  16  18
ATOM      1 CL   UNL     1     -10.623   8.778  19.618  0.00  0.00    -0.084 Cl
ATOM     18  C   UNL     1     -13.257   6.305  21.333  0.00  0.00    -0.032 A 
ATOM     21  C   UNL     1     -12.064   6.913  20.940  0.00  0.00    +0.025 A 
ATOM     22  C   UNL     1     -14.478   6.812  20.889  0.00  0.00    +0.005 A 
ATOM     26  C   UNL     1     -12.093   8.028  20.103  0.00  0.00    +0.041 A 
ATOM     27  C   UNL     1     -14.506   7.928  20.052  0.00  0.00    +0.002 A 
ATOM     28  C   UNL     1     -13.314   8.536  19.659  0.00  0.00    +0.020 A 
ENDBRANCH  16  18
ENDBRANCH   6  16
ENDBRANCH  11   6
ENDBRANCH   8  11
BRANCH  10  12
ATOM     12  C   UNL     1     -18.092   4.056  21.061  0.00  0.00    +0.190 C 
BRANCH  12   4
ATOM      4  O   UNL     1     -16.841   4.412  20.493  0.00  0.00    -0.392 OA
ATOM     31  H   UNL     1     -17.026   4.993  19.735  0.00  0.00    +0.210 HD
ENDBRANCH  12   4
ENDBRANCH  10  12
TORSDOF 11
ENDMDL
MODEL 2
REMARK VINA RESULT:      -6.1     29.946     34.696
REMARK  Name = 28962225
REMARK  12 active torsions:
REMARK  status: ('A' for Active; 'I' for Inactive)
REMARK    1  A    between atoms: O_3  and  C_9
REMARK    2  A    between atoms: O_4  and  C_12
REMARK    3  A    between atoms: N_5  and  C_7
REMARK    4  A    between atoms: N_5  and  C_13
REMARK    5  A    between atoms: N_5  and  C_14
REMARK    6  A    between atoms: N_6  and  C_11
REMARK    7  A    between atoms: N_6  and  C_16
REMARK    8  A    between atoms: C_8  and  C_11
REMARK    9  A    between atoms: C_10  and  C_12
REMARK   10  A    between atoms: C_13  and  C_15
REMARK   11  A    between atoms: C_15  and  C_17
REMARK   12  A    between atoms: C_16  and  C_18
REMARK                            x       y       z     vdW  Elec       q    Type
REMARK                         _______ _______ _______ _____ _____    ______ ____
ROOT
ATOM      2  O   UNL     1       8.993   5.837   6.651  0.00  0.00    -0.366 OA
ATOM      7  C   UNL     1      11.015   6.991   6.156  0.00  0.00    +0.118 C 
ATOM      8  C   UNL     1       9.912   6.104   5.568  0.00  0.00    +0.152 C 
ATOM      9  C   UNL     1      10.996   6.629   7.633  0.00  0.00    +0.165 C 
ATOM     10  C   UNL     1       9.501   6.440   7.857  0.00  0.00    +0.174 C 
ENDROOT
BRANCH   9   3
ATOM      3  O   UNL     1      11.691   5.414   7.880  0.00  0.00    -0.388 OA
ATOM     29  H   UNL     1      11.027   4.714   8.004  0.00  0.00    +0.210 HD
ENDBRANCH   9   3
BRANCH   7   5
ATOM      5  N   UNL     1      12.316   6.910   5.514  0.00  0.00    -0.297 NA
ATOM     14  C   UNL     1      13.365   7.431   6.395  0.00  0.00    +0.105 C 
BRANCH   5  13
ATOM     13  C   UNL     1      12.317   7.641   4.243  0.00  0.00    +0.089 C 
BRANCH  13  15
ATOM     15  C   UNL     1      13.298   7.013   3.253  0.00  0.00    +0.050 C 
BRANCH  15  17
ATOM     17  C   UNL     1      12.926   7.334   1.827  0.00  0.00    -0.046 A 
ATOM     19  C   UNL     1      11.600   7.622   1.501  0.00  0.00    +0.003 A 
ATOM     20  C   UNL     1      13.906   7.343   0.835  0.00  0.00    +0.003 A 
ATOM     23  C   UNL     1      11.255   7.918   0.181  0.00  0.00    +0.000 A 
ATOM     24  C   UNL     1      13.560   7.638  -0.484  0.00  0.00    +0.000 A 
ATOM     25  C   UNL     1      12.235   7.926  -0.810  0.00  0.00    +0.000 A 
ENDBRANCH  15  17
ENDBRANCH  13  15
ENDBRANCH   5  13
ENDBRANCH   7   5
BRANCH   8  11
ATOM     11  C   UNL     1      10.347   4.756   5.003  0.00  0.00    +0.114 C 
BRANCH  11   6
ATOM      6  N   UNL     1      10.555   4.835   3.564  0.00  0.00    -0.310 NA
ATOM     30  H   UNL     1      11.232   5.571   3.360  0.00  0.00    +0.122 HD
BRANCH   6  16
ATOM     16  C   UNL     1      11.036   3.566   3.036  0.00  0.00    +0.116 C 
BRANCH  16  18
ATOM      1 CL   UNL     1      10.773   4.770  -2.028  0.00  0.00    -0.084 Cl
ATOM     18  C   UNL     1      11.737   3.739   1.714  0.00  0.00    -0.032 A 
ATOM     21  C   UNL     1      11.014   4.129   0.586  0.00  0.00    +0.025 A 
ATOM     22  C   UNL     1      13.109   3.511   1.618  0.00  0.00    +0.005 A 
ATOM     26  C   UNL     1      11.663   4.290  -0.637  0.00  0.00    +0.041 A 
ATOM     27  C   UNL     1      13.758   3.671   0.394  0.00  0.00    +0.002 A 
ATOM     28  C   UNL     1      13.037   4.061  -0.734  0.00  0.00    +0.020 A 
ENDBRANCH  16  18
ENDBRANCH   6  16
ENDBRANCH  11   6
ENDBRANCH   8  11
BRANCH  10  12
ATOM     12  C   UNL     1       9.122   5.577   9.047  0.00  0.00    +0.190 C 
BRANCH  12   4
ATOM      4  O   UNL     1       9.380   4.218   8.729  0.00  0.00    -0.392 OA
ATOM     31  H   UNL     1       9.568   3.759   9.566  0.00  0.00    +0.210 HD
ENDBRANCH  12   4
ENDBRANCH  10  12
TORSDOF 11
ENDMDL
MODEL 3
REMARK VINA RESULT:      -6.1     19.990     21.440
REMARK  Name = 28962225
REMARK  12 active torsions:
REMARK  status: ('A' for Active; 'I' for Inactive)
REMARK    1  A    between atoms: O_3  and  C_9
REMARK    2  A    between atoms: O_4  and  C_12
REMARK    3  A    between atoms: N_5  and  C_7
REMARK    4  A    between atoms: N_5  and  C_13
REMARK    5  A    between atoms: N_5  and  C_14
REMARK    6  A    between atoms: N_6  and  C_11
REMARK    7  A    between atoms: N_6  and  C_16
REMARK    8  A    between atoms: C_8  and  C_11
REMARK    9  A    between atoms: C_10  and  C_12
REMARK   10  A    between atoms: C_13  and  C_15
REMARK   11  A    between atoms: C_15  and  C_17
REMARK   12  A    between atoms: C_16  and  C_18
REMARK                            x       y       z     vdW  Elec       q    Type
REMARK                         _______ _______ _______ _____ _____    ______ ____
ROOT
ATOM      2  O   UNL     1      -6.074 -10.470  10.173  0.00  0.00    -0.366 OA
ATOM      7  C   UNL     1      -4.137 -10.912  11.484  0.00  0.00    +0.118 C 
ATOM      8  C   UNL     1      -5.632 -10.577  11.545  0.00  0.00    +0.152 C 
ATOM      9  C   UNL     1      -3.711 -10.337  10.142  0.00  0.00    +0.165 C 
ATOM     10  C   UNL     1      -4.942 -10.647   9.299  0.00  0.00    +0.174 C 
ENDROOT
BRANCH   9   3
ATOM      3  O   UNL     1      -3.505  -8.933  10.219  0.00  0.00    -0.388 OA
ATOM     29  H   UNL     1      -2.818  -8.700   9.573  0.00  0.00    +0.210 HD
ENDBRANCH   9   3
BRANCH   7   5
ATOM      5  N   UNL     1      -3.338 -10.491  12.621  0.00  0.00    -0.297 NA
ATOM     14  C   UNL     1      -1.932 -10.324  12.237  0.00  0.00    +0.105 C 
BRANCH   5  13
ATOM     13  C   UNL     1      -3.448 -11.454  13.721  0.00  0.00    +0.089 C 
BRANCH  13  15
ATOM     15  C   UNL     1      -3.157 -10.784  15.065  0.00  0.00    +0.050 C 
BRANCH  15  17
ATOM     17  C   UNL     1      -3.837 -11.506  16.202  0.00  0.00    -0.046 A 
ATOM     19  C   UNL     1      -3.837 -10.949  17.480  0.00  0.00    +0.003 A 
ATOM     20  C   UNL     1      -4.465 -12.729  15.973  0.00  0.00    +0.003 A 
ATOM     23  C   UNL     1      -4.465 -11.617  18.532  0.00  0.00    +0.000 A 
ATOM     24  C   UNL     1      -5.092 -13.397  17.025  0.00  0.00    +0.000 A 
ATOM     25  C   UNL     1      -5.093 -12.840  18.304  0.00  0.00    +0.000 A 
ENDBRANCH  15  17
ENDBRANCH  13  15
ENDBRANCH   5  13
ENDBRANCH   7   5
BRANCH   8  11
ATOM     11  C   UNL     1      -6.013  -9.277  12.244  0.00  0.00    +0.114 C 
BRANCH  11   6
ATOM      6  N   UNL     1      -6.145  -9.477  13.681  0.00  0.00    -0.310 NA
ATOM     30  H   UNL     1      -6.488  -8.617  14.111  0.00  0.00    +0.122 HD
BRANCH   6  16
ATOM     16  C   UNL     1      -7.061 -10.570  13.974  0.00  0.00    +0.116 C 
BRANCH  16  18
ATOM      1 CL   UNL     1      -9.322 -13.108  17.925  0.00  0.00    -0.084 Cl
ATOM     18  C   UNL     1      -7.431 -10.616  15.434  0.00  0.00    -0.032 A 
ATOM     21  C   UNL     1      -8.125 -11.713  15.943  0.00  0.00    +0.025 A 
ATOM     22  C   UNL     1      -7.078  -9.560  16.275  0.00  0.00    +0.005 A 
ATOM     26  C   UNL     1      -8.466 -11.755  17.295  0.00  0.00    +0.041 A 
ATOM     27  C   UNL     1      -7.421  -9.603  17.626  0.00  0.00    +0.002 A 
ATOM     28  C   UNL     1      -8.114 -10.699  18.137  0.00  0.00    +0.020 A 
ENDBRANCH  16  18
ENDBRANCH   6  16
ENDBRANCH  11   6
ENDBRANCH   8  11
BRANCH  10  12
ATOM     12  C   UNL     1      -5.124  -9.784   8.064  0.00  0.00    +0.190 C 
BRANCH  12   4
ATOM      4  O   UNL     1      -5.773  -8.579   8.438  0.00  0.00    -0.392 OA
ATOM     31  H   UNL     1      -5.189  -8.121   9.067  0.00  0.00    +0.210 HD
ENDBRANCH  12   4
ENDBRANCH  10  12
TORSDOF 11
ENDMDL
MODEL 4
REMARK VINA RESULT:      -6.0      2.949      8.255
REMARK  Name = 28962225
REMARK  12 active torsions:
REMARK  status: ('A' for Active; 'I' for Inactive)
REMARK    1  A    between atoms: O_3  and  C_9
REMARK    2  A    between atoms: O_4  and  C_12
REMARK    3  A    between atoms: N_5  and  C_7
REMARK    4  A    between atoms: N_5  and  C_13
REMARK    5  A    between atoms: N_5  and  C_14
REMARK    6  A    between atoms: N_6  and  C_11
REMARK    7  A    between atoms: N_6  and  C_16
REMARK    8  A    between atoms: C_8  and  C_11
REMARK    9  A    between atoms: C_10  and  C_12
REMARK   10  A    between atoms: C_13  and  C_15
REMARK   11  A    between atoms: C_15  and  C_17
REMARK   12  A    between atoms: C_16  and  C_18
REMARK                            x       y       z     vdW  Elec       q    Type
REMARK                         _______ _______ _______ _____ _____    ______ ____
ROOT
ATOM      2  O   UNL     1     -16.534   1.576  24.965  0.00  0.00    -0.366 OA
ATOM      7  C   UNL     1     -16.438   3.400  23.439  0.00  0.00    +0.118 C 
ATOM      8  C   UNL     1     -15.880   2.847  24.756  0.00  0.00    +0.152 C 
ATOM      9  C   UNL     1     -17.805   2.739  23.341  0.00  0.00    +0.165 C 
ATOM     10  C   UNL     1     -17.491   1.360  23.909  0.00  0.00    +0.174 C 
ENDROOT
BRANCH   9   3
ATOM      3  O   UNL     1     -18.763   3.403  24.153  0.00  0.00    -0.388 OA
ATOM     29  H   UNL     1     -19.645   3.114  23.865  0.00  0.00    +0.210 HD
ENDBRANCH   9   3
BRANCH   7   5
ATOM      5  N   UNL     1     -16.437   4.846  23.298  0.00  0.00    -0.297 NA
ATOM     14  C   UNL     1     -17.020   5.245  22.013  0.00  0.00    +0.105 C 
BRANCH   5  13
ATOM     13  C   UNL     1     -15.078   5.381  23.421  0.00  0.00    +0.089 C 
BRANCH  13  15
ATOM     15  C   UNL     1     -14.258   5.085  22.164  0.00  0.00    +0.050 C 
BRANCH  15  17
ATOM     17  C   UNL     1     -13.516   6.308  21.687  0.00  0.00    -0.046 A 
ATOM     19  C   UNL     1     -14.091   7.571  21.830  0.00  0.00    +0.003 A 
ATOM     20  C   UNL     1     -12.258   6.177  21.101  0.00  0.00    +0.003 A 
ATOM     23  C   UNL     1     -13.405   8.704  21.388  0.00  0.00    +0.000 A 
ATOM     24  C   UNL     1     -11.573   7.308  20.659  0.00  0.00    +0.000 A 
ATOM     25  C   UNL     1     -12.147   8.572  20.803  0.00  0.00    +0.000 A 
ENDBRANCH  15  17
ENDBRANCH  13  15
ENDBRANCH   5  13
ENDBRANCH   7   5
BRANCH   8  11
ATOM     11  C   UNL     1     -16.117   3.687  26.005  0.00  0.00    +0.114 C 
BRANCH  11   6
ATOM      6  N   UNL     1     -17.000   3.000  26.937  0.00  0.00    -0.310 NA
ATOM     30  H   UNL     1     -16.801   1.999  26.915  0.00  0.00    +0.122 HD
BRANCH   6  16
ATOM     16  C   UNL     1     -16.823   3.504  28.292  0.00  0.00    +0.116 C 
BRANCH  16  18
ATOM      1 CL   UNL     1     -12.760   3.449  31.555  0.00  0.00    -0.084 Cl
ATOM     18  C   UNL     1     -15.793   2.713  29.055  0.00  0.00    -0.032 A 
ATOM     21  C   UNL     1     -14.862   3.371  29.857  0.00  0.00    +0.025 A 
ATOM     22  C   UNL     1     -15.773   1.321  28.958  0.00  0.00    +0.005 A 
ATOM     26  C   UNL     1     -13.909   2.638  30.564  0.00  0.00    +0.041 A 
ATOM     27  C   UNL     1     -14.818   0.589  29.664  0.00  0.00    +0.002 A 
ATOM     28  C   UNL     1     -13.887   1.246  30.467  0.00  0.00    +0.020 A 
ENDBRANCH  16  18
ENDBRANCH   6  16
ENDBRANCH  11   6
ENDBRANCH   8  11
BRANCH  10  12
ATOM     12  C   UNL     1     -18.680   0.595  24.460  0.00  0.00    +0.190 C 
BRANCH  12   4
ATOM      4  O   UNL     1     -18.898   0.990  25.805  0.00  0.00    -0.392 OA
ATOM     31  H   UNL     1     -18.026   1.034  26.235  0.00  0.00    +0.210 HD
ENDBRANCH  12   4
ENDBRANCH  10  12
TORSDOF 11
ENDMDL
MODEL 5
REMARK VINA RESULT:      -5.9     31.153     36.022
REMARK  Name = 28962225
REMARK  12 active torsions:
REMARK  status: ('A' for Active; 'I' for Inactive)
REMARK    1  A    between atoms: O_3  and  C_9
REMARK    2  A    between atoms: O_4  and  C_12
REMARK    3  A    between atoms: N_5  and  C_7
REMARK    4  A    between atoms: N_5  and  C_13
REMARK    5  A    between atoms: N_5  and  C_14
REMARK    6  A    between atoms: N_6  and  C_11
REMARK    7  A    between atoms: N_6  and  C_16
REMARK    8  A    between atoms: C_8  and  C_11
REMARK    9  A    between atoms: C_10  and  C_12
REMARK   10  A    between atoms: C_13  and  C_15
REMARK   11  A    between atoms: C_15  and  C_17
REMARK   12  A    between atoms: C_16  and  C_18
REMARK                            x       y       z     vdW  Elec       q    Type
REMARK                         _______ _______ _______ _____ _____    ______ ____
ROOT
ATOM      2  O   UNL     1      12.853   7.122   2.244  0.00  0.00    -0.366 OA
ATOM      7  C   UNL     1      14.072   5.831   0.659  0.00  0.00    +0.118 C 
ATOM      8  C   UNL     1      12.673   6.123   1.216  0.00  0.00    +0.152 C 
ATOM      9  C   UNL     1      14.986   6.184   1.822  0.00  0.00    +0.165 C 
ATOM     10  C   UNL     1      14.260   7.397   2.391  0.00  0.00    +0.174 C 
ENDROOT
BRANCH   9   3
ATOM      3  O   UNL     1      15.031   5.138   2.784  0.00  0.00    -0.388 OA
ATOM     29  H   UNL     1      14.580   5.455   3.585  0.00  0.00    +0.210 HD
ENDBRANCH   9   3
BRANCH   7   5
ATOM      5  N   UNL     1      14.274   4.509   0.091  0.00  0.00    -0.297 NA
ATOM     14  C   UNL     1      15.701   4.236  -0.101  0.00  0.00    +0.105 C 
BRANCH   5  13
ATOM     13  C   UNL     1      13.561   4.375  -1.184  0.00  0.00    +0.089 C 
BRANCH  13  15
ATOM     15  C   UNL     1      12.668   3.133  -1.183  0.00  0.00    +0.050 C 
BRANCH  15  17
ATOM     17  C   UNL     1      11.448   3.329  -2.047  0.00  0.00    -0.046 A 
ATOM     19  C   UNL     1      10.786   4.557  -2.051  0.00  0.00    +0.003 A 
ATOM     20  C   UNL     1      10.981   2.283  -2.842  0.00  0.00    +0.003 A 
ATOM     23  C   UNL     1       9.657   4.738  -2.850  0.00  0.00    +0.000 A 
ATOM     24  C   UNL     1       9.852   2.464  -3.640  0.00  0.00    +0.000 A 
ATOM     25  C   UNL     1       9.190   3.692  -3.645  0.00  0.00    +0.000 A 
ENDBRANCH  15  17
ENDBRANCH  13  15
ENDBRANCH   5  13
ENDBRANCH   7   5
BRANCH   8  11
ATOM     11  C   UNL     1      11.932   4.951   1.849  0.00  0.00    +0.114 C 
BRANCH  11   6
ATOM      6  N   UNL     1      11.746   5.162   3.278  0.00  0.00    -0.310 NA
ATOM     30  H   UNL     1      11.750   6.164   3.475  0.00  0.00    +0.122 HD
BRANCH   6  16
ATOM     16  C   UNL     1      10.491   4.579   3.733  0.00  0.00    +0.116 C 
BRANCH  16  18
ATOM      1 CL   UNL     1       9.412   5.583   8.732  0.00  0.00    -0.084 Cl
ATOM     18  C   UNL     1       9.807   5.450   4.755  0.00  0.00    -0.032 A 
ATOM     21  C   UNL     1       9.914   5.148   6.112  0.00  0.00    +0.025 A 
ATOM     22  C   UNL     1       9.067   6.557   4.342  0.00  0.00    +0.005 A 
ATOM     26  C   UNL     1       9.281   5.954   7.058  0.00  0.00    +0.041 A 
ATOM     27  C   UNL     1       8.433   7.363   5.288  0.00  0.00    +0.002 A 
ATOM     28  C   UNL     1       8.540   7.062   6.645  0.00  0.00    +0.020 A 
ENDBRANCH  16  18
ENDBRANCH   6  16
ENDBRANCH  11   6
ENDBRANCH   8  11
BRANCH  10  12
ATOM     12  C   UNL     1      14.559   7.715   3.845  0.00  0.00    +0.190 C 
BRANCH  12   4
ATOM      4  O   UNL     1      13.708   6.935   4.670  0.00  0.00    -0.392 OA
ATOM     31  H   UNL     1      13.352   7.527   5.355  0.00  0.00    +0.210 HD
ENDBRANCH  12   4
ENDBRANCH  10  12
TORSDOF 11
ENDMDL
MODEL 6
REMARK VINA RESULT:      -5.8     30.278     33.375
REMARK  Name = 28962225
REMARK  12 active torsions:
REMARK  status: ('A' for Active; 'I' for Inactive)
REMARK    1  A    between atoms: O_3  and  C_9
REMARK    2  A    between atoms: O_4  and  C_12
REMARK    3  A    between atoms: N_5  and  C_7
REMARK    4  A    between atoms: N_5  and  C_13
REMARK    5  A    between atoms: N_5  and  C_14
REMARK    6  A    between atoms: N_6  and  C_11
REMARK    7  A    between atoms: N_6  and  C_16
REMARK    8  A    between atoms: C_8  and  C_11
REMARK    9  A    between atoms: C_10  and  C_12
REMARK   10  A    between atoms: C_13  and  C_15
REMARK   11  A    between atoms: C_15  and  C_17
REMARK   12  A    between atoms: C_16  and  C_18
REMARK                            x       y       z     vdW  Elec       q    Type
REMARK                         _______ _______ _______ _____ _____    ______ ____
ROOT
ATOM      2  O   UNL     1       9.274   5.400   6.515  0.00  0.00    -0.366 OA
ATOM      7  C   UNL     1      10.599   7.376   6.468  0.00  0.00    +0.118 C 
ATOM      8  C   UNL     1       9.949   6.291   5.600  0.00  0.00    +0.152 C 
ATOM      9  C   UNL     1      10.795   6.676   7.804  0.00  0.00    +0.165 C 
ATOM     10  C   UNL     1       9.529   5.831   7.866  0.00  0.00    +0.174 C 
ENDROOT
BRANCH   9   3
ATOM      3  O   UNL     1      11.946   5.843   7.790  0.00  0.00    -0.388 OA
ATOM     29  H   UNL     1      11.708   5.018   7.333  0.00  0.00    +0.210 HD
ENDBRANCH   9   3
BRANCH   7   5
ATOM      5  N   UNL     1      11.786   8.010   5.920  0.00  0.00    -0.297 NA
ATOM     14  C   UNL     1      12.452   8.832   6.935  0.00  0.00    +0.105 C 
BRANCH   5  13
ATOM     13  C   UNL     1      11.447   8.830   4.752  0.00  0.00    +0.089 C 
BRANCH  13  15
ATOM     15  C   UNL     1      10.522   9.984   5.144  0.00  0.00    +0.050 C 
BRANCH  15  17
ATOM     17  C   UNL     1       9.171   9.856   4.486  0.00  0.00    -0.046 A 
ATOM     19  C   UNL     1       9.034   9.112   3.314  0.00  0.00    +0.003 A 
ATOM     20  C   UNL     1       8.060  10.483   5.048  0.00  0.00    +0.003 A 
ATOM     23  C   UNL     1       7.784   8.995   2.705  0.00  0.00    +0.000 A 
ATOM     24  C   UNL     1       6.811  10.366   4.439  0.00  0.00    +0.000 A 
ATOM     25  C   UNL     1       6.673   9.621   3.267  0.00  0.00    +0.000 A 
ENDBRANCH  15  17
ENDBRANCH  13  15
ENDBRANCH   5  13
ENDBRANCH   7   5
BRANCH   8  11
ATOM     11  C   UNL     1      10.888   5.441   4.752  0.00  0.00    +0.114 C 
BRANCH  11   6
ATOM      6  N   UNL     1      10.421   5.362   3.375  0.00  0.00    -0.310 NA
ATOM     30  H   UNL     1      10.937   6.032   2.805  0.00  0.00    +0.122 HD
BRANCH   6  16
ATOM     16  C   UNL     1      10.603   4.020   2.839  0.00  0.00    +0.116 C 
BRANCH  16  18
ATOM      1 CL   UNL     1      15.465   3.539   1.026  0.00  0.00    -0.084 Cl
ATOM     18  C   UNL     1      11.545   4.009   1.663  0.00  0.00    -0.032 A 
ATOM     21  C   UNL     1      12.910   3.804   1.866  0.00  0.00    +0.025 A 
ATOM     22  C   UNL     1      11.052   4.205   0.374  0.00  0.00    +0.005 A 
ATOM     26  C   UNL     1      13.782   3.793   0.778  0.00  0.00    +0.041 A 
ATOM     27  C   UNL     1      11.925   4.196  -0.714  0.00  0.00    +0.002 A 
ATOM     28  C   UNL     1      13.289   3.989  -0.513  0.00  0.00    +0.020 A 
ENDBRANCH  16  18
ENDBRANCH   6  16
ENDBRANCH  11   6
ENDBRANCH   8  11
BRANCH  10  12
ATOM     12  C   UNL     1       9.598   4.617   8.775  0.00  0.00    +0.190 C 
BRANCH  12   4
ATOM      4  O   UNL     1      10.371   3.611   8.139  0.00  0.00    -0.392 OA
ATOM     31  H   UNL     1      10.484   2.888   8.781  0.00  0.00    +0.210 HD
ENDBRANCH  12   4
ENDBRANCH  10  12
TORSDOF 11
ENDMDL
MODEL 7
REMARK VINA RESULT:      -5.8      3.787      8.132
REMARK  Name = 28962225
REMARK  12 active torsions:
REMARK  status: ('A' for Active; 'I' for Inactive)
REMARK    1  A    between atoms: O_3  and  C_9
REMARK    2  A    between atoms: O_4  and  C_12
REMARK    3  A    between atoms: N_5  and  C_7
REMARK    4  A    between atoms: N_5  and  C_13
REMARK    5  A    between atoms: N_5  and  C_14
REMARK    6  A    between atoms: N_6  and  C_11
REMARK    7  A    between atoms: N_6  and  C_16
REMARK    8  A    between atoms: C_8  and  C_11
REMARK    9  A    between atoms: C_10  and  C_12
REMARK   10  A    between atoms: C_13  and  C_15
REMARK   11  A    between atoms: C_15  and  C_17
REMARK   12  A    between atoms: C_16  and  C_18
REMARK                            x       y       z     vdW  Elec       q    Type
REMARK                         _______ _______ _______ _____ _____    ______ ____
ROOT
ATOM      2  O   UNL     1     -14.932   4.458  22.099  0.00  0.00    -0.366 OA
ATOM      7  C   UNL     1     -16.422   6.254  21.629  0.00  0.00    +0.118 C 
ATOM      8  C   UNL     1     -15.026   5.687  21.344  0.00  0.00    +0.152 C 
ATOM      9  C   UNL     1     -16.758   5.672  22.993  0.00  0.00    +0.165 C 
ATOM     10  C   UNL     1     -16.139   4.285  22.867  0.00  0.00    +0.174 C 
ENDROOT
BRANCH   9   3
ATOM      3  O   UNL     1     -16.129   6.401  24.039  0.00  0.00    -0.388 OA
ATOM     29  H   UNL     1     -15.182   6.180  24.024  0.00  0.00    +0.210 HD
ENDBRANCH   9   3
BRANCH   7   5
ATOM      5  N   UNL     1     -16.565   7.695  21.517  0.00  0.00    -0.297 NA
ATOM     14  C   UNL     1     -17.746   8.160  22.250  0.00  0.00    +0.105 C 
BRANCH   5  13
ATOM     13  C   UNL     1     -16.652   8.103  20.112  0.00  0.00    +0.089 C 
BRANCH  13  15
ATOM     15  C   UNL     1     -15.965   9.451  19.890  0.00  0.00    +0.050 C 
BRANCH  15  17
ATOM     17  C   UNL     1     -15.168   9.461  18.609  0.00  0.00    -0.046 A 
ATOM     19  C   UNL     1     -14.399  10.576  18.275  0.00  0.00    +0.003 A 
ATOM     20  C   UNL     1     -15.200   8.357  17.760  0.00  0.00    +0.003 A 
ATOM     23  C   UNL     1     -13.663  10.586  17.090  0.00  0.00    +0.000 A 
ATOM     24  C   UNL     1     -14.464   8.367  16.575  0.00  0.00    +0.000 A 
ATOM     25  C   UNL     1     -13.695   9.481  16.241  0.00  0.00    +0.000 A 
ENDBRANCH  15  17
ENDBRANCH  13  15
ENDBRANCH   5  13
ENDBRANCH   7   5
BRANCH   8  11
ATOM     11  C   UNL     1     -13.840   6.556  21.747  0.00  0.00    +0.114 C 
BRANCH  11   6
ATOM      6  N   UNL     1     -13.312   7.282  20.601  0.00  0.00    -0.310 NA
ATOM     30  H   UNL     1     -13.427   8.284  20.753  0.00  0.00    +0.122 HD
BRANCH   6  16
ATOM     16  C   UNL     1     -11.902   6.977  20.395  0.00  0.00    +0.116 C 
BRANCH  16  18
ATOM      1 CL   UNL     1     -10.357   7.897  15.503  0.00  0.00    -0.084 Cl
ATOM     18  C   UNL     1     -11.267   7.910  19.397  0.00  0.00    -0.032 A 
ATOM     21  C   UNL     1     -11.123   7.516  18.067  0.00  0.00    +0.025 A 
ATOM     22  C   UNL     1     -10.824   9.168  19.806  0.00  0.00    +0.005 A 
ATOM     26  C   UNL     1     -10.535   8.381  17.144  0.00  0.00    +0.041 A 
ATOM     27  C   UNL     1     -10.235  10.032  18.882  0.00  0.00    +0.002 A 
ATOM     28  C   UNL     1     -10.091   9.639  17.552  0.00  0.00    +0.020 A 
ENDBRANCH  16  18
ENDBRANCH   6  16
ENDBRANCH  11   6
ENDBRANCH   8  11
BRANCH  10  12
ATOM     12  C   UNL     1     -15.805   3.596  24.178  0.00  0.00    +0.190 C 
BRANCH  12   4
ATOM      4  O   UNL     1     -14.464   3.901  24.527  0.00  0.00    -0.392 OA
ATOM     31  H   UNL     1     -14.124   3.150  25.045  0.00  0.00    +0.210 HD
ENDBRANCH  12   4
ENDBRANCH  10  12
TORSDOF 11
ENDMDL
MODEL 8
REMARK VINA RESULT:      -5.7     19.587     21.456
REMARK  Name = 28962225
REMARK  12 active torsions:
REMARK  status: ('A' for Active; 'I' for Inactive)
REMARK    1  A    between atoms: O_3  and  C_9
REMARK    2  A    between atoms: O_4  and  C_12
REMARK    3  A    between atoms: N_5  and  C_7
REMARK    4  A    between atoms: N_5  and  C_13
REMARK    5  A    between atoms: N_5  and  C_14
REMARK    6  A    between atoms: N_6  and  C_11
REMARK    7  A    between atoms: N_6  and  C_16
REMARK    8  A    between atoms: C_8  and  C_11
REMARK    9  A    between atoms: C_10  and  C_12
REMARK   10  A    between atoms: C_13  and  C_15
REMARK   11  A    between atoms: C_15  and  C_17
REMARK   12  A    between atoms: C_16  and  C_18
REMARK                            x       y       z     vdW  Elec       q    Type
REMARK                         _______ _______ _______ _____ _____    ______ ____
ROOT
ATOM      2  O   UNL     1      -6.705 -11.680  17.968  0.00  0.00    -0.366 OA
ATOM      7  C   UNL     1      -7.549 -10.990  15.853  0.00  0.00    +0.118 C 
ATOM      8  C   UNL     1      -6.273 -11.196  16.677  0.00  0.00    +0.152 C 
ATOM      9  C   UNL     1      -8.610 -10.748  16.917  0.00  0.00    +0.165 C 
ATOM     10  C   UNL     1      -8.145 -11.713  18.001  0.00  0.00    +0.174 C 
ENDROOT
BRANCH   9   3
ATOM      3  O   UNL     1      -8.571  -9.410  17.395  0.00  0.00    -0.388 OA
ATOM     29  H   UNL     1      -7.975  -9.388  18.162  0.00  0.00    +0.210 HD
ENDBRANCH   9   3
BRANCH   7   5
ATOM      5  N   UNL     1      -7.482  -9.986  14.806  0.00  0.00    -0.297 NA
ATOM     14  C   UNL     1      -8.826  -9.599  14.367  0.00  0.00    +0.105 C 
BRANCH   5  13
ATOM     13  C   UNL     1      -6.702 -10.475  13.664  0.00  0.00    +0.089 C 
BRANCH  13  15
ATOM     15  C   UNL     1      -6.190  -9.312  12.813  0.00  0.00    +0.050 C 
BRANCH  15  17
ATOM     17  C   UNL     1      -5.634  -9.793  11.496  0.00  0.00    -0.046 A 
ATOM     19  C   UNL     1      -5.984 -11.053  11.011  0.00  0.00    +0.003 A 
ATOM     20  C   UNL     1      -4.770  -8.979  10.765  0.00  0.00    +0.003 A 
ATOM     23  C   UNL     1      -5.470 -11.498   9.792  0.00  0.00    +0.000 A 
ATOM     24  C   UNL     1      -4.255  -9.425   9.548  0.00  0.00    +0.000 A 
ATOM     25  C   UNL     1      -4.606 -10.684   9.061  0.00  0.00    +0.000 A 
ENDBRANCH  15  17
ENDBRANCH  13  15
ENDBRANCH   5  13
ENDBRANCH   7   5
BRANCH   8  11
ATOM     11  C   UNL     1      -5.411  -9.963  16.923  0.00  0.00    +0.114 C 
BRANCH  11   6
ATOM      6  N   UNL     1      -4.295  -9.912  15.990  0.00  0.00    -0.310 NA
ATOM     30  H   UNL     1      -3.597  -9.251  16.334  0.00  0.00    +0.122 HD
BRANCH   6  16
ATOM     16  C   UNL     1      -3.687 -11.226  15.831  0.00  0.00    +0.116 C 
BRANCH  16  18
ATOM      1 CL   UNL     1      -1.221  -9.518  11.569  0.00  0.00    -0.084 Cl
ATOM     18  C   UNL     1      -3.246 -11.471  14.411  0.00  0.00    -0.032 A 
ATOM     21  C   UNL     1      -2.523 -10.494  13.727  0.00  0.00    +0.025 A 
ATOM     22  C   UNL     1      -3.562 -12.675  13.782  0.00  0.00    +0.005 A 
ATOM     26  C   UNL     1      -2.114 -10.722  12.413  0.00  0.00    +0.041 A 
ATOM     27  C   UNL     1      -3.154 -12.902  12.468  0.00  0.00    +0.002 A 
ATOM     28  C   UNL     1      -2.430 -11.926  11.783  0.00  0.00    +0.020 A 
ENDBRANCH  16  18
ENDBRANCH   6  16
ENDBRANCH  11   6
ENDBRANCH   8  11
BRANCH  10  12
ATOM     12  C   UNL     1      -8.622 -11.395  19.406  0.00  0.00    +0.190 C 
BRANCH  12   4
ATOM      4  O   UNL     1      -9.946 -10.889  19.339  0.00  0.00    -0.392 OA
ATOM     31  H   UNL     1     -10.502 -11.592  18.959  0.00  0.00    +0.210 HD
ENDBRANCH  12   4
ENDBRANCH  10  12
TORSDOF 11
ENDMDL
MODEL 9
REMARK VINA RESULT:      -5.7     19.585     21.038
REMARK  Name = 28962225
REMARK  12 active torsions:
REMARK  status: ('A' for Active; 'I' for Inactive)
REMARK    1  A    between atoms: O_3  and  C_9
REMARK    2  A    between atoms: O_4  and  C_12
REMARK    3  A    between atoms: N_5  and  C_7
REMARK    4  A    between atoms: N_5  and  C_13
REMARK    5  A    between atoms: N_5  and  C_14
REMARK    6  A    between atoms: N_6  and  C_11
REMARK    7  A    between atoms: N_6  and  C_16
REMARK    8  A    between atoms: C_8  and  C_11
REMARK    9  A    between atoms: C_10  and  C_12
REMARK   10  A    between atoms: C_13  and  C_15
REMARK   11  A    between atoms: C_15  and  C_17
REMARK   12  A    between atoms: C_16  and  C_18
REMARK                            x       y       z     vdW  Elec       q    Type
REMARK                         _______ _______ _______ _____ _____    ______ ____
ROOT
ATOM      2  O   UNL     1      -8.539  -9.318  15.773  0.00  0.00    -0.366 OA
ATOM      7  C   UNL     1      -6.528  -9.767  16.965  0.00  0.00    +0.118 C 
ATOM      8  C   UNL     1      -7.195  -9.814  15.585  0.00  0.00    +0.152 C 
ATOM      9  C   UNL     1      -7.708  -9.869  17.920  0.00  0.00    +0.165 C 
ATOM     10  C   UNL     1      -8.747  -9.043  17.172  0.00  0.00    +0.174 C 
ENDROOT
BRANCH   9   3
ATOM      3  O   UNL     1      -8.150 -11.213  18.059  0.00  0.00    -0.388 OA
ATOM     29  H   UNL     1      -7.797 -11.554  18.898  0.00  0.00    +0.210 HD
ENDBRANCH   9   3
BRANCH   7   5
ATOM      5  N   UNL     1      -5.460 -10.724  17.195  0.00  0.00    -0.297 NA
ATOM     14  C   UNL     1      -5.212 -10.894  18.630  0.00  0.00    +0.105 C 
BRANCH   5  13
ATOM     13  C   UNL     1      -4.228 -10.303  16.519  0.00  0.00    +0.089 C 
BRANCH  13  15
ATOM     15  C   UNL     1      -3.314 -11.500  16.253  0.00  0.00    +0.050 C 
BRANCH  15  17
ATOM     17  C   UNL     1      -2.828 -11.517  14.825  0.00  0.00    -0.046 A 
ATOM     19  C   UNL     1      -2.877 -12.699  14.087  0.00  0.00    +0.003 A 
ATOM     20  C   UNL     1      -2.329 -10.352  14.244  0.00  0.00    +0.003 A 
ATOM     23  C   UNL     1      -2.426 -12.716  12.766  0.00  0.00    +0.000 A 
ATOM     24  C   UNL     1      -1.878 -10.369  12.924  0.00  0.00    +0.000 A 
ATOM     25  C   UNL     1      -1.928 -11.551  12.185  0.00  0.00    +0.000 A 
ENDBRANCH  15  17
ENDBRANCH  13  15
ENDBRANCH   5  13
ENDBRANCH   7   5
BRANCH   8  11
ATOM     11  C   UNL     1      -7.309 -11.185  14.928  0.00  0.00    +0.114 C 
BRANCH  11   6
ATOM      6  N   UNL     1      -6.326 -11.338  13.864  0.00  0.00    -0.310 NA
ATOM     30  H   UNL     1      -6.685 -11.986  13.163  0.00  0.00    +0.122 HD
BRANCH   6  16
ATOM     16  C   UNL     1      -6.030 -10.055  13.239  0.00  0.00    +0.116 C 
BRANCH  16  18
ATOM      1 CL   UNL     1      -4.962 -13.156   9.189  0.00  0.00    -0.084 Cl
ATOM     18  C   UNL     1      -5.425 -10.225  11.871  0.00  0.00    -0.032 A 
ATOM     21  C   UNL     1      -5.468 -11.468  11.238  0.00  0.00    +0.025 A 
ATOM     22  C   UNL     1      -4.820  -9.140  11.237  0.00  0.00    +0.005 A 
ATOM     26  C   UNL     1      -4.908 -11.625   9.971  0.00  0.00    +0.041 A 
ATOM     27  C   UNL     1      -4.259  -9.298   9.969  0.00  0.00    +0.002 A 
ATOM     28  C   UNL     1      -4.303 -10.539   9.336  0.00  0.00    +0.020 A 
ENDBRANCH  16  18
ENDBRANCH   6  16
ENDBRANCH  11   6
ENDBRANCH   8  11
BRANCH  10  12
ATOM     12  C   UNL     1     -10.193  -9.333  17.530  0.00  0.00    +0.190 C 
BRANCH  12   4
ATOM      4  O   UNL     1     -10.309  -9.416  18.942  0.00  0.00    -0.392 OA
ATOM     31  H   UNL     1     -10.969 -10.105  19.135  0.00  0.00    +0.210 HD
ENDBRANCH  12   4
ENDBRANCH  10  12
TORSDOF 11
ENDMDL
MODEL 10
REMARK VINA RESULT:      -5.7      1.718      2.731
REMARK  Name = 28962225
REMARK  12 active torsions:
REMARK  status: ('A' for Active; 'I' for Inactive)
REMARK    1  A    between atoms: O_3  and  C_9
REMARK    2  A    between atoms: O_4  and  C_12
REMARK    3  A    between atoms: N_5  and  C_7
REMARK    4  A    between atoms: N_5  and  C_13
REMARK    5  A    between atoms: N_5  and  C_14
REMARK    6  A    between atoms: N_6  and  C_11
REMARK    7  A    between atoms: N_6  and  C_16
REMARK    8  A    between atoms: C_8  and  C_11
REMARK    9  A    between atoms: C_10  and  C_12
REMARK   10  A    between atoms: C_13  and  C_15
REMARK   11  A    between atoms: C_15  and  C_17
REMARK   12  A    between atoms: C_16  and  C_18
REMARK                            x       y       z     vdW  Elec       q    Type
REMARK                         _______ _______ _______ _____ _____    ______ ____
ROOT
ATOM      2  O   UNL     1     -15.269   6.877  22.346  0.00  0.00    -0.366 OA
ATOM      7  C   UNL     1     -16.319   4.874  23.088  0.00  0.00    +0.118 C 
ATOM      8  C   UNL     1     -15.026   5.697  23.143  0.00  0.00    +0.152 C 
ATOM      9  C   UNL     1     -16.946   5.308  21.772  0.00  0.00    +0.165 C 
ATOM     10  C   UNL     1     -16.584   6.788  21.762  0.00  0.00    +0.174 C 
ENDROOT
BRANCH   9   3
ATOM      3  O   UNL     1     -16.347   4.644  20.667  0.00  0.00    -0.388 OA
ATOM     29  H   UNL     1     -16.202   5.305  19.970  0.00  0.00    +0.210 HD
ENDBRANCH   9   3
BRANCH   7   5
ATOM      5  N   UNL     1     -16.175   3.440  23.264  0.00  0.00    -0.297 NA
ATOM     14  C   UNL     1     -17.431   2.748  22.956  0.00  0.00    +0.105 C 
BRANCH   5  13
ATOM     13  C   UNL     1     -15.748   3.122  24.630  0.00  0.00    +0.089 C 
BRANCH  13  15
ATOM     15  C   UNL     1     -16.927   2.630  25.471  0.00  0.00    +0.050 C 
BRANCH  15  17
ATOM     17  C   UNL     1     -16.522   2.394  26.905  0.00  0.00    -0.046 A 
ATOM     19  C   UNL     1     -16.668   1.128  27.471  0.00  0.00    +0.003 A 
ATOM     20  C   UNL     1     -16.004   3.442  27.664  0.00  0.00    +0.003 A 
ATOM     23  C   UNL     1     -16.294   0.909  28.797  0.00  0.00    +0.000 A 
ATOM     24  C   UNL     1     -15.631   3.224  28.991  0.00  0.00    +0.000 A 
ATOM     25  C   UNL     1     -15.776   1.957  29.557  0.00  0.00    +0.000 A 
ENDBRANCH  15  17
ENDBRANCH  13  15
ENDBRANCH   5  13
ENDBRANCH   7   5
BRANCH   8  11
ATOM     11  C   UNL     1     -13.769   5.032  22.594  0.00  0.00    +0.114 C 
BRANCH  11   6
ATOM      6  N   UNL     1     -13.390   5.610  21.312  0.00  0.00    -0.310 NA
ATOM     30  H   UNL     1     -14.044   6.356  21.071  0.00  0.00    +0.122 HD
BRANCH   6  16
ATOM     16  C   UNL     1     -12.036   6.143  21.360  0.00  0.00    +0.116 C 
BRANCH  16  18
ATOM      1 CL   UNL     1     -12.107  11.289  20.535  0.00  0.00    -0.084 Cl
ATOM     18  C   UNL     1     -11.855   7.299  20.411  0.00  0.00    -0.032 A 
ATOM     21  C   UNL     1     -12.044   8.606  20.861  0.00  0.00    +0.025 A 
ATOM     22  C   UNL     1     -11.498   7.061  19.084  0.00  0.00    +0.005 A 
ATOM     26  C   UNL     1     -11.875   9.676  19.982  0.00  0.00    +0.041 A 
ATOM     27  C   UNL     1     -11.331   8.132  18.206  0.00  0.00    +0.002 A 
ATOM     28  C   UNL     1     -11.519   9.439  18.654  0.00  0.00    +0.020 A 
ENDBRANCH  16  18
ENDBRANCH   6  16
ENDBRANCH  11   6
ENDBRANCH   8  11
BRANCH  10  12
ATOM     12  C   UNL     1     -16.571   7.448  20.396  0.00  0.00    +0.190 C 
BRANCH  12   4
ATOM      4  O   UNL     1     -15.338   7.158  19.757  0.00  0.00    -0.392 OA
ATOM     31  H   UNL     1     -15.549   6.730  18.908  0.00  0.00    +0.210 HD
ENDBRANCH  12   4
ENDBRANCH  10  12
TORSDOF 11
ENDMDL
