MODEL 1
REMARK VINA RESULT:      -7.3      0.000      0.000
REMARK  Name = 45360796
REMARK  9 active torsions:
REMARK  status: ('A' for Active; 'I' for Inactive)
REMARK    1  A    between atoms: O_3  and  C_29
REMARK    2  A    between atoms: O_3  and  C_33
REMARK    3  A    between atoms: N_5  and  C_18
REMARK    4  A    between atoms: N_6  and  C_17
REMARK    5  A    between atoms: C_12  and  C_16
REMARK    6  A    between atoms: C_16  and  C_19
REMARK    7  A    between atoms: C_17  and  C_20
REMARK    8  A    between atoms: C_19  and  C_21
REMARK    9  A    between atoms: C_22  and  C_29
REMARK                            x       y       z     vdW  Elec       q    Type
REMARK                         _______ _______ _______ _____ _____    ______ ____
ROOT
ATOM      1  O   UNL     1      20.203   6.251  24.052  0.00  0.00    -0.274 OA
ATOM      5  N   UNL     1      18.169   7.154  20.883  0.00  0.00    -0.296 NA
ATOM      6  N   UNL     1      21.185   5.267  21.738  0.00  0.00    -0.286 NA
ATOM      7  N   UNL     1      19.556   8.257  23.159  0.00  0.00    -0.312 N 
ATOM      9  C   UNL     1      19.493   6.565  20.581  0.00  0.00    +0.084 C 
ATOM     10  C   UNL     1      20.596   6.617  21.678  0.00  0.00    +0.161 C 
ATOM     11  C   UNL     1      19.445   5.062  20.244  0.00  0.00    +0.036 C 
ATOM     12  C   UNL     1      18.189   8.623  21.126  0.00  0.00    +0.074 C 
ATOM     13  C   UNL     1      20.870   4.605  20.477  0.00  0.00    +0.087 C 
ATOM     14  C   UNL     1      19.350   9.118  22.012  0.00  0.00    +0.123 C 
ATOM     15  C   UNL     1      20.102   6.989  23.073  0.00  0.00    +0.232 C 
ATOM     18  C   UNL     1      17.196   6.824  19.828  0.00  0.00    +0.105 C 
ATOM     34  H   UNL     1      19.281   8.595  24.076  0.00  0.00    +0.149 HD
ENDROOT
BRANCH  12  16
ATOM     16  C   UNL     1      16.872   9.078  21.790  0.00  0.00    +0.029 C 
BRANCH  16  19
ATOM     19  C   UNL     1      16.747  10.589  21.823  0.00  0.00    +0.097 C 
BRANCH  19  21
ATOM      2  O   UNL     1      15.384  11.377  23.594  0.00  0.00    -0.276 OA
ATOM      8  N   UNL     1      14.318  10.962  21.571  0.00  0.00    -0.301 N 
ATOM     21  C   UNL     1      15.427  11.013  22.416  0.00  0.00    +0.216 C 
ATOM     22  C   UNL     1      11.922   9.844  20.399  0.00  0.00    +0.101 C 
ATOM     23  C   UNL     1      13.009  11.397  22.060  0.00  0.00    +0.108 C 
ATOM     24  C   UNL     1      14.338  10.535  20.166  0.00  0.00    +0.108 C 
ATOM     25  C   UNL     1      11.960  10.308  21.858  0.00  0.00    +0.033 C 
ATOM     26  C   UNL     1      13.317   9.426  19.924  0.00  0.00    +0.033 C 
BRANCH  22  29
ATOM      4  O   UNL     1      10.436   8.366  19.214  0.00  0.00    -0.251 OA
ATOM     29  C   UNL     1      10.968   8.697  20.265  0.00  0.00    +0.310 C 
BRANCH  29   3
ATOM      3  O   UNL     1      10.799   8.102  21.480  0.00  0.00    -0.468 OA
ATOM     33  C   UNL     1      11.013   6.687  21.506  0.00  0.00    +0.280 C 
ENDBRANCH  29   3
ENDBRANCH  22  29
ENDBRANCH  19  21
ENDBRANCH  16  19
ENDBRANCH  12  16
BRANCH   6  17
ATOM     17  C   UNL     1      22.617   5.273  22.010  0.00  0.00    +0.120 C 
BRANCH  17  20
ATOM     20  C   UNL     1      23.197   3.884  21.998  0.00  0.00    -0.033 A 
ATOM     27  C   UNL     1      23.002   3.038  23.090  0.00  0.00    +0.005 A 
ATOM     28  C   UNL     1      23.929   3.443  20.896  0.00  0.00    +0.005 A 
ATOM     30  C   UNL     1      23.538   1.750  23.080  0.00  0.00    +0.000 A 
ATOM     31  C   UNL     1      24.467   2.155  20.887  0.00  0.00    +0.000 A 
ATOM     32  C   UNL     1      24.271   1.309  21.979  0.00  0.00    +0.000 A 
ENDBRANCH  17  20
ENDBRANCH   6  17
TORSDOF 7
ENDMDL
MODEL 2
REMARK VINA RESULT:      -7.0     27.469     33.223
REMARK  Name = 45360796
REMARK  9 active torsions:
REMARK  status: ('A' for Active; 'I' for Inactive)
REMARK    1  A    between atoms: O_3  and  C_29
REMARK    2  A    between atoms: O_3  and  C_33
REMARK    3  A    between atoms: N_5  and  C_18
REMARK    4  A    between atoms: N_6  and  C_17
REMARK    5  A    between atoms: C_12  and  C_16
REMARK    6  A    between atoms: C_16  and  C_19
REMARK    7  A    between atoms: C_17  and  C_20
REMARK    8  A    between atoms: C_19  and  C_21
REMARK    9  A    between atoms: C_22  and  C_29
REMARK                            x       y       z     vdW  Elec       q    Type
REMARK                         _______ _______ _______ _____ _____    ______ ____
ROOT
ATOM      1  O   UNL     1     -10.450  -5.807  15.465  0.00  0.00    -0.274 OA
ATOM      5  N   UNL     1      -9.859  -9.633  15.561  0.00  0.00    -0.296 NA
ATOM      6  N   UNL     1     -12.090  -7.263  13.889  0.00  0.00    -0.286 NA
ATOM      7  N   UNL     1     -10.430  -7.318  17.185  0.00  0.00    -0.312 N 
ATOM      9  C   UNL     1     -11.118  -9.252  14.882  0.00  0.00    +0.084 C 
ATOM     10  C   UNL     1     -11.734  -7.857  15.191  0.00  0.00    +0.161 C 
ATOM     11  C   UNL     1     -11.014  -9.225  13.345  0.00  0.00    +0.036 C 
ATOM     12  C   UNL     1      -9.968  -9.747  17.042  0.00  0.00    +0.074 C 
ATOM     13  C   UNL     1     -12.185  -8.358  12.930  0.00  0.00    +0.087 C 
ATOM     14  C   UNL     1     -10.770  -8.621  17.722  0.00  0.00    +0.123 C 
ATOM     15  C   UNL     1     -10.809  -6.891  15.926  0.00  0.00    +0.232 C 
ATOM     18  C   UNL     1      -9.312 -10.877  14.992  0.00  0.00    +0.105 C 
ATOM     34  H   UNL     1      -9.879  -6.686  17.756  0.00  0.00    +0.149 HD
ENDROOT
BRANCH  12  16
ATOM     16  C   UNL     1      -8.565  -9.772  17.686  0.00  0.00    +0.029 C 
BRANCH  16  19
ATOM     19  C   UNL     1      -8.390 -10.955  18.618  0.00  0.00    +0.097 C 
BRANCH  19  21
ATOM      2  O   UNL     1      -6.676 -10.601  20.216  0.00  0.00    -0.276 OA
ATOM      8  N   UNL     1      -6.055 -11.674  18.250  0.00  0.00    -0.301 N 
ATOM     21  C   UNL     1      -6.968 -11.057  19.107  0.00  0.00    +0.216 C 
ATOM     22  C   UNL     1      -3.975 -11.821  16.246  0.00  0.00    +0.101 C 
ATOM     23  C   UNL     1      -4.664 -11.849  18.671  0.00  0.00    +0.108 C 
ATOM     24  C   UNL     1      -6.372 -12.227  16.927  0.00  0.00    +0.108 C 
ATOM     25  C   UNL     1      -3.704 -11.257  17.643  0.00  0.00    +0.033 C 
ATOM     26  C   UNL     1      -5.447 -11.641  15.862  0.00  0.00    +0.033 C 
BRANCH  22  29
ATOM      4  O   UNL     1      -3.507 -10.590  14.231  0.00  0.00    -0.251 OA
ATOM     29  C   UNL     1      -3.096 -11.130  15.250  0.00  0.00    +0.310 C 
BRANCH  29   3
ATOM      3  O   UNL     1      -1.799 -11.204  15.660  0.00  0.00    -0.468 OA
ATOM     33  C   UNL     1      -1.031 -10.009  15.487  0.00  0.00    +0.280 C 
ENDBRANCH  29   3
ENDBRANCH  22  29
ENDBRANCH  19  21
ENDBRANCH  16  19
ENDBRANCH  12  16
BRANCH   6  17
ATOM     17  C   UNL     1     -13.309  -6.465  13.932  0.00  0.00    +0.120 C 
BRANCH  17  20
ATOM     20  C   UNL     1     -13.310  -5.386  12.883  0.00  0.00    -0.033 A 
ATOM     27  C   UNL     1     -12.303  -4.421  12.875  0.00  0.00    +0.005 A 
ATOM     28  C   UNL     1     -14.318  -5.350  11.920  0.00  0.00    +0.005 A 
ATOM     30  C   UNL     1     -12.303  -3.420  11.903  0.00  0.00    +0.000 A 
ATOM     31  C   UNL     1     -14.319  -4.349  10.948  0.00  0.00    +0.000 A 
ATOM     32  C   UNL     1     -13.311  -3.384  10.940  0.00  0.00    +0.000 A 
ENDBRANCH  17  20
ENDBRANCH   6  17
TORSDOF 7
ENDMDL
MODEL 3
REMARK VINA RESULT:      -7.0     15.148     17.385
REMARK  Name = 45360796
REMARK  9 active torsions:
REMARK  status: ('A' for Active; 'I' for Inactive)
REMARK    1  A    between atoms: O_3  and  C_29
REMARK    2  A    between atoms: O_3  and  C_33
REMARK    3  A    between atoms: N_5  and  C_18
REMARK    4  A    between atoms: N_6  and  C_17
REMARK    5  A    between atoms: C_12  and  C_16
REMARK    6  A    between atoms: C_16  and  C_19
REMARK    7  A    between atoms: C_17  and  C_20
REMARK    8  A    between atoms: C_19  and  C_21
REMARK    9  A    between atoms: C_22  and  C_29
REMARK                            x       y       z     vdW  Elec       q    Type
REMARK                         _______ _______ _______ _____ _____    ______ ____
ROOT
ATOM      1  O   UNL     1      15.829   6.793   4.419  0.00  0.00    -0.274 OA
ATOM      5  N   UNL     1      13.180   9.346   3.212  0.00  0.00    -0.296 NA
ATOM      6  N   UNL     1      16.492   9.388   4.767  0.00  0.00    -0.286 NA
ATOM      7  N   UNL     1      13.619   7.078   4.940  0.00  0.00    -0.312 N 
ATOM      9  C   UNL     1      14.251   9.957   4.030  0.00  0.00    +0.084 C 
ATOM     10  C   UNL     1      15.075   9.039   4.979  0.00  0.00    +0.161 C 
ATOM     11  C   UNL     1      15.357  10.638   3.202  0.00  0.00    +0.036 C 
ATOM     12  C   UNL     1      12.061   8.759   4.001  0.00  0.00    +0.074 C 
ATOM     13  C   UNL     1      16.521  10.717   4.168  0.00  0.00    +0.087 C 
ATOM     14  C   UNL     1      12.495   7.944   5.235  0.00  0.00    +0.123 C 
ATOM     15  C   UNL     1      14.906   7.542   4.736  0.00  0.00    +0.232 C 
ATOM     18  C   UNL     1      12.659  10.309   2.227  0.00  0.00    +0.105 C 
ATOM     34  H   UNL     1      13.457   6.078   4.872  0.00  0.00    +0.149 HD
ENDROOT
BRANCH  12  16
ATOM     16  C   UNL     1      11.202   7.833   3.113  0.00  0.00    +0.029 C 
BRANCH  16  19
ATOM     19  C   UNL     1       9.777   8.336   2.981  0.00  0.00    +0.097 C 
BRANCH  19  21
ATOM      2  O   UNL     1       9.042   9.883   4.619  0.00  0.00    -0.276 OA
ATOM      8  N   UNL     1       8.876   7.632   5.171  0.00  0.00    -0.301 N 
ATOM     21  C   UNL     1       9.199   8.695   4.326  0.00  0.00    +0.216 C 
ATOM     22  C   UNL     1       9.261   5.736   7.321  0.00  0.00    +0.101 C 
ATOM     23  C   UNL     1       8.272   7.896   6.477  0.00  0.00    +0.108 C 
ATOM     24  C   UNL     1       9.051   6.209   4.851  0.00  0.00    +0.108 C 
ATOM     25  C   UNL     1       9.072   7.231   7.594  0.00  0.00    +0.033 C 
ATOM     26  C   UNL     1       9.869   5.509   5.934  0.00  0.00    +0.033 C 
BRANCH  22  29
ATOM      4  O   UNL     1      11.307   5.489   8.565  0.00  0.00    -0.251 OA
ATOM     29  C   UNL     1      10.148   5.146   8.374  0.00  0.00    +0.310 C 
BRANCH  29   3
ATOM      3  O   UNL     1       9.462   4.190   9.062  0.00  0.00    -0.468 OA
ATOM     33  C   UNL     1       8.839   4.633  10.272  0.00  0.00    +0.280 C 
ENDBRANCH  29   3
ENDBRANCH  22  29
ENDBRANCH  19  21
ENDBRANCH  16  19
ENDBRANCH  12  16
BRANCH   6  17
ATOM     17  C   UNL     1      17.292   9.317   5.983  0.00  0.00    +0.120 C 
BRANCH  17  20
ATOM     20  C   UNL     1      18.619   8.649   5.743  0.00  0.00    -0.033 A 
ATOM     27  C   UNL     1      18.923   8.134   4.482  0.00  0.00    +0.005 A 
ATOM     28  C   UNL     1      19.545   8.543   6.780  0.00  0.00    +0.005 A 
ATOM     30  C   UNL     1      20.153   7.515   4.259  0.00  0.00    +0.000 A 
ATOM     31  C   UNL     1      20.775   7.922   6.558  0.00  0.00    +0.000 A 
ATOM     32  C   UNL     1      21.078   7.408   5.296  0.00  0.00    +0.000 A 
ENDBRANCH  17  20
ENDBRANCH   6  17
TORSDOF 7
ENDMDL
MODEL 4
REMARK VINA RESULT:      -6.9     30.773     34.879
REMARK  Name = 45360796
REMARK  9 active torsions:
REMARK  status: ('A' for Active; 'I' for Inactive)
REMARK    1  A    between atoms: O_3  and  C_29
REMARK    2  A    between atoms: O_3  and  C_33
REMARK    3  A    between atoms: N_5  and  C_18
REMARK    4  A    between atoms: N_6  and  C_17
REMARK    5  A    between atoms: C_12  and  C_16
REMARK    6  A    between atoms: C_16  and  C_19
REMARK    7  A    between atoms: C_17  and  C_20
REMARK    8  A    between atoms: C_19  and  C_21
REMARK    9  A    between atoms: C_22  and  C_29
REMARK                            x       y       z     vdW  Elec       q    Type
REMARK                         _______ _______ _______ _____ _____    ______ ____
ROOT
ATOM      1  O   UNL     1     -11.915  -4.826  12.347  0.00  0.00    -0.274 OA
ATOM      5  N   UNL     1     -13.221  -7.668  14.630  0.00  0.00    -0.296 NA
ATOM      6  N   UNL     1     -14.596  -4.903  12.667  0.00  0.00    -0.286 NA
ATOM      7  N   UNL     1     -11.438  -5.404  14.510  0.00  0.00    -0.312 N 
ATOM      9  C   UNL     1     -14.251  -6.654  14.311  0.00  0.00    +0.084 C 
ATOM     10  C   UNL     1     -13.784  -5.243  13.851  0.00  0.00    +0.161 C 
ATOM     11  C   UNL     1     -15.201  -7.066  13.170  0.00  0.00    +0.036 C 
ATOM     12  C   UNL     1     -12.351  -7.319  15.787  0.00  0.00    +0.074 C 
ATOM     13  C   UNL     1     -15.784  -5.748  12.704  0.00  0.00    +0.087 C 
ATOM     14  C   UNL     1     -11.868  -5.856  15.818  0.00  0.00    +0.123 C 
ATOM     15  C   UNL     1     -12.310  -5.143  13.469  0.00  0.00    +0.232 C 
ATOM     18  C   UNL     1     -13.835  -8.992  14.834  0.00  0.00    +0.105 C 
ATOM     34  H   UNL     1     -10.445  -5.277  14.342  0.00  0.00    +0.149 HD
ENDROOT
BRANCH  12  16
ATOM     16  C   UNL     1     -11.099  -8.222  15.812  0.00  0.00    +0.029 C 
BRANCH  16  19
ATOM     19  C   UNL     1     -10.387  -8.167  17.150  0.00  0.00    +0.097 C 
BRANCH  19  21
ATOM      2  O   UNL     1     -11.514  -9.801  18.445  0.00  0.00    -0.276 OA
ATOM      8  N   UNL     1      -9.331 -10.297  17.823  0.00  0.00    -0.301 N 
ATOM     21  C   UNL     1     -10.470  -9.492  17.865  0.00  0.00    +0.216 C 
ATOM     22  C   UNL     1      -6.851 -11.441  18.774  0.00  0.00    +0.101 C 
ATOM     23  C   UNL     1      -9.346 -11.615  18.458  0.00  0.00    +0.108 C 
ATOM     24  C   UNL     1      -8.075  -9.957  17.140  0.00  0.00    +0.108 C 
ATOM     25  C   UNL     1      -8.190 -11.760  19.444  0.00  0.00    +0.033 C 
ATOM     26  C   UNL     1      -6.893 -10.066  18.100  0.00  0.00    +0.033 C 
BRANCH  22  29
ATOM      4  O   UNL     1      -5.898 -11.119  20.961  0.00  0.00    -0.251 OA
ATOM     29  C   UNL     1      -5.760 -11.479  19.799  0.00  0.00    +0.310 C 
BRANCH  29   3
ATOM      3  O   UNL     1      -4.620 -11.966  19.233  0.00  0.00    -0.468 OA
ATOM     33  C   UNL     1      -4.811 -12.990  18.251  0.00  0.00    +0.280 C 
ENDBRANCH  29   3
ENDBRANCH  22  29
ENDBRANCH  19  21
ENDBRANCH  16  19
ENDBRANCH  12  16
BRANCH   6  17
ATOM     17  C   UNL     1     -14.933  -3.487  12.585  0.00  0.00    +0.120 C 
BRANCH  17  20
ATOM     20  C   UNL     1     -14.954  -2.997  11.162  0.00  0.00    -0.033 A 
ATOM     27  C   UNL     1     -15.844  -1.992  10.783  0.00  0.00    +0.005 A 
ATOM     28  C   UNL     1     -14.082  -3.547  10.222  0.00  0.00    +0.005 A 
ATOM     30  C   UNL     1     -15.863  -1.537   9.464  0.00  0.00    +0.000 A 
ATOM     31  C   UNL     1     -14.102  -3.093   8.903  0.00  0.00    +0.000 A 
ATOM     32  C   UNL     1     -14.992  -2.088   8.524  0.00  0.00    +0.000 A 
ENDBRANCH  17  20
ENDBRANCH   6  17
TORSDOF 7
ENDMDL
MODEL 5
REMARK VINA RESULT:      -6.9     28.537     32.364
REMARK  Name = 45360796
REMARK  9 active torsions:
REMARK  status: ('A' for Active; 'I' for Inactive)
REMARK    1  A    between atoms: O_3  and  C_29
REMARK    2  A    between atoms: O_3  and  C_33
REMARK    3  A    between atoms: N_5  and  C_18
REMARK    4  A    between atoms: N_6  and  C_17
REMARK    5  A    between atoms: C_12  and  C_16
REMARK    6  A    between atoms: C_16  and  C_19
REMARK    7  A    between atoms: C_17  and  C_20
REMARK    8  A    between atoms: C_19  and  C_21
REMARK    9  A    between atoms: C_22  and  C_29
REMARK                            x       y       z     vdW  Elec       q    Type
REMARK                         _______ _______ _______ _____ _____    ______ ____
ROOT
ATOM      1  O   UNL     1      -7.906  -8.861  16.938  0.00  0.00    -0.274 OA
ATOM      5  N   UNL     1      -7.631 -12.634  17.761  0.00  0.00    -0.296 NA
ATOM      6  N   UNL     1     -10.254 -10.108  17.413  0.00  0.00    -0.286 NA
ATOM      7  N   UNL     1      -6.743 -10.004  18.544  0.00  0.00    -0.312 N 
ATOM      9  C   UNL     1      -8.973 -12.073  18.032  0.00  0.00    +0.084 C 
ATOM     10  C   UNL     1      -9.107 -10.536  18.234  0.00  0.00    +0.161 C 
ATOM     11  C   UNL     1      -9.999 -12.341  16.915  0.00  0.00    +0.036 C 
ATOM     12  C   UNL     1      -6.653 -12.457  18.871  0.00  0.00    +0.074 C 
ATOM     13  C   UNL     1     -11.065 -11.293  17.158  0.00  0.00    +0.087 C 
ATOM     14  C   UNL     1      -6.665 -11.064  19.529  0.00  0.00    +0.123 C 
ATOM     15  C   UNL     1      -7.885  -9.721  17.818  0.00  0.00    +0.232 C 
ATOM     18  C   UNL     1      -7.724 -14.056  17.385  0.00  0.00    +0.105 C 
ATOM     34  H   UNL     1      -5.917  -9.441  18.370  0.00  0.00    +0.149 HD
ENDROOT
BRANCH  12  16
ATOM     16  C   UNL     1      -5.217 -12.722  18.372  0.00  0.00    +0.029 C 
BRANCH  16  19
ATOM     19  C   UNL     1      -5.111 -12.614  16.863  0.00  0.00    +0.097 C 
BRANCH  19  21
ATOM      2  O   UNL     1      -4.069 -10.503  17.128  0.00  0.00    -0.276 OA
ATOM      8  N   UNL     1      -3.354 -11.794  15.333  0.00  0.00    -0.301 N 
ATOM     21  C   UNL     1      -4.135 -11.539  16.461  0.00  0.00    +0.216 C 
ATOM     22  C   UNL     1      -2.598 -11.672  12.544  0.00  0.00    +0.101 C 
ATOM     23  C   UNL     1      -2.353 -10.816  14.903  0.00  0.00    +0.108 C 
ATOM     24  C   UNL     1      -3.409 -13.016  14.520  0.00  0.00    +0.108 C 
ATOM     25  C   UNL     1      -2.559 -10.431  13.441  0.00  0.00    +0.033 C 
ATOM     26  C   UNL     1      -3.638 -12.676  13.049  0.00  0.00    +0.033 C 
BRANCH  22  29
ATOM      4  O   UNL     1      -3.418 -12.005  10.306  0.00  0.00    -0.251 OA
ATOM     29  C   UNL     1      -2.918 -11.262  11.140  0.00  0.00    +0.310 C 
BRANCH  29   3
ATOM      3  O   UNL     1      -2.567  -9.958  10.955  0.00  0.00    -0.468 OA
ATOM     33  C   UNL     1      -3.342  -9.245   9.986  0.00  0.00    +0.280 C 
ENDBRANCH  29   3
ENDBRANCH  22  29
ENDBRANCH  19  21
ENDBRANCH  16  19
ENDBRANCH  12  16
BRANCH   6  17
ATOM     17  C   UNL     1     -11.030  -9.033  18.019  0.00  0.00    +0.120 C 
BRANCH  17  20
ATOM     20  C   UNL     1     -11.482  -8.023  16.999  0.00  0.00    -0.033 A 
ATOM     27  C   UNL     1     -10.647  -6.960  16.653  0.00  0.00    +0.005 A 
ATOM     28  C   UNL     1     -12.735  -8.148  16.400  0.00  0.00    +0.005 A 
ATOM     30  C   UNL     1     -11.064  -6.023  15.707  0.00  0.00    +0.000 A 
ATOM     31  C   UNL     1     -13.153  -7.211  15.455  0.00  0.00    +0.000 A 
ATOM     32  C   UNL     1     -12.318  -6.149  15.108  0.00  0.00    +0.000 A 
ENDBRANCH  17  20
ENDBRANCH   6  17
TORSDOF 7
ENDMDL
MODEL 6
REMARK VINA RESULT:      -6.9     28.490     31.256
REMARK  Name = 45360796
REMARK  9 active torsions:
REMARK  status: ('A' for Active; 'I' for Inactive)
REMARK    1  A    between atoms: O_3  and  C_29
REMARK    2  A    between atoms: O_3  and  C_33
REMARK    3  A    between atoms: N_5  and  C_18
REMARK    4  A    between atoms: N_6  and  C_17
REMARK    5  A    between atoms: C_12  and  C_16
REMARK    6  A    between atoms: C_16  and  C_19
REMARK    7  A    between atoms: C_17  and  C_20
REMARK    8  A    between atoms: C_19  and  C_21
REMARK    9  A    between atoms: C_22  and  C_29
REMARK                            x       y       z     vdW  Elec       q    Type
REMARK                         _______ _______ _______ _____ _____    ______ ____
ROOT
ATOM      1  O   UNL     1      -5.571  -9.829  14.916  0.00  0.00    -0.274 OA
ATOM      5  N   UNL     1      -3.691 -13.189  14.499  0.00  0.00    -0.296 NA
ATOM      6  N   UNL     1      -6.102 -11.685  16.804  0.00  0.00    -0.286 NA
ATOM      7  N   UNL     1      -3.344 -10.336  14.756  0.00  0.00    -0.312 N 
ATOM      9  C   UNL     1      -4.359 -13.052  15.812  0.00  0.00    +0.084 C 
ATOM     10  C   UNL     1      -4.710 -11.623  16.320  0.00  0.00    +0.161 C 
ATOM     11  C   UNL     1      -5.721 -13.767  15.897  0.00  0.00    +0.036 C 
ATOM     12  C   UNL     1      -2.336 -12.575  14.430  0.00  0.00    +0.074 C 
ATOM     13  C   UNL     1      -6.402 -13.088  17.067  0.00  0.00    +0.087 C 
ATOM     14  C   UNL     1      -2.218 -11.186  15.089  0.00  0.00    +0.123 C 
ATOM     15  C   UNL     1      -4.616 -10.522  15.267  0.00  0.00    +0.232 C 
ATOM     18  C   UNL     1      -3.633 -14.601  14.086  0.00  0.00    +0.105 C 
ATOM     34  H   UNL     1      -3.198  -9.568  14.110  0.00  0.00    +0.149 HD
ENDROOT
BRANCH  12  16
ATOM     16  C   UNL     1      -1.882 -12.432  12.962  0.00  0.00    +0.029 C 
BRANCH  16  19
ATOM     19  C   UNL     1      -3.044 -12.130  12.036  0.00  0.00    +0.097 C 
BRANCH  19  21
ATOM      2  O   UNL     1      -1.978 -10.032  11.760  0.00  0.00    -0.276 OA
ATOM      8  N   UNL     1      -3.798 -10.459  10.379  0.00  0.00    -0.301 N 
ATOM     21  C   UNL     1      -2.885 -10.780  11.385  0.00  0.00    +0.216 C 
ATOM     22  C   UNL     1      -6.163  -9.263   9.222  0.00  0.00    +0.101 C 
ATOM     23  C   UNL     1      -3.683  -9.184   9.670  0.00  0.00    +0.108 C 
ATOM     24  C   UNL     1      -4.885 -11.328   9.911  0.00  0.00    +0.108 C 
ATOM     25  C   UNL     1      -4.997  -8.409   9.725  0.00  0.00    +0.033 C 
ATOM     26  C   UNL     1      -6.224 -10.597   9.973  0.00  0.00    +0.033 C 
BRANCH  22  29
ATOM      4  O   UNL     1      -8.279  -8.775  10.260  0.00  0.00    -0.251 OA
ATOM     29  C   UNL     1      -7.446  -8.512   9.403  0.00  0.00    +0.310 C 
BRANCH  29   3
ATOM      3  O   UNL     1      -7.524  -7.516   8.476  0.00  0.00    -0.468 OA
ATOM     33  C   UNL     1      -7.879  -7.934   7.154  0.00  0.00    +0.280 C 
ENDBRANCH  29   3
ENDBRANCH  22  29
ENDBRANCH  19  21
ENDBRANCH  16  19
ENDBRANCH  12  16
BRANCH   6  17
ATOM     17  C   UNL     1      -6.346 -10.845  17.970  0.00  0.00    +0.120 C 
BRANCH  17  20
ATOM     20  C   UNL     1      -7.724 -10.240  17.946  0.00  0.00    -0.033 A 
ATOM     27  C   UNL     1      -8.737 -10.781  18.739  0.00  0.00    +0.005 A 
ATOM     28  C   UNL     1      -7.990  -9.139  17.132  0.00  0.00    +0.005 A 
ATOM     30  C   UNL     1     -10.014 -10.221  18.718  0.00  0.00    +0.000 A 
ATOM     31  C   UNL     1      -9.267  -8.580  17.110  0.00  0.00    +0.000 A 
ATOM     32  C   UNL     1     -10.280  -9.121  17.904  0.00  0.00    +0.000 A 
ENDBRANCH  17  20
ENDBRANCH   6  17
TORSDOF 7
ENDMDL
MODEL 7
REMARK VINA RESULT:      -6.8      1.833      2.662
REMARK  Name = 45360796
REMARK  9 active torsions:
REMARK  status: ('A' for Active; 'I' for Inactive)
REMARK    1  A    between atoms: O_3  and  C_29
REMARK    2  A    between atoms: O_3  and  C_33
REMARK    3  A    between atoms: N_5  and  C_18
REMARK    4  A    between atoms: N_6  and  C_17
REMARK    5  A    between atoms: C_12  and  C_16
REMARK    6  A    between atoms: C_16  and  C_19
REMARK    7  A    between atoms: C_17  and  C_20
REMARK    8  A    between atoms: C_19  and  C_21
REMARK    9  A    between atoms: C_22  and  C_29
REMARK                            x       y       z     vdW  Elec       q    Type
REMARK                         _______ _______ _______ _____ _____    ______ ____
ROOT
ATOM      1  O   UNL     1      20.223   6.235  23.937  0.00  0.00    -0.274 OA
ATOM      5  N   UNL     1      18.055   6.989  20.818  0.00  0.00    -0.296 NA
ATOM      6  N   UNL     1      21.179   5.255  21.609  0.00  0.00    -0.286 NA
ATOM      7  N   UNL     1      19.459   8.194  23.032  0.00  0.00    -0.312 N 
ATOM      9  C   UNL     1      19.395   6.455  20.484  0.00  0.00    +0.084 C 
ATOM     10  C   UNL     1      20.527   6.576  21.545  0.00  0.00    +0.161 C 
ATOM     11  C   UNL     1      19.405   4.947  20.173  0.00  0.00    +0.036 C 
ATOM     12  C   UNL     1      18.016   8.462  21.037  0.00  0.00    +0.074 C 
ATOM     13  C   UNL     1      20.856   4.558  20.369  0.00  0.00    +0.087 C 
ATOM     14  C   UNL     1      19.179   9.024  21.877  0.00  0.00    +0.123 C 
ATOM     15  C   UNL     1      20.059   6.951  22.949  0.00  0.00    +0.232 C 
ATOM     18  C   UNL     1      17.066   6.598  19.799  0.00  0.00    +0.105 C 
ATOM     34  H   UNL     1      19.197   8.536  23.951  0.00  0.00    +0.149 HD
ENDROOT
BRANCH  12  16
ATOM     16  C   UNL     1      16.700   8.869  21.733  0.00  0.00    +0.029 C 
BRANCH  16  19
ATOM     19  C   UNL     1      15.930   9.901  20.932  0.00  0.00    +0.097 C 
BRANCH  19  21
ATOM      2  O   UNL     1      14.125   8.940  19.735  0.00  0.00    -0.276 OA
ATOM      8  N   UNL     1      13.634   9.799  21.838  0.00  0.00    -0.301 N 
ATOM     21  C   UNL     1      14.486   9.500  20.774  0.00  0.00    +0.216 C 
ATOM     22  C   UNL     1      11.670  11.317  23.323  0.00  0.00    +0.101 C 
ATOM     23  C   UNL     1      12.226   9.404  21.777  0.00  0.00    +0.108 C 
ATOM     24  C   UNL     1      14.034  10.462  23.085  0.00  0.00    +0.108 C 
ATOM     25  C   UNL     1      11.312  10.602  22.016  0.00  0.00    +0.033 C 
ATOM     26  C   UNL     1      13.157  11.684  23.351  0.00  0.00    +0.033 C 
BRANCH  22  29
ATOM      4  O   UNL     1      10.074  12.762  24.398  0.00  0.00    -0.251 OA
ATOM     29  C   UNL     1      10.833  12.550  23.461  0.00  0.00    +0.310 C 
BRANCH  29   3
ATOM      3  O   UNL     1      11.054  13.372  22.397  0.00  0.00    -0.468 OA
ATOM     33  C   UNL     1       9.953  14.211  22.031  0.00  0.00    +0.280 C 
ENDBRANCH  29   3
ENDBRANCH  22  29
ENDBRANCH  19  21
ENDBRANCH  16  19
ENDBRANCH  12  16
BRANCH   6  17
ATOM     17  C   UNL     1      22.617   5.331  21.836  0.00  0.00    +0.120 C 
BRANCH  17  20
ATOM     20  C   UNL     1      23.280   3.988  21.687  0.00  0.00    -0.033 A 
ATOM     27  C   UNL     1      23.121   3.018  22.678  0.00  0.00    +0.005 A 
ATOM     28  C   UNL     1      24.053   3.712  20.560  0.00  0.00    +0.005 A 
ATOM     30  C   UNL     1      23.735   1.773  22.540  0.00  0.00    +0.000 A 
ATOM     31  C   UNL     1      24.668   2.468  20.423  0.00  0.00    +0.000 A 
ATOM     32  C   UNL     1      24.508   1.498  21.413  0.00  0.00    +0.000 A 
ENDBRANCH  17  20
ENDBRANCH   6  17
TORSDOF 7
ENDMDL
MODEL 8
REMARK VINA RESULT:      -6.7     28.491     31.161
REMARK  Name = 45360796
REMARK  9 active torsions:
REMARK  status: ('A' for Active; 'I' for Inactive)
REMARK    1  A    between atoms: O_3  and  C_29
REMARK    2  A    between atoms: O_3  and  C_33
REMARK    3  A    between atoms: N_5  and  C_18
REMARK    4  A    between atoms: N_6  and  C_17
REMARK    5  A    between atoms: C_12  and  C_16
REMARK    6  A    between atoms: C_16  and  C_19
REMARK    7  A    between atoms: C_17  and  C_20
REMARK    8  A    between atoms: C_19  and  C_21
REMARK    9  A    between atoms: C_22  and  C_29
REMARK                            x       y       z     vdW  Elec       q    Type
REMARK                         _______ _______ _______ _____ _____    ______ ____
ROOT
ATOM      1  O   UNL     1      -5.537 -11.309  13.010  0.00  0.00    -0.274 OA
ATOM      5  N   UNL     1      -4.433 -11.903  16.674  0.00  0.00    -0.296 NA
ATOM      6  N   UNL     1      -2.888 -11.053  13.468  0.00  0.00    -0.286 NA
ATOM      7  N   UNL     1      -5.817 -13.080  14.433  0.00  0.00    -0.312 N 
ATOM      9  C   UNL     1      -3.300 -11.848  15.723  0.00  0.00    +0.084 C 
ATOM     10  C   UNL     1      -3.583 -12.117  14.216  0.00  0.00    +0.161 C 
ATOM     11  C   UNL     1      -2.589 -10.482  15.678  0.00  0.00    +0.036 C 
ATOM     12  C   UNL     1      -5.075 -13.242  16.790  0.00  0.00    +0.074 C 
ATOM     13  C   UNL     1      -1.862 -10.508  14.350  0.00  0.00    +0.087 C 
ATOM     14  C   UNL     1      -5.300 -13.972  15.451  0.00  0.00    +0.123 C 
ATOM     15  C   UNL     1      -5.057 -12.099  13.823  0.00  0.00    +0.232 C 
ATOM     18  C   UNL     1      -4.026 -11.415  18.003  0.00  0.00    +0.105 C 
ATOM     34  H   UNL     1      -6.788 -13.172  14.154  0.00  0.00    +0.149 HD
ENDROOT
BRANCH  12  16
ATOM     16  C   UNL     1      -6.445 -13.125  17.491  0.00  0.00    +0.029 C 
BRANCH  16  19
ATOM     19  C   UNL     1      -7.147 -11.825  17.149  0.00  0.00    +0.097 C 
BRANCH  19  21
ATOM      2  O   UNL     1      -8.839 -12.578  18.627  0.00  0.00    -0.276 OA
ATOM      8  N   UNL     1      -8.880 -10.323  18.069  0.00  0.00    -0.301 N 
ATOM     21  C   UNL     1      -8.362 -11.618  18.016  0.00  0.00    +0.216 C 
ATOM     22  C   UNL     1     -10.641  -8.137  17.375  0.00  0.00    +0.101 C 
ATOM     23  C   UNL     1     -10.033 -10.033  18.922  0.00  0.00    +0.108 C 
ATOM     24  C   UNL     1      -8.334  -9.161  17.355  0.00  0.00    +0.108 C 
ATOM     25  C   UNL     1     -11.152  -9.373  18.121  0.00  0.00    +0.033 C 
ATOM     26  C   UNL     1      -9.419  -8.484  16.520  0.00  0.00    +0.033 C 
BRANCH  22  29
ATOM      4  O   UNL     1     -12.641  -8.265  16.042  0.00  0.00    -0.251 OA
ATOM     29  C   UNL     1     -11.735  -7.589  16.511  0.00  0.00    +0.310 C 
BRANCH  29   3
ATOM      3  O   UNL     1     -11.552  -6.249  16.341  0.00  0.00    -0.468 OA
ATOM     33  C   UNL     1     -11.579  -5.793  14.984  0.00  0.00    +0.280 C 
ENDBRANCH  29   3
ENDBRANCH  22  29
ENDBRANCH  19  21
ENDBRANCH  16  19
ENDBRANCH  12  16
BRANCH   6  17
ATOM     17  C   UNL     1      -2.334 -11.508  12.198  0.00  0.00    +0.120 C 
BRANCH  17  20
ATOM     20  C   UNL     1      -3.073 -10.925  11.023  0.00  0.00    -0.033 A 
ATOM     27  C   UNL     1      -3.786 -11.760  10.164  0.00  0.00    +0.005 A 
ATOM     28  C   UNL     1      -3.044  -9.549  10.793  0.00  0.00    +0.005 A 
ATOM     30  C   UNL     1      -4.472 -11.221   9.075  0.00  0.00    +0.000 A 
ATOM     31  C   UNL     1      -3.728  -9.010   9.704  0.00  0.00    +0.000 A 
ATOM     32  C   UNL     1      -4.442  -9.846   8.845  0.00  0.00    +0.000 A 
ENDBRANCH  17  20
ENDBRANCH   6  17
TORSDOF 7
ENDMDL
MODEL 9
REMARK VINA RESULT:      -6.6      2.671      3.471
REMARK  Name = 45360796
REMARK  9 active torsions:
REMARK  status: ('A' for Active; 'I' for Inactive)
REMARK    1  A    between atoms: O_3  and  C_29
REMARK    2  A    between atoms: O_3  and  C_33
REMARK    3  A    between atoms: N_5  and  C_18
REMARK    4  A    between atoms: N_6  and  C_17
REMARK    5  A    between atoms: C_12  and  C_16
REMARK    6  A    between atoms: C_16  and  C_19
REMARK    7  A    between atoms: C_17  and  C_20
REMARK    8  A    between atoms: C_19  and  C_21
REMARK    9  A    between atoms: C_22  and  C_29
REMARK                            x       y       z     vdW  Elec       q    Type
REMARK                         _______ _______ _______ _____ _____    ______ ____
ROOT
ATOM      1  O   UNL     1      20.152   6.254  23.867  0.00  0.00    -0.274 OA
ATOM      5  N   UNL     1      17.937   6.964  20.772  0.00  0.00    -0.296 NA
ATOM      6  N   UNL     1      21.099   5.286  21.531  0.00  0.00    -0.286 NA
ATOM      7  N   UNL     1      19.345   8.197  22.967  0.00  0.00    -0.312 N 
ATOM      9  C   UNL     1      19.282   6.452  20.424  0.00  0.00    +0.084 C 
ATOM     10  C   UNL     1      20.423   6.595  21.472  0.00  0.00    +0.161 C 
ATOM     11  C   UNL     1      19.315   4.943  20.116  0.00  0.00    +0.036 C 
ATOM     12  C   UNL     1      17.875   8.436  20.988  0.00  0.00    +0.074 C 
ATOM     13  C   UNL     1      20.774   4.580  20.297  0.00  0.00    +0.087 C 
ATOM     14  C   UNL     1      19.038   9.020  21.814  0.00  0.00    +0.123 C 
ATOM     15  C   UNL     1      19.965   6.965  22.880  0.00  0.00    +0.232 C 
ATOM     18  C   UNL     1      16.944   6.554  19.764  0.00  0.00    +0.105 C 
ATOM     34  H   UNL     1      19.087   8.537  23.888  0.00  0.00    +0.149 HD
ENDROOT
BRANCH  12  16
ATOM     16  C   UNL     1      16.561   8.823  21.698  0.00  0.00    +0.029 C 
BRANCH  16  19
ATOM     19  C   UNL     1      15.845   9.957  20.991  0.00  0.00    +0.097 C 
BRANCH  19  21
ATOM      2  O   UNL     1      14.046   8.448  20.679  0.00  0.00    -0.276 OA
ATOM      8  N   UNL     1      14.202  10.201  19.163  0.00  0.00    -0.301 N 
ATOM     21  C   UNL     1      14.617   9.462  20.271  0.00  0.00    +0.216 C 
ATOM     22  C   UNL     1      13.952  10.874  16.361  0.00  0.00    +0.101 C 
ATOM     23  C   UNL     1      12.994   9.809  18.436  0.00  0.00    +0.108 C 
ATOM     24  C   UNL     1      14.860  11.412  18.654  0.00  0.00    +0.108 C 
ATOM     25  C   UNL     1      13.286   9.627  16.949  0.00  0.00    +0.033 C 
ATOM     26  C   UNL     1      15.193  11.262  17.171  0.00  0.00    +0.033 C 
BRANCH  22  29
ATOM      4  O   UNL     1      14.958   9.632  14.562  0.00  0.00    -0.251 OA
ATOM     29  C   UNL     1      14.329  10.613  14.936  0.00  0.00    +0.310 C 
BRANCH  29   3
ATOM      3  O   UNL     1      13.865  11.625  14.149  0.00  0.00    -0.468 OA
ATOM     33  C   UNL     1      14.834  12.217  13.277  0.00  0.00    +0.280 C 
ENDBRANCH  29   3
ENDBRANCH  22  29
ENDBRANCH  19  21
ENDBRANCH  16  19
ENDBRANCH  12  16
BRANCH   6  17
ATOM     17  C   UNL     1      22.537   5.387  21.742  0.00  0.00    +0.120 C 
BRANCH  17  20
ATOM     20  C   UNL     1      23.132   4.078  22.189  0.00  0.00    -0.033 A 
ATOM     27  C   UNL     1      22.461   3.290  23.125  0.00  0.00    +0.005 A 
ATOM     28  C   UNL     1      24.354   3.652  21.667  0.00  0.00    +0.005 A 
ATOM     30  C   UNL     1      23.011   2.077  23.539  0.00  0.00    +0.000 A 
ATOM     31  C   UNL     1      24.905   2.440  22.082  0.00  0.00    +0.000 A 
ATOM     32  C   UNL     1      24.233   1.652  23.018  0.00  0.00    +0.000 A 
ENDBRANCH  17  20
ENDBRANCH   6  17
TORSDOF 7
ENDMDL
MODEL 10
REMARK VINA RESULT:      -6.6     27.723     31.772
REMARK  Name = 45360796
REMARK  9 active torsions:
REMARK  status: ('A' for Active; 'I' for Inactive)
REMARK    1  A    between atoms: O_3  and  C_29
REMARK    2  A    between atoms: O_3  and  C_33
REMARK    3  A    between atoms: N_5  and  C_18
REMARK    4  A    between atoms: N_6  and  C_17
REMARK    5  A    between atoms: C_12  and  C_16
REMARK    6  A    between atoms: C_16  and  C_19
REMARK    7  A    between atoms: C_17  and  C_20
REMARK    8  A    between atoms: C_19  and  C_21
REMARK    9  A    between atoms: C_22  and  C_29
REMARK                            x       y       z     vdW  Elec       q    Type
REMARK                         _______ _______ _______ _____ _____    ______ ____
ROOT
ATOM      1  O   UNL     1      -5.593  -9.278  16.156  0.00  0.00    -0.274 OA
ATOM      5  N   UNL     1      -8.421 -10.762  18.345  0.00  0.00    -0.296 NA
ATOM      6  N   UNL     1      -5.239 -11.849  16.903  0.00  0.00    -0.286 NA
ATOM      7  N   UNL     1      -7.850  -9.473  15.828  0.00  0.00    -0.312 N 
ATOM      9  C   UNL     1      -7.477 -11.783  17.838  0.00  0.00    +0.084 C 
ATOM     10  C   UNL     1      -6.620 -11.443  16.584  0.00  0.00    +0.161 C 
ATOM     11  C   UNL     1      -6.401 -12.199  18.859  0.00  0.00    +0.036 C 
ATOM     12  C   UNL     1      -9.518 -10.414  17.399  0.00  0.00    +0.074 C 
ATOM     13  C   UNL     1      -5.316 -12.810  17.997  0.00  0.00    +0.087 C 
ATOM     14  C   UNL     1      -9.077 -10.236  15.933  0.00  0.00    +0.123 C 
ATOM     15  C   UNL     1      -6.611  -9.969  16.189  0.00  0.00    +0.232 C 
ATOM     18  C   UNL     1      -8.980 -11.166  19.647  0.00  0.00    +0.105 C 
ATOM     34  H   UNL     1      -7.898  -8.521  15.480  0.00  0.00    +0.149 HD
ENDROOT
BRANCH  12  16
ATOM     16  C   UNL     1     -10.214  -9.108  17.836  0.00  0.00    +0.029 C 
BRANCH  16  19
ATOM     19  C   UNL     1     -10.611  -8.252  16.649  0.00  0.00    +0.097 C 
BRANCH  19  21
ATOM      2  O   UNL     1     -12.824  -9.041  16.959  0.00  0.00    -0.276 OA
ATOM      8  N   UNL     1     -12.599  -6.947  15.979  0.00  0.00    -0.301 N 
ATOM     21  C   UNL     1     -12.109  -8.123  16.548  0.00  0.00    +0.216 C 
ATOM     22  C   UNL     1     -13.640  -5.239  13.890  0.00  0.00    +0.101 C 
ATOM     23  C   UNL     1     -14.043  -6.728  15.884  0.00  0.00    +0.108 C 
ATOM     24  C   UNL     1     -11.775  -5.837  15.482  0.00  0.00    +0.108 C 
ATOM     25  C   UNL     1     -14.453  -6.410  14.449  0.00  0.00    +0.033 C 
ATOM     26  C   UNL     1     -12.138  -5.501  14.037  0.00  0.00    +0.033 C 
BRANCH  22  29
ATOM      4  O   UNL     1     -14.163  -3.939  11.933  0.00  0.00    -0.251 OA
ATOM     29  C   UNL     1     -13.987  -5.036  12.447  0.00  0.00    +0.310 C 
BRANCH  29   3
ATOM      3  O   UNL     1     -14.071  -6.245  11.824  0.00  0.00    -0.468 OA
ATOM     33  C   UNL     1     -13.275  -6.383  10.643  0.00  0.00    +0.280 C 
ENDBRANCH  29   3
ENDBRANCH  22  29
ENDBRANCH  19  21
ENDBRANCH  16  19
ENDBRANCH  12  16
BRANCH   6  17
ATOM     17  C   UNL     1      -4.514 -12.382  15.756  0.00  0.00    +0.120 C 
BRANCH  17  20
ATOM     20  C   UNL     1      -3.354 -11.504  15.369  0.00  0.00    -0.033 A 
ATOM     27  C   UNL     1      -2.463 -11.056  16.344  0.00  0.00    +0.005 A 
ATOM     28  C   UNL     1      -3.169 -11.140  14.035  0.00  0.00    +0.005 A 
ATOM     30  C   UNL     1      -1.387 -10.243  15.986  0.00  0.00    +0.000 A 
ATOM     31  C   UNL     1      -2.094 -10.326  13.677  0.00  0.00    +0.000 A 
ATOM     32  C   UNL     1      -1.203  -9.878  14.653  0.00  0.00    +0.000 A 
ENDBRANCH  17  20
ENDBRANCH   6  17
TORSDOF 7
ENDMDL
