MODEL 1
REMARK VINA RESULT:      -6.2      0.000      0.000
REMARK  Name = 56775249
REMARK  3 active torsions:
REMARK  status: ('A' for Active; 'I' for Inactive)
REMARK    1  A    between atoms: N_5  and  C_13
REMARK    2  A    between atoms: C_13  and  C_15
REMARK    3  A    between atoms: C_14  and  C_16
REMARK                            x       y       z     vdW  Elec       q    Type
REMARK                         _______ _______ _______ _____ _____    ______ ____
ROOT
ATOM      1  O   UNL     1      12.721   6.689  20.164  0.00  0.00    -0.364 OA
ATOM      2  O   UNL     1      10.364   7.922  22.525  0.00  0.00    -0.273 OA
ATOM      3  O   UNL     1      14.213   8.036  15.854  0.00  0.00    -0.276 OA
ATOM      4  N   UNL     1      13.310   8.574  17.912  0.00  0.00    -0.297 N 
ATOM      5  N   UNL     1      11.866   9.117  21.212  0.00  0.00    -0.288 N 
ATOM      7  C   UNL     1      12.897   9.090  20.182  0.00  0.00    +0.124 C 
ATOM      8  C   UNL     1      13.654   7.765  20.100  0.00  0.00    +0.158 C 
ATOM      9  C   UNL     1      12.334   9.245  18.766  0.00  0.00    +0.133 C 
ATOM     10  C   UNL     1      14.259   7.798  18.702  0.00  0.00    +0.141 C 
ATOM     11  C   UNL     1      11.325   7.956  21.755  0.00  0.00    +0.242 C 
ATOM     12  C   UNL     1      12.061   6.674  21.408  0.00  0.00    +0.256 C 
ATOM     14  C   UNL     1      13.366   8.622  16.530  0.00  0.00    +0.213 C 
ATOM     16  C   UNL     1      12.307   9.463  15.865  0.00  0.00    +0.109 C 
ENDROOT
BRANCH   5  13
ATOM     13  C   UNL     1      11.298  10.418  21.541  0.00  0.00    +0.143 C 
BRANCH  13  15
ATOM      6  N   UNL     1      12.616  11.820  25.383  0.00  0.00    -0.263 NA
ATOM     15  C   UNL     1      11.758  10.907  22.884  0.00  0.00    -0.027 A 
ATOM     17  C   UNL     1      10.845  11.066  23.920  0.00  0.00    +0.025 A 
ATOM     18  C   UNL     1      13.100  11.204  23.096  0.00  0.00    +0.025 A 
ATOM     19  C   UNL     1      11.320  11.521  25.139  0.00  0.00    +0.111 A 
ATOM     20  C   UNL     1      13.475  11.653  24.352  0.00  0.00    +0.111 A 
ENDBRANCH  13  15
ENDBRANCH   5  13
TORSDOF 2
ENDMDL
MODEL 2
REMARK VINA RESULT:      -6.0      3.343      5.548
REMARK  Name = 56775249
REMARK  3 active torsions:
REMARK  status: ('A' for Active; 'I' for Inactive)
REMARK    1  A    between atoms: N_5  and  C_13
REMARK    2  A    between atoms: C_13  and  C_15
REMARK    3  A    between atoms: C_14  and  C_16
REMARK                            x       y       z     vdW  Elec       q    Type
REMARK                         _______ _______ _______ _____ _____    ______ ____
ROOT
ATOM      1  O   UNL     1      12.341   9.284  17.346  0.00  0.00    -0.364 OA
ATOM      2  O   UNL     1      12.193   6.396  19.416  0.00  0.00    -0.273 OA
ATOM      3  O   UNL     1      13.401  13.872  18.010  0.00  0.00    -0.276 OA
ATOM      4  N   UNL     1      13.631  11.660  18.635  0.00  0.00    -0.297 N 
ATOM      5  N   UNL     1      13.772   8.104  19.416  0.00  0.00    -0.288 N 
ATOM      7  C   UNL     1      14.210   9.378  18.859  0.00  0.00    +0.124 C 
ATOM      8  C   UNL     1      13.721   9.631  17.435  0.00  0.00    +0.158 C 
ATOM      9  C   UNL     1      13.662  10.586  19.624  0.00  0.00    +0.133 C 
ATOM     10  C   UNL     1      13.848  11.143  17.288  0.00  0.00    +0.141 C 
ATOM     11  C   UNL     1      12.684   7.402  18.903  0.00  0.00    +0.242 C 
ATOM     12  C   UNL     1      12.157   7.906  17.571  0.00  0.00    +0.256 C 
ATOM     14  C   UNL     1      13.416  13.004  18.883  0.00  0.00    +0.213 C 
ATOM     16  C   UNL     1      13.201  13.372  20.329  0.00  0.00    +0.109 C 
ENDROOT
BRANCH   5  13
ATOM     13  C   UNL     1      14.418   7.664  20.646  0.00  0.00    +0.143 C 
BRANCH  13  15
ATOM      6  N   UNL     1      18.431   6.299  19.949  0.00  0.00    -0.263 NA
ATOM     15  C   UNL     1      15.820   7.187  20.403  0.00  0.00    -0.027 A 
ATOM     17  C   UNL     1      16.860   7.639  21.207  0.00  0.00    +0.025 A 
ATOM     18  C   UNL     1      16.084   6.292  19.372  0.00  0.00    +0.025 A 
ATOM     19  C   UNL     1      18.137   7.169  20.941  0.00  0.00    +0.111 A 
ATOM     20  C   UNL     1      17.395   5.883  19.188  0.00  0.00    +0.111 A 
ENDBRANCH  13  15
ENDBRANCH   5  13
TORSDOF 2
ENDMDL
MODEL 3
REMARK VINA RESULT:      -5.6      3.372      4.631
REMARK  Name = 56775249
REMARK  3 active torsions:
REMARK  status: ('A' for Active; 'I' for Inactive)
REMARK    1  A    between atoms: N_5  and  C_13
REMARK    2  A    between atoms: C_13  and  C_15
REMARK    3  A    between atoms: C_14  and  C_16
REMARK                            x       y       z     vdW  Elec       q    Type
REMARK                         _______ _______ _______ _____ _____    ______ ____
ROOT
ATOM      1  O   UNL     1      12.246   8.669  16.633  0.00  0.00    -0.364 OA
ATOM      2  O   UNL     1      11.418   9.016  20.075  0.00  0.00    -0.273 OA
ATOM      3  O   UNL     1      15.281  10.794  13.653  0.00  0.00    -0.276 OA
ATOM      4  N   UNL     1      14.702  10.167  15.800  0.00  0.00    -0.297 N 
ATOM      5  N   UNL     1      13.515   9.089  19.071  0.00  0.00    -0.288 N 
ATOM      7  C   UNL     1      14.295   9.044  17.841  0.00  0.00    +0.124 C 
ATOM      8  C   UNL     1      13.616   8.280  16.706  0.00  0.00    +0.158 C 
ATOM      9  C   UNL     1      14.524  10.427  17.225  0.00  0.00    +0.133 C 
ATOM     10  C   UNL     1      14.331   8.797  15.463  0.00  0.00    +0.141 C 
ATOM     11  C   UNL     1      12.142   8.860  19.091  0.00  0.00    +0.242 C 
ATOM     12  C   UNL     1      11.560   8.297  17.806  0.00  0.00    +0.256 C 
ATOM     14  C   UNL     1      15.147  11.066  14.847  0.00  0.00    +0.213 C 
ATOM     16  C   UNL     1      15.483  12.443  15.358  0.00  0.00    +0.109 C 
ENDROOT
BRANCH   5  13
ATOM     13  C   UNL     1      14.202   9.548  20.271  0.00  0.00    +0.143 C 
BRANCH  13  15
ATOM      6  N   UNL     1      17.462   6.963  21.342  0.00  0.00    -0.263 NA
ATOM     15  C   UNL     1      15.341   8.645  20.645  0.00  0.00    -0.027 A 
ATOM     17  C   UNL     1      16.634   9.150  20.727  0.00  0.00    +0.025 A 
ATOM     18  C   UNL     1      15.108   7.301  20.911  0.00  0.00    +0.025 A 
ATOM     19  C   UNL     1      17.651   8.275  21.076  0.00  0.00    +0.111 A 
ATOM     20  C   UNL     1      16.193   6.508  21.252  0.00  0.00    +0.111 A 
ENDBRANCH  13  15
ENDBRANCH   5  13
TORSDOF 2
ENDMDL
MODEL 4
REMARK VINA RESULT:      -5.4     15.104     19.708
REMARK  Name = 56775249
REMARK  3 active torsions:
REMARK  status: ('A' for Active; 'I' for Inactive)
REMARK    1  A    between atoms: N_5  and  C_13
REMARK    2  A    between atoms: C_13  and  C_15
REMARK    3  A    between atoms: C_14  and  C_16
REMARK                            x       y       z     vdW  Elec       q    Type
REMARK                         _______ _______ _______ _____ _____    ______ ____
ROOT
ATOM      1  O   UNL     1       9.666   7.138   2.689  0.00  0.00    -0.364 OA
ATOM      2  O   UNL     1       9.779   4.658   0.142  0.00  0.00    -0.273 OA
ATOM      3  O   UNL     1      10.135   7.151   7.421  0.00  0.00    -0.276 OA
ATOM      4  N   UNL     1      10.604   6.192   5.372  0.00  0.00    -0.297 N 
ATOM      5  N   UNL     1      11.138   4.878   2.017  0.00  0.00    -0.288 N 
ATOM      7  C   UNL     1      11.443   5.610   3.239  0.00  0.00    +0.124 C 
ATOM      8  C   UNL     1      10.989   7.068   3.216  0.00  0.00    +0.158 C 
ATOM      9  C   UNL     1      10.721   5.051   4.469  0.00  0.00    +0.133 C 
ATOM     10  C   UNL     1      10.940   7.439   4.694  0.00  0.00    +0.141 C 
ATOM     11  C   UNL     1      10.167   5.305   1.116  0.00  0.00    +0.242 C 
ATOM     12  C   UNL     1       9.641   6.710   1.347  0.00  0.00    +0.256 C 
ATOM     14  C   UNL     1      10.217   6.156   6.700  0.00  0.00    +0.213 C 
ATOM     16  C   UNL     1       9.897   4.789   7.247  0.00  0.00    +0.109 C 
ENDROOT
BRANCH   5  13
ATOM     13  C   UNL     1      11.779   3.580   1.848  0.00  0.00    +0.143 C 
BRANCH  13  15
ATOM      6  N   UNL     1      15.470   3.881  -0.330  0.00  0.00    -0.263 NA
ATOM     15  C   UNL     1      13.068   3.686   1.087  0.00  0.00    -0.027 A 
ATOM     17  C   UNL     1      13.052   3.832  -0.296  0.00  0.00    +0.025 A 
ATOM     18  C   UNL     1      14.283   3.637   1.761  0.00  0.00    +0.025 A 
ATOM     19  C   UNL     1      14.270   3.924  -0.952  0.00  0.00    +0.111 A 
ATOM     20  C   UNL     1      15.445   3.738   1.014  0.00  0.00    +0.111 A 
ENDBRANCH  13  15
ENDBRANCH   5  13
TORSDOF 2
ENDMDL
MODEL 5
REMARK VINA RESULT:      -5.4     13.735     17.946
REMARK  Name = 56775249
REMARK  3 active torsions:
REMARK  status: ('A' for Active; 'I' for Inactive)
REMARK    1  A    between atoms: N_5  and  C_13
REMARK    2  A    between atoms: C_13  and  C_15
REMARK    3  A    between atoms: C_14  and  C_16
REMARK                            x       y       z     vdW  Elec       q    Type
REMARK                         _______ _______ _______ _____ _____    ______ ____
ROOT
ATOM      1  O   UNL     1      10.075   8.171   5.627  0.00  0.00    -0.364 OA
ATOM      2  O   UNL     1       9.021   7.560   2.285  0.00  0.00    -0.273 OA
ATOM      3  O   UNL     1      10.681   5.513   9.522  0.00  0.00    -0.276 OA
ATOM      4  N   UNL     1      10.618   5.693   7.220  0.00  0.00    -0.297 N 
ATOM      5  N   UNL     1      10.413   6.268   3.628  0.00  0.00    -0.288 N 
ATOM      7  C   UNL     1      11.048   6.082   4.927  0.00  0.00    +0.124 C 
ATOM      8  C   UNL     1      11.260   7.381   5.703  0.00  0.00    +0.158 C 
ATOM      9  C   UNL     1      10.202   5.248   5.893  0.00  0.00    +0.133 C 
ATOM     10  C   UNL     1      11.429   6.903   7.140  0.00  0.00    +0.141 C 
ATOM     11  C   UNL     1       9.685   7.411   3.312  0.00  0.00    +0.242 C 
ATOM     12  C   UNL     1       9.820   8.559   4.297  0.00  0.00    +0.256 C 
ATOM     14  C   UNL     1      10.303   5.095   8.427  0.00  0.00    +0.213 C 
ATOM     16  C   UNL     1       9.449   3.856   8.336  0.00  0.00    +0.109 C 
ENDROOT
BRANCH   5  13
ATOM     13  C   UNL     1      10.430   5.131   2.717  0.00  0.00    +0.143 C 
BRANCH  13  15
ATOM      6  N   UNL     1      14.399   4.252   1.325  0.00  0.00    -0.263 NA
ATOM     15  C   UNL     1      11.817   4.823   2.230  0.00  0.00    -0.027 A 
ATOM     17  C   UNL     1      12.210   3.505   2.031  0.00  0.00    +0.025 A 
ATOM     18  C   UNL     1      12.712   5.856   1.977  0.00  0.00    +0.025 A 
ATOM     19  C   UNL     1      13.500   3.274   1.581  0.00  0.00    +0.111 A 
ATOM     20  C   UNL     1      13.981   5.520   1.530  0.00  0.00    +0.111 A 
ENDBRANCH  13  15
ENDBRANCH   5  13
TORSDOF 2
ENDMDL
MODEL 6
REMARK VINA RESULT:      -5.3     26.154     28.295
REMARK  Name = 56775249
REMARK  3 active torsions:
REMARK  status: ('A' for Active; 'I' for Inactive)
REMARK    1  A    between atoms: N_5  and  C_13
REMARK    2  A    between atoms: C_13  and  C_15
REMARK    3  A    between atoms: C_14  and  C_16
REMARK                            x       y       z     vdW  Elec       q    Type
REMARK                         _______ _______ _______ _____ _____    ______ ____
ROOT
ATOM      1  O   UNL     1      -7.834 -12.063  18.592  0.00  0.00    -0.364 OA
ATOM      2  O   UNL     1      -4.363 -11.493  19.116  0.00  0.00    -0.273 OA
ATOM      3  O   UNL     1     -11.465  -9.502  16.900  0.00  0.00    -0.276 OA
ATOM      4  N   UNL     1      -9.199  -9.947  16.971  0.00  0.00    -0.297 N 
ATOM      5  N   UNL     1      -5.686 -10.845  17.316  0.00  0.00    -0.288 N 
ATOM      7  C   UNL     1      -7.011 -10.805  16.711  0.00  0.00    +0.124 C 
ATOM      8  C   UNL     1      -7.937 -11.928  17.176  0.00  0.00    +0.158 C 
ATOM      9  C   UNL     1      -7.800  -9.545  17.079  0.00  0.00    +0.133 C 
ATOM     10  C   UNL     1      -9.325 -11.394  16.842  0.00  0.00    +0.141 C 
ATOM     11  C   UNL     1      -5.426 -11.537  18.495  0.00  0.00    +0.242 C 
ATOM     12  C   UNL     1      -6.535 -12.463  18.962  0.00  0.00    +0.256 C 
ATOM     14  C   UNL     1     -10.301  -9.110  16.996  0.00  0.00    +0.213 C 
ATOM     16  C   UNL     1     -10.000  -7.641  17.142  0.00  0.00    +0.109 C 
ENDROOT
BRANCH   5  13
ATOM     13  C   UNL     1      -4.665  -9.991  16.724  0.00  0.00    +0.143 C 
BRANCH  13  15
ATOM      6  N   UNL     1      -1.776 -12.253  14.489  0.00  0.00    -0.263 NA
ATOM     15  C   UNL     1      -3.655 -10.781  15.944  0.00  0.00    -0.027 A 
ATOM     17  C   UNL     1      -2.299 -10.505  16.076  0.00  0.00    +0.025 A 
ATOM     18  C   UNL     1      -4.073 -11.792  15.085  0.00  0.00    +0.025 A 
ATOM     19  C   UNL     1      -1.408 -11.263  15.333  0.00  0.00    +0.111 A 
ATOM     20  C   UNL     1      -3.102 -12.492  14.386  0.00  0.00    +0.111 A 
ENDBRANCH  13  15
ENDBRANCH   5  13
TORSDOF 2
ENDMDL
MODEL 7
REMARK VINA RESULT:      -5.2     28.324     30.366
REMARK  Name = 56775249
REMARK  3 active torsions:
REMARK  status: ('A' for Active; 'I' for Inactive)
REMARK    1  A    between atoms: N_5  and  C_13
REMARK    2  A    between atoms: C_13  and  C_15
REMARK    3  A    between atoms: C_14  and  C_16
REMARK                            x       y       z     vdW  Elec       q    Type
REMARK                         _______ _______ _______ _____ _____    ______ ____
ROOT
ATOM      1  O   UNL     1     -16.395   5.710  33.607  0.00  0.00    -0.364 OA
ATOM      2  O   UNL     1     -15.335   2.315  33.575  0.00  0.00    -0.273 OA
ATOM      3  O   UNL     1     -14.303   9.914  32.859  0.00  0.00    -0.276 OA
ATOM      4  N   UNL     1     -14.394   7.636  32.486  0.00  0.00    -0.297 N 
ATOM      5  N   UNL     1     -14.758   4.031  32.114  0.00  0.00    -0.288 N 
ATOM      7  C   UNL     1     -14.877   5.439  31.758  0.00  0.00    +0.124 C 
ATOM      8  C   UNL     1     -16.164   6.095  32.253  0.00  0.00    +0.158 C 
ATOM      9  C   UNL     1     -13.789   6.311  32.390  0.00  0.00    +0.133 C 
ATOM     10  C   UNL     1     -15.828   7.582  32.226  0.00  0.00    +0.141 C 
ATOM     11  C   UNL     1     -15.494   3.459  33.148  0.00  0.00    +0.242 C 
ATOM     12  C   UNL     1     -16.616   4.322  33.699  0.00  0.00    +0.256 C 
ATOM     14  C   UNL     1     -13.744   8.818  32.792  0.00  0.00    +0.213 C 
ATOM     16  C   UNL     1     -12.262   8.701  33.041  0.00  0.00    +0.109 C 
ENDROOT
BRANCH   5  13
ATOM     13  C   UNL     1     -13.710   3.268  31.448  0.00  0.00    +0.143 C 
BRANCH  13  15
ATOM      6  N   UNL     1     -15.324   0.203  28.906  0.00  0.00    -0.263 NA
ATOM     15  C   UNL     1     -14.274   2.197  30.561  0.00  0.00    -0.027 A 
ATOM     17  C   UNL     1     -13.831   0.884  30.682  0.00  0.00    +0.025 A 
ATOM     18  C   UNL     1     -15.241   2.513  29.613  0.00  0.00    +0.025 A 
ATOM     19  C   UNL     1     -14.383  -0.067  29.839  0.00  0.00    +0.111 A 
ATOM     20  C   UNL     1     -15.730   1.489  28.817  0.00  0.00    +0.111 A 
ENDBRANCH  13  15
ENDBRANCH   5  13
TORSDOF 2
ENDMDL
MODEL 8
REMARK VINA RESULT:      -5.2     28.851     30.469
REMARK  Name = 56775249
REMARK  3 active torsions:
REMARK  status: ('A' for Active; 'I' for Inactive)
REMARK    1  A    between atoms: N_5  and  C_13
REMARK    2  A    between atoms: C_13  and  C_15
REMARK    3  A    between atoms: C_14  and  C_16
REMARK                            x       y       z     vdW  Elec       q    Type
REMARK                         _______ _______ _______ _____ _____    ______ ____
ROOT
ATOM      1  O   UNL     1     -15.975   7.242  33.070  0.00  0.00    -0.364 OA
ATOM      2  O   UNL     1     -17.285   3.948  33.365  0.00  0.00    -0.273 OA
ATOM      3  O   UNL     1     -12.393   9.649  35.066  0.00  0.00    -0.276 OA
ATOM      4  N   UNL     1     -13.328   7.639  34.413  0.00  0.00    -0.297 N 
ATOM      5  N   UNL     1     -15.061   4.628  33.319  0.00  0.00    -0.288 N 
ATOM      7  C   UNL     1     -14.110   5.731  33.257  0.00  0.00    +0.124 C 
ATOM      8  C   UNL     1     -14.660   6.985  32.581  0.00  0.00    +0.158 C 
ATOM      9  C   UNL     1     -13.700   6.246  34.640  0.00  0.00    +0.133 C 
ATOM     10  C   UNL     1     -13.734   8.085  33.085  0.00  0.00    +0.141 C 
ATOM     11  C   UNL     1     -16.433   4.820  33.189  0.00  0.00    +0.242 C 
ATOM     12  C   UNL     1     -16.853   6.200  32.711  0.00  0.00    +0.256 C 
ATOM     14  C   UNL     1     -12.686   8.477  35.308  0.00  0.00    +0.213 C 
ATOM     16  C   UNL     1     -12.340   7.864  36.640  0.00  0.00    +0.109 C 
ENDROOT
BRANCH   5  13
ATOM     13  C   UNL     1     -14.533   3.321  33.689  0.00  0.00    +0.143 C 
BRANCH  13  15
ATOM      6  N   UNL     1     -14.126   0.732  30.285  0.00  0.00    -0.263 NA
ATOM     15  C   UNL     1     -14.391   2.417  32.500  0.00  0.00    -0.027 A 
ATOM     17  C   UNL     1     -14.896   1.122  32.544  0.00  0.00    +0.025 A 
ATOM     18  C   UNL     1     -13.755   2.870  31.350  0.00  0.00    +0.025 A 
ATOM     19  C   UNL     1     -14.739   0.326  31.420  0.00  0.00    +0.111 A 
ATOM     20  C   UNL     1     -13.648   1.996  30.279  0.00  0.00    +0.111 A 
ENDBRANCH  13  15
ENDBRANCH   5  13
TORSDOF 2
ENDMDL
MODEL 9
REMARK VINA RESULT:      -5.1     26.052     28.264
REMARK  Name = 56775249
REMARK  3 active torsions:
REMARK  status: ('A' for Active; 'I' for Inactive)
REMARK    1  A    between atoms: N_5  and  C_13
REMARK    2  A    between atoms: C_13  and  C_15
REMARK    3  A    between atoms: C_14  and  C_16
REMARK                            x       y       z     vdW  Elec       q    Type
REMARK                         _______ _______ _______ _____ _____    ______ ____
ROOT
ATOM      1  O   UNL     1      -8.379  -9.909  15.559  0.00  0.00    -0.364 OA
ATOM      2  O   UNL     1      -6.543 -11.518  12.972  0.00  0.00    -0.273 OA
ATOM      3  O   UNL     1      -9.239 -10.794  20.151  0.00  0.00    -0.276 OA
ATOM      4  N   UNL     1      -7.878 -11.015  18.297  0.00  0.00    -0.297 N 
ATOM      5  N   UNL     1      -5.962 -11.235  15.207  0.00  0.00    -0.288 N 
ATOM      7  C   UNL     1      -6.337 -10.739  16.525  0.00  0.00    +0.124 C 
ATOM      8  C   UNL     1      -7.347  -9.594  16.491  0.00  0.00    +0.158 C 
ATOM      9  C   UNL     1      -7.049 -11.792  17.380  0.00  0.00    +0.133 C 
ATOM     10  C   UNL     1      -7.941  -9.614  17.894  0.00  0.00    +0.141 C 
ATOM     11  C   UNL     1      -6.744 -11.012  14.077  0.00  0.00    +0.242 C 
ATOM     12  C   UNL     1      -7.861  -9.998  14.252  0.00  0.00    +0.256 C 
ATOM     14  C   UNL     1      -8.550 -11.494  19.407  0.00  0.00    +0.213 C 
ATOM     16  C   UNL     1      -8.387 -12.967  19.681  0.00  0.00    +0.109 C 
ENDROOT
BRANCH   5  13
ATOM     13  C   UNL     1      -4.808 -12.122  15.139  0.00  0.00    +0.143 C 
BRANCH  13  15
ATOM      6  N   UNL     1      -1.116  -9.939  14.895  0.00  0.00    -0.263 NA
ATOM     15  C   UNL     1      -3.518 -11.360  15.054  0.00  0.00    -0.027 A 
ATOM     17  C   UNL     1      -2.767 -11.128  16.201  0.00  0.00    +0.025 A 
ATOM     18  C   UNL     1      -3.070 -10.882  13.828  0.00  0.00    +0.025 A 
ATOM     19  C   UNL     1      -1.584 -10.419  16.069  0.00  0.00    +0.111 A 
ATOM     20  C   UNL     1      -1.873 -10.183  13.802  0.00  0.00    +0.111 A 
ENDBRANCH  13  15
ENDBRANCH   5  13
TORSDOF 2
ENDMDL
MODEL 10
REMARK VINA RESULT:      -5.1     26.584     28.397
REMARK  Name = 56775249
REMARK  3 active torsions:
REMARK  status: ('A' for Active; 'I' for Inactive)
REMARK    1  A    between atoms: N_5  and  C_13
REMARK    2  A    between atoms: C_13  and  C_15
REMARK    3  A    between atoms: C_14  and  C_16
REMARK                            x       y       z     vdW  Elec       q    Type
REMARK                         _______ _______ _______ _____ _____    ______ ____
ROOT
ATOM      1  O   UNL     1      -6.532 -10.455  14.447  0.00  0.00    -0.364 OA
ATOM      2  O   UNL     1      -8.526  -8.757  16.854  0.00  0.00    -0.273 OA
ATOM      3  O   UNL     1      -2.042 -12.009  14.264  0.00  0.00    -0.276 OA
ATOM      4  N   UNL     1      -3.913 -11.454  15.501  0.00  0.00    -0.297 N 
ATOM      5  N   UNL     1      -6.987 -10.468  17.189  0.00  0.00    -0.288 N 
ATOM      7  C   UNL     1      -6.000 -11.371  16.609  0.00  0.00    +0.124 C 
ATOM      8  C   UNL     1      -6.232 -11.670  15.129  0.00  0.00    +0.158 C 
ATOM      9  C   UNL     1      -4.582 -10.793  16.618  0.00  0.00    +0.133 C 
ATOM     10  C   UNL     1      -4.869 -12.163  14.658  0.00  0.00    +0.141 C 
ATOM     11  C   UNL     1      -7.778  -9.629  16.410  0.00  0.00    +0.242 C 
ATOM     12  C   UNL     1      -7.741  -9.905  14.917  0.00  0.00    +0.256 C 
ATOM     14  C   UNL     1      -2.558 -11.432  15.222  0.00  0.00    +0.213 C 
ATOM     16  C   UNL     1      -1.708 -10.647  16.188  0.00  0.00    +0.109 C 
ENDROOT
BRANCH   5  13
ATOM     13  C   UNL     1      -7.003 -10.356  18.642  0.00  0.00    +0.143 C 
BRANCH  13  15
ATOM      6  N   UNL     1      -9.872 -13.011  20.425  0.00  0.00    -0.263 NA
ATOM     15  C   UNL     1      -8.005 -11.284  19.265  0.00  0.00    -0.027 A 
ATOM     17  C   UNL     1      -7.644 -12.587  19.587  0.00  0.00    +0.025 A 
ATOM     18  C   UNL     1      -9.299 -10.843  19.522  0.00  0.00    +0.025 A 
ATOM     19  C   UNL     1      -8.606 -13.404  20.160  0.00  0.00    +0.111 A 
ATOM     20  C   UNL     1     -10.187 -11.738  20.097  0.00  0.00    +0.111 A 
ENDBRANCH  13  15
ENDBRANCH   5  13
TORSDOF 2
ENDMDL
