MODEL 1
REMARK VINA RESULT:      -7.9      0.000      0.000
REMARK  Name = 11884624
REMARK  9 active torsions:
REMARK  status: ('A' for Active; 'I' for Inactive)
REMARK    1  A    between atoms: O_3  and  C_11
REMARK    2  A    between atoms: O_3  and  C_16
REMARK    3  A    between atoms: O_5  and  C_30
REMARK    4  A    between atoms: O_5  and  C_34
REMARK    5  A    between atoms: N_6  and  C_10
REMARK    6  A    between atoms: N_6  and  C_14
REMARK    7  A    between atoms: N_7  and  C_22
REMARK    8  A    between atoms: C_14  and  C_15
REMARK    9  A    between atoms: C_21  and  C_23
REMARK                            x       y       z     vdW  Elec       q    Type
REMARK                         _______ _______ _______ _____ _____    ______ ____
ROOT
ATOM      1  O   UNL     1     -16.708   4.957  25.190  0.00  0.00    -0.369 OA
ATOM      2  O   UNL     1     -16.835   2.029  24.327  0.00  0.00    -0.369 OA
ATOM      8  C   UNL     1     -15.881   2.738  25.146  0.00  0.00    +0.170 C 
ATOM      9  C   UNL     1     -15.730   4.121  24.545  0.00  0.00    +0.191 C 
ATOM     10  C   UNL     1     -16.466   2.994  26.519  0.00  0.00    +0.111 C 
ATOM     11  C   UNL     1     -16.071   3.884  23.094  0.00  0.00    +0.235 C 
ATOM     12  C   UNL     1     -17.319   4.230  26.266  0.00  0.00    +0.181 C 
ATOM     13  C   UNL     1     -17.161   2.840  23.188  0.00  0.00    +0.207 C 
ENDROOT
BRANCH  10   6
ATOM      6  N   UNL     1     -15.426   3.299  27.499  0.00  0.00    -0.305 NA
ATOM     35  H   UNL     1     -15.419   4.302  27.684  0.00  0.00    +0.123 HD
BRANCH   6  14
ATOM     14  C   UNL     1     -15.676   2.603  28.752  0.00  0.00    +0.116 C 
BRANCH  14  15
ATOM     15  C   UNL     1     -15.238   3.414  29.941  0.00  0.00    -0.034 A 
ATOM     17  C   UNL     1     -14.275   2.908  30.814  0.00  0.00    +0.005 A 
ATOM     18  C   UNL     1     -15.795   4.672  30.172  0.00  0.00    +0.005 A 
ATOM     19  C   UNL     1     -13.869   3.658  31.917  0.00  0.00    +0.009 A 
ATOM     20  C   UNL     1     -15.389   5.424  31.275  0.00  0.00    +0.009 A 
ATOM     21  C   UNL     1     -14.425   4.917  32.147  0.00  0.00    -0.018 A 
BRANCH  21  23
ATOM     23  C   UNL     1     -14.005   5.697  33.291  0.00  0.00    -0.018 A 
ATOM     26  C   UNL     1     -13.550   7.003  33.114  0.00  0.00    +0.008 A 
ATOM     27  C   UNL     1     -14.052   5.142  34.569  0.00  0.00    +0.008 A 
ATOM     31  C   UNL     1     -13.144   7.756  34.217  0.00  0.00    +0.001 A 
ATOM     32  C   UNL     1     -13.645   5.894  35.672  0.00  0.00    +0.001 A 
ATOM     33  C   UNL     1     -13.191   7.201  35.495  0.00  0.00    +0.000 A 
ENDBRANCH  21  23
ENDBRANCH  14  15
ENDBRANCH   6  14
ENDBRANCH  10   6
BRANCH  11   3
ATOM      3  O   UNL     1     -16.504   5.044  22.421  0.00  0.00    -0.442 OA
BRANCH   3  16
ATOM      4  O   UNL     1     -16.020   4.979  20.187  0.00  0.00    -0.226 OA
ATOM      7  N   UNL     1     -14.822   6.342  21.665  0.00  0.00    -0.251 N 
ATOM     16  C   UNL     1     -15.788   5.424  21.305  0.00  0.00    +0.405 C 
ATOM     36  H   UNL     1     -14.783   6.591  22.652  0.00  0.00    +0.158 HD
BRANCH   7  22
ATOM     22  C   UNL     1     -13.876   6.983  20.833  0.00  0.00    +0.037 A 
ATOM     24  C   UNL     1     -14.301   7.908  19.878  0.00  0.00    +0.027 A 
ATOM     25  C   UNL     1     -12.519   6.691  20.965  0.00  0.00    +0.027 A 
ATOM     28  C   UNL     1     -13.367   8.540  19.057  0.00  0.00    +0.047 A 
ATOM     29  C   UNL     1     -11.586   7.323  20.144  0.00  0.00    +0.047 A 
ATOM     30  C   UNL     1     -12.011   8.248  19.189  0.00  0.00    +0.120 A 
BRANCH  30   5
ATOM      5  O   UNL     1     -11.100   8.864  18.387  0.00  0.00    -0.495 OA
ATOM     34  C   UNL     1     -10.066   9.608  19.030  0.00  0.00    +0.277 C 
ENDBRANCH  30   5
ENDBRANCH   7  22
ENDBRANCH   3  16
ENDBRANCH  11   3
TORSDOF 8
ENDMDL
MODEL 2
REMARK VINA RESULT:      -7.6     17.337     20.584
REMARK  Name = 11884624
REMARK  9 active torsions:
REMARK  status: ('A' for Active; 'I' for Inactive)
REMARK    1  A    between atoms: O_3  and  C_11
REMARK    2  A    between atoms: O_3  and  C_16
REMARK    3  A    between atoms: O_5  and  C_30
REMARK    4  A    between atoms: O_5  and  C_34
REMARK    5  A    between atoms: N_6  and  C_10
REMARK    6  A    between atoms: N_6  and  C_14
REMARK    7  A    between atoms: N_7  and  C_22
REMARK    8  A    between atoms: C_14  and  C_15
REMARK    9  A    between atoms: C_21  and  C_23
REMARK                            x       y       z     vdW  Elec       q    Type
REMARK                         _______ _______ _______ _____ _____    ______ ____
ROOT
ATOM      1  O   UNL     1      -6.859  -9.743  17.944  0.00  0.00    -0.369 OA
ATOM      2  O   UNL     1      -8.523 -12.305  17.976  0.00  0.00    -0.369 OA
ATOM      8  C   UNL     1      -8.768 -11.005  18.554  0.00  0.00    +0.170 C 
ATOM      9  C   UNL     1      -7.431 -10.482  19.038  0.00  0.00    +0.191 C 
ATOM     10  C   UNL     1      -9.178 -10.027  17.474  0.00  0.00    +0.111 C 
ATOM     11  C   UNL     1      -6.664 -11.754  19.312  0.00  0.00    +0.235 C 
ATOM     12  C   UNL     1      -7.829  -9.625  16.893  0.00  0.00    +0.181 C 
ATOM     13  C   UNL     1      -7.154 -12.665  18.209  0.00  0.00    +0.207 C 
ENDROOT
BRANCH  10   6
ATOM      6  N   UNL     1      -9.846  -8.855  18.035  0.00  0.00    -0.305 NA
ATOM     35  H   UNL     1      -9.495  -8.013  17.579  0.00  0.00    +0.123 HD
BRANCH   6  14
ATOM     14  C   UNL     1     -11.284  -8.927  17.819  0.00  0.00    +0.116 C 
BRANCH  14  15
ATOM     15  C   UNL     1     -11.745  -7.942  16.779  0.00  0.00    -0.034 A 
ATOM     17  C   UNL     1     -12.891  -8.205  16.029  0.00  0.00    +0.005 A 
ATOM     18  C   UNL     1     -11.028  -6.764  16.566  0.00  0.00    +0.005 A 
ATOM     19  C   UNL     1     -13.319  -7.293  15.065  0.00  0.00    +0.009 A 
ATOM     20  C   UNL     1     -11.456  -5.851  15.602  0.00  0.00    +0.009 A 
ATOM     21  C   UNL     1     -12.602  -6.116  14.852  0.00  0.00    -0.018 A 
BRANCH  21  23
ATOM     23  C   UNL     1     -13.045  -5.169  13.852  0.00  0.00    -0.018 A 
ATOM     26  C   UNL     1     -14.408  -4.976  13.630  0.00  0.00    +0.008 A 
ATOM     27  C   UNL     1     -12.109  -4.449  13.110  0.00  0.00    +0.008 A 
ATOM     31  C   UNL     1     -14.836  -4.062  12.666  0.00  0.00    +0.001 A 
ATOM     32  C   UNL     1     -12.537  -3.536  12.145  0.00  0.00    +0.001 A 
ATOM     33  C   UNL     1     -13.900  -3.343  11.924  0.00  0.00    +0.000 A 
ENDBRANCH  21  23
ENDBRANCH  14  15
ENDBRANCH   6  14
ENDBRANCH  10   6
BRANCH  11   3
ATOM      3  O   UNL     1      -5.265 -11.586  19.280  0.00  0.00    -0.442 OA
BRANCH   3  16
ATOM      4  O   UNL     1      -4.364 -13.110  17.833  0.00  0.00    -0.226 OA
ATOM      7  N   UNL     1      -4.332 -10.814  17.377  0.00  0.00    -0.251 N 
ATOM     16  C   UNL     1      -4.618 -11.945  18.115  0.00  0.00    +0.405 C 
ATOM     36  H   UNL     1      -4.626  -9.927  17.780  0.00  0.00    +0.158 HD
BRANCH   7  22
ATOM     22  C   UNL     1      -3.680 -10.734  16.125  0.00  0.00    +0.037 A 
ATOM     24  C   UNL     1      -4.426 -10.776  14.946  0.00  0.00    +0.027 A 
ATOM     25  C   UNL     1      -2.292 -10.615  16.068  0.00  0.00    +0.027 A 
ATOM     28  C   UNL     1      -3.782 -10.698  13.712  0.00  0.00    +0.047 A 
ATOM     29  C   UNL     1      -1.649 -10.535  14.833  0.00  0.00    +0.047 A 
ATOM     30  C   UNL     1      -2.394 -10.578  13.655  0.00  0.00    +0.120 A 
BRANCH  30   5
ATOM      5  O   UNL     1      -1.766 -10.502  12.450  0.00  0.00    -0.495 OA
ATOM     34  C   UNL     1      -2.550 -10.080  11.334  0.00  0.00    +0.277 C 
ENDBRANCH  30   5
ENDBRANCH   7  22
ENDBRANCH   3  16
ENDBRANCH  11   3
TORSDOF 8
ENDMDL
MODEL 3
REMARK VINA RESULT:      -7.5     17.833     20.765
REMARK  Name = 11884624
REMARK  9 active torsions:
REMARK  status: ('A' for Active; 'I' for Inactive)
REMARK    1  A    between atoms: O_3  and  C_11
REMARK    2  A    between atoms: O_3  and  C_16
REMARK    3  A    between atoms: O_5  and  C_30
REMARK    4  A    between atoms: O_5  and  C_34
REMARK    5  A    between atoms: N_6  and  C_10
REMARK    6  A    between atoms: N_6  and  C_14
REMARK    7  A    between atoms: N_7  and  C_22
REMARK    8  A    between atoms: C_14  and  C_15
REMARK    9  A    between atoms: C_21  and  C_23
REMARK                            x       y       z     vdW  Elec       q    Type
REMARK                         _______ _______ _______ _____ _____    ______ ____
ROOT
ATOM      1  O   UNL     1      -6.853 -11.355  16.980  0.00  0.00    -0.369 OA
ATOM      2  O   UNL     1      -6.355 -11.261  19.993  0.00  0.00    -0.369 OA
ATOM      8  C   UNL     1      -6.815 -10.248  19.073  0.00  0.00    +0.170 C 
ATOM      9  C   UNL     1      -6.059 -10.458  17.777  0.00  0.00    +0.191 C 
ATOM     10  C   UNL     1      -8.261 -10.502  18.703  0.00  0.00    +0.111 C 
ATOM     11  C   UNL     1      -4.783 -11.112  18.247  0.00  0.00    +0.235 C 
ATOM     12  C   UNL     1      -8.121 -11.563  17.620  0.00  0.00    +0.181 C 
ATOM     13  C   UNL     1      -5.269 -11.977  19.388  0.00  0.00    +0.207 C 
ENDROOT
BRANCH  10   6
ATOM      6  N   UNL     1      -8.892  -9.306  18.149  0.00  0.00    -0.305 NA
ATOM     35  H   UNL     1      -8.586  -9.178  17.184  0.00  0.00    +0.123 HD
BRANCH   6  14
ATOM     14  C   UNL     1     -10.341  -9.435  18.158  0.00  0.00    +0.116 C 
BRANCH  14  15
ATOM     15  C   UNL     1     -10.995  -8.488  17.188  0.00  0.00    -0.034 A 
ATOM     17  C   UNL     1     -10.254  -7.457  16.613  0.00  0.00    +0.005 A 
ATOM     18  C   UNL     1     -12.343  -8.642  16.864  0.00  0.00    +0.005 A 
ATOM     19  C   UNL     1     -10.859  -6.578  15.715  0.00  0.00    +0.009 A 
ATOM     20  C   UNL     1     -12.950  -7.764  15.965  0.00  0.00    +0.009 A 
ATOM     21  C   UNL     1     -12.207  -6.732  15.391  0.00  0.00    -0.018 A 
BRANCH  21  23
ATOM     23  C   UNL     1     -12.836  -5.822  14.459  0.00  0.00    -0.018 A 
ATOM     26  C   UNL     1     -12.055  -4.952  13.699  0.00  0.00    +0.008 A 
ATOM     27  C   UNL     1     -14.224  -5.814  14.321  0.00  0.00    +0.008 A 
ATOM     31  C   UNL     1     -12.661  -4.073  12.800  0.00  0.00    +0.001 A 
ATOM     32  C   UNL     1     -14.831  -4.935  13.423  0.00  0.00    +0.001 A 
ATOM     33  C   UNL     1     -14.049  -4.065  12.663  0.00  0.00    +0.000 A 
ENDBRANCH  21  23
ENDBRANCH  14  15
ENDBRANCH   6  14
ENDBRANCH  10   6
BRANCH  11   3
ATOM      3  O   UNL     1      -4.135 -11.867  17.247  0.00  0.00    -0.442 OA
BRANCH   3  16
ATOM      4  O   UNL     1      -2.607 -10.404  16.378  0.00  0.00    -0.226 OA
ATOM      7  N   UNL     1      -4.200 -11.463  15.029  0.00  0.00    -0.251 N 
ATOM     16  C   UNL     1      -3.554 -11.164  16.212  0.00  0.00    +0.405 C 
ATOM     36  H   UNL     1      -4.972 -12.124  15.093  0.00  0.00    +0.158 HD
BRANCH   7  22
ATOM     22  C   UNL     1      -3.924 -10.963  13.736  0.00  0.00    +0.037 A 
ATOM     24  C   UNL     1      -2.642 -11.089  13.199  0.00  0.00    +0.027 A 
ATOM     25  C   UNL     1      -4.932 -10.343  12.997  0.00  0.00    +0.027 A 
ATOM     28  C   UNL     1      -2.369 -10.596  11.924  0.00  0.00    +0.047 A 
ATOM     29  C   UNL     1      -4.658  -9.851  11.722  0.00  0.00    +0.047 A 
ATOM     30  C   UNL     1      -3.377  -9.977  11.185  0.00  0.00    +0.120 A 
BRANCH  30   5
ATOM      5  O   UNL     1      -3.110  -9.495   9.940  0.00  0.00    -0.495 OA
ATOM     34  C   UNL     1      -4.178  -8.841   9.254  0.00  0.00    +0.277 C 
ENDBRANCH  30   5
ENDBRANCH   7  22
ENDBRANCH   3  16
ENDBRANCH  11   3
TORSDOF 8
ENDMDL
MODEL 4
REMARK VINA RESULT:      -7.5     19.965     24.619
REMARK  Name = 11884624
REMARK  9 active torsions:
REMARK  status: ('A' for Active; 'I' for Inactive)
REMARK    1  A    between atoms: O_3  and  C_11
REMARK    2  A    between atoms: O_3  and  C_16
REMARK    3  A    between atoms: O_5  and  C_30
REMARK    4  A    between atoms: O_5  and  C_34
REMARK    5  A    between atoms: N_6  and  C_10
REMARK    6  A    between atoms: N_6  and  C_14
REMARK    7  A    between atoms: N_7  and  C_22
REMARK    8  A    between atoms: C_14  and  C_15
REMARK    9  A    between atoms: C_21  and  C_23
REMARK                            x       y       z     vdW  Elec       q    Type
REMARK                         _______ _______ _______ _____ _____    ______ ____
ROOT
ATOM      1  O   UNL     1      -3.135 -10.399  16.706  0.00  0.00    -0.369 OA
ATOM      2  O   UNL     1      -4.400 -12.959  15.622  0.00  0.00    -0.369 OA
ATOM      8  C   UNL     1      -4.292 -11.637  15.052  0.00  0.00    +0.170 C 
ATOM      9  C   UNL     1      -4.455 -10.654  16.194  0.00  0.00    +0.191 C 
ATOM     10  C   UNL     1      -2.881 -11.400  14.559  0.00  0.00    +0.111 C 
ATOM     11  C   UNL     1      -5.293 -11.435  17.178  0.00  0.00    +0.235 C 
ATOM     12  C   UNL     1      -2.164 -11.013  15.845  0.00  0.00    +0.181 C 
ATOM     13  C   UNL     1      -4.762 -12.840  17.005  0.00  0.00    +0.207 C 
ENDROOT
BRANCH  10   6
ATOM      6  N   UNL     1      -2.823 -10.294  13.605  0.00  0.00    -0.305 NA
ATOM     35  H   UNL     1      -2.374  -9.491  14.045  0.00  0.00    +0.123 HD
BRANCH   6  14
ATOM     14  C   UNL     1      -2.051 -10.665  12.429  0.00  0.00    +0.116 C 
BRANCH  14  15
ATOM     15  C   UNL     1      -2.870 -10.581  11.170  0.00  0.00    -0.034 A 
ATOM     17  C   UNL     1      -3.003  -9.363  10.503  0.00  0.00    +0.005 A 
ATOM     18  C   UNL     1      -3.498 -11.722  10.668  0.00  0.00    +0.005 A 
ATOM     19  C   UNL     1      -3.762  -9.285   9.337  0.00  0.00    +0.009 A 
ATOM     20  C   UNL     1      -4.258 -11.644   9.501  0.00  0.00    +0.009 A 
ATOM     21  C   UNL     1      -4.389 -10.425   8.835  0.00  0.00    -0.018 A 
BRANCH  21  23
ATOM     23  C   UNL     1      -5.178 -10.346   7.624  0.00  0.00    -0.018 A 
ATOM     26  C   UNL     1      -6.231  -9.436   7.537  0.00  0.00    +0.008 A 
ATOM     27  C   UNL     1      -4.885 -11.180   6.546  0.00  0.00    +0.008 A 
ATOM     31  C   UNL     1      -6.992  -9.359   6.370  0.00  0.00    +0.001 A 
ATOM     32  C   UNL     1      -5.646 -11.103   5.378  0.00  0.00    +0.001 A 
ATOM     33  C   UNL     1      -6.699 -10.193   5.291  0.00  0.00    +0.000 A 
ENDBRANCH  21  23
ENDBRANCH  14  15
ENDBRANCH   6  14
ENDBRANCH  10   6
BRANCH  11   3
ATOM      3  O   UNL     1      -5.170 -10.980  18.507  0.00  0.00    -0.442 OA
BRANCH   3  16
ATOM      4  O   UNL     1      -6.363 -10.430  20.378  0.00  0.00    -0.226 OA
ATOM      7  N   UNL     1      -7.409 -10.797  18.317  0.00  0.00    -0.251 N 
ATOM     16  C   UNL     1      -6.339 -10.706  19.185  0.00  0.00    +0.405 C 
ATOM     36  H   UNL     1      -7.188 -11.040  17.353  0.00  0.00    +0.158 HD
BRANCH   7  22
ATOM     22  C   UNL     1      -8.779 -10.593  18.600  0.00  0.00    +0.037 A 
ATOM     24  C   UNL     1      -9.408 -11.355  19.585  0.00  0.00    +0.027 A 
ATOM     25  C   UNL     1      -9.502  -9.633  17.893  0.00  0.00    +0.027 A 
ATOM     28  C   UNL     1     -10.760 -11.154  19.863  0.00  0.00    +0.047 A 
ATOM     29  C   UNL     1     -10.854  -9.432  18.172  0.00  0.00    +0.047 A 
ATOM     30  C   UNL     1     -11.483 -10.194  19.157  0.00  0.00    +0.120 A 
BRANCH  30   5
ATOM      5  O   UNL     1     -12.802  -9.999  19.429  0.00  0.00    -0.495 OA
ATOM     34  C   UNL     1     -13.139  -9.580  20.751  0.00  0.00    +0.277 C 
ENDBRANCH  30   5
ENDBRANCH   7  22
ENDBRANCH   3  16
ENDBRANCH  11   3
TORSDOF 8
ENDMDL
MODEL 5
REMARK VINA RESULT:      -7.5     20.315     22.794
REMARK  Name = 11884624
REMARK  9 active torsions:
REMARK  status: ('A' for Active; 'I' for Inactive)
REMARK    1  A    between atoms: O_3  and  C_11
REMARK    2  A    between atoms: O_3  and  C_16
REMARK    3  A    between atoms: O_5  and  C_30
REMARK    4  A    between atoms: O_5  and  C_34
REMARK    5  A    between atoms: N_6  and  C_10
REMARK    6  A    between atoms: N_6  and  C_14
REMARK    7  A    between atoms: N_7  and  C_22
REMARK    8  A    between atoms: C_14  and  C_15
REMARK    9  A    between atoms: C_21  and  C_23
REMARK                            x       y       z     vdW  Elec       q    Type
REMARK                         _______ _______ _______ _____ _____    ______ ____
ROOT
ATOM      1  O   UNL     1      -3.245 -12.328  12.519  0.00  0.00    -0.369 OA
ATOM      2  O   UNL     1      -1.351  -9.951  12.829  0.00  0.00    -0.369 OA
ATOM      8  C   UNL     1      -2.385 -10.463  13.697  0.00  0.00    +0.170 C 
ATOM      9  C   UNL     1      -3.510 -10.942  12.803  0.00  0.00    +0.191 C 
ATOM     10  C   UNL     1      -1.903 -11.719  14.391  0.00  0.00    +0.111 C 
ATOM     11  C   UNL     1      -3.339 -10.080  11.576  0.00  0.00    +0.235 C 
ATOM     12  C   UNL     1      -2.142 -12.775  13.320  0.00  0.00    +0.181 C 
ATOM     13  C   UNL     1      -1.836  -9.956  11.478  0.00  0.00    +0.207 C 
ENDROOT
BRANCH  10   6
ATOM      6  N   UNL     1      -2.706 -12.021  15.574  0.00  0.00    -0.305 NA
ATOM     35  H   UNL     1      -2.238 -12.739  16.127  0.00  0.00    +0.123 HD
BRANCH   6  14
ATOM     14  C   UNL     1      -2.868 -10.837  16.405  0.00  0.00    +0.116 C 
BRANCH  14  15
ATOM     15  C   UNL     1      -4.282 -10.686  16.898  0.00  0.00    -0.034 A 
ATOM     17  C   UNL     1      -4.661 -11.254  18.114  0.00  0.00    +0.005 A 
ATOM     18  C   UNL     1      -5.214  -9.978  16.139  0.00  0.00    +0.005 A 
ATOM     19  C   UNL     1      -5.971 -11.116  18.571  0.00  0.00    +0.009 A 
ATOM     20  C   UNL     1      -6.525  -9.839  16.596  0.00  0.00    +0.009 A 
ATOM     21  C   UNL     1      -6.903 -10.407  17.813  0.00  0.00    -0.018 A 
BRANCH  21  23
ATOM     23  C   UNL     1      -8.262 -10.262  18.286  0.00  0.00    -0.018 A 
ATOM     26  C   UNL     1      -9.147  -9.418  17.616  0.00  0.00    +0.008 A 
ATOM     27  C   UNL     1      -8.687 -10.966  19.413  0.00  0.00    +0.008 A 
ATOM     31  C   UNL     1     -10.459  -9.277  18.072  0.00  0.00    +0.001 A 
ATOM     32  C   UNL     1      -9.998 -10.825  19.870  0.00  0.00    +0.001 A 
ATOM     33  C   UNL     1     -10.884  -9.981  19.199  0.00  0.00    +0.000 A 
ENDBRANCH  21  23
ENDBRANCH  14  15
ENDBRANCH   6  14
ENDBRANCH  10   6
BRANCH  11   3
ATOM      3  O   UNL     1      -3.902 -10.641  10.411  0.00  0.00    -0.442 OA
BRANCH   3  16
ATOM      4  O   UNL     1      -3.655  -8.769   9.122  0.00  0.00    -0.226 OA
ATOM      7  N   UNL     1      -5.496 -10.193   8.879  0.00  0.00    -0.251 N 
ATOM     16  C   UNL     1      -4.303  -9.763   9.425  0.00  0.00    +0.405 C 
ATOM     36  H   UNL     1      -5.885 -11.051   9.266  0.00  0.00    +0.158 HD
BRANCH   7  22
ATOM     22  C   UNL     1      -6.249  -9.589   7.846  0.00  0.00    +0.037 A 
ATOM     24  C   UNL     1      -5.991  -9.914   6.514  0.00  0.00    +0.027 A 
ATOM     25  C   UNL     1      -7.248  -8.668   8.159  0.00  0.00    +0.027 A 
ATOM     28  C   UNL     1      -6.733  -9.317   5.496  0.00  0.00    +0.047 A 
ATOM     29  C   UNL     1      -7.990  -8.072   7.140  0.00  0.00    +0.047 A 
ATOM     30  C   UNL     1      -7.732  -8.396   5.808  0.00  0.00    +0.120 A 
BRANCH  30   5
ATOM      5  O   UNL     1      -8.457  -7.814   4.813  0.00  0.00    -0.495 OA
ATOM     34  C   UNL     1      -8.157  -8.209   3.475  0.00  0.00    +0.277 C 
ENDBRANCH  30   5
ENDBRANCH   7  22
ENDBRANCH   3  16
ENDBRANCH  11   3
TORSDOF 8
ENDMDL
MODEL 6
REMARK VINA RESULT:      -7.4      2.963      4.961
REMARK  Name = 11884624
REMARK  9 active torsions:
REMARK  status: ('A' for Active; 'I' for Inactive)
REMARK    1  A    between atoms: O_3  and  C_11
REMARK    2  A    between atoms: O_3  and  C_16
REMARK    3  A    between atoms: O_5  and  C_30
REMARK    4  A    between atoms: O_5  and  C_34
REMARK    5  A    between atoms: N_6  and  C_10
REMARK    6  A    between atoms: N_6  and  C_14
REMARK    7  A    between atoms: N_7  and  C_22
REMARK    8  A    between atoms: C_14  and  C_15
REMARK    9  A    between atoms: C_21  and  C_23
REMARK                            x       y       z     vdW  Elec       q    Type
REMARK                         _______ _______ _______ _____ _____    ______ ____
ROOT
ATOM      1  O   UNL     1     -13.448   4.903  22.457  0.00  0.00    -0.369 OA
ATOM      2  O   UNL     1     -15.755   6.866  22.849  0.00  0.00    -0.369 OA
ATOM      8  C   UNL     1     -15.743   5.486  22.427  0.00  0.00    +0.170 C 
ATOM      9  C   UNL     1     -14.507   5.301  21.569  0.00  0.00    +0.191 C 
ATOM     10  C   UNL     1     -15.504   4.583  23.618  0.00  0.00    +0.111 C 
ATOM     11  C   UNL     1     -14.282   6.690  21.021  0.00  0.00    +0.235 C 
ATOM     12  C   UNL     1     -13.990   4.656  23.763  0.00  0.00    +0.181 C 
ATOM     13  C   UNL     1     -14.690   7.563  22.186  0.00  0.00    +0.207 C 
ENDROOT
BRANCH  10   6
ATOM      6  N   UNL     1     -15.911   3.207  23.340  0.00  0.00    -0.305 NA
ATOM     35  H   UNL     1     -15.145   2.574  23.569  0.00  0.00    +0.123 HD
BRANCH   6  14
ATOM     14  C   UNL     1     -17.067   2.837  24.143  0.00  0.00    +0.116 C 
BRANCH  14  15
ATOM     15  C   UNL     1     -16.686   2.524  25.564  0.00  0.00    -0.034 A 
ATOM     17  C   UNL     1     -16.324   3.553  26.433  0.00  0.00    +0.005 A 
ATOM     18  C   UNL     1     -16.696   1.203  26.014  0.00  0.00    +0.005 A 
ATOM     19  C   UNL     1     -15.970   3.263  27.750  0.00  0.00    +0.009 A 
ATOM     20  C   UNL     1     -16.342   0.912  27.332  0.00  0.00    +0.009 A 
ATOM     21  C   UNL     1     -15.979   1.943  28.200  0.00  0.00    -0.018 A 
BRANCH  21  23
ATOM     23  C   UNL     1     -15.613   1.641  29.566  0.00  0.00    -0.018 A 
ATOM     26  C   UNL     1     -15.575   2.658  30.519  0.00  0.00    +0.008 A 
ATOM     27  C   UNL     1     -15.296   0.332  29.930  0.00  0.00    +0.008 A 
ATOM     31  C   UNL     1     -15.222   2.367  31.838  0.00  0.00    +0.001 A 
ATOM     32  C   UNL     1     -14.941   0.041  31.248  0.00  0.00    +0.001 A 
ATOM     33  C   UNL     1     -14.905   1.059  32.202  0.00  0.00    +0.000 A 
ENDBRANCH  21  23
ENDBRANCH  14  15
ENDBRANCH   6  14
ENDBRANCH  10   6
BRANCH  11   3
ATOM      3  O   UNL     1     -12.951   6.927  20.620  0.00  0.00    -0.442 OA
BRANCH   3  16
ATOM      4  O   UNL     1     -13.535   7.719  18.556  0.00  0.00    -0.226 OA
ATOM      7  N   UNL     1     -11.619   8.477  19.666  0.00  0.00    -0.251 N 
ATOM     16  C   UNL     1     -12.765   7.723  19.509  0.00  0.00    +0.405 C 
ATOM     36  H   UNL     1     -11.106   8.341  20.535  0.00  0.00    +0.158 HD
BRANCH   7  22
ATOM     22  C   UNL     1     -11.066   9.418  18.768  0.00  0.00    +0.037 A 
ATOM     24  C   UNL     1     -10.505   8.988  17.565  0.00  0.00    +0.027 A 
ATOM     25  C   UNL     1     -11.080  10.776  19.085  0.00  0.00    +0.027 A 
ATOM     28  C   UNL     1      -9.959   9.916  16.679  0.00  0.00    +0.047 A 
ATOM     29  C   UNL     1     -10.535  11.705  18.198  0.00  0.00    +0.047 A 
ATOM     30  C   UNL     1      -9.974  11.274  16.995  0.00  0.00    +0.120 A 
BRANCH  30   5
ATOM      5  O   UNL     1      -9.440  12.180  16.131  0.00  0.00    -0.495 OA
ATOM     34  C   UNL     1      -8.366  12.986  16.615  0.00  0.00    +0.277 C 
ENDBRANCH  30   5
ENDBRANCH   7  22
ENDBRANCH   3  16
ENDBRANCH  11   3
TORSDOF 8
ENDMDL
MODEL 7
REMARK VINA RESULT:      -7.3     30.829     36.012
REMARK  Name = 11884624
REMARK  9 active torsions:
REMARK  status: ('A' for Active; 'I' for Inactive)
REMARK    1  A    between atoms: O_3  and  C_11
REMARK    2  A    between atoms: O_3  and  C_16
REMARK    3  A    between atoms: O_5  and  C_30
REMARK    4  A    between atoms: O_5  and  C_34
REMARK    5  A    between atoms: N_6  and  C_10
REMARK    6  A    between atoms: N_6  and  C_14
REMARK    7  A    between atoms: N_7  and  C_22
REMARK    8  A    between atoms: C_14  and  C_15
REMARK    9  A    between atoms: C_21  and  C_23
REMARK                            x       y       z     vdW  Elec       q    Type
REMARK                         _______ _______ _______ _____ _____    ______ ____
ROOT
ATOM      1  O   UNL     1      10.774   8.364   5.440  0.00  0.00    -0.369 OA
ATOM      2  O   UNL     1       9.001   8.665   7.909  0.00  0.00    -0.369 OA
ATOM      8  C   UNL     1      10.424   8.464   7.780  0.00  0.00    +0.170 C 
ATOM      9  C   UNL     1      10.629   7.531   6.603  0.00  0.00    +0.191 C 
ATOM     10  C   UNL     1      11.093   9.752   7.350  0.00  0.00    +0.111 C 
ATOM     11  C   UNL     1       9.334   6.754   6.575  0.00  0.00    +0.235 C 
ATOM     12  C   UNL     1      10.853   9.738   5.846  0.00  0.00    +0.181 C 
ATOM     13  C   UNL     1       8.324   7.803   6.982  0.00  0.00    +0.207 C 
ENDROOT
BRANCH  10   6
ATOM      6  N   UNL     1      12.527   9.731   7.625  0.00  0.00    -0.305 NA
ATOM     35  H   UNL     1      12.869   8.771   7.570  0.00  0.00    +0.123 HD
BRANCH   6  14
ATOM     14  C   UNL     1      13.253  10.533   6.651  0.00  0.00    +0.116 C 
BRANCH  14  15
ATOM     15  C   UNL     1      14.640  10.002   6.409  0.00  0.00    -0.034 A 
ATOM     17  C   UNL     1      15.735  10.864   6.461  0.00  0.00    +0.005 A 
ATOM     18  C   UNL     1      14.831   8.648   6.132  0.00  0.00    +0.005 A 
ATOM     19  C   UNL     1      17.021  10.373   6.236  0.00  0.00    +0.009 A 
ATOM     20  C   UNL     1      16.116   8.157   5.906  0.00  0.00    +0.009 A 
ATOM     21  C   UNL     1      17.212   9.019   5.959  0.00  0.00    -0.018 A 
BRANCH  21  23
ATOM     23  C   UNL     1      18.545   8.508   5.725  0.00  0.00    -0.018 A 
ATOM     26  C   UNL     1      18.894   8.020   4.466  0.00  0.00    +0.008 A 
ATOM     27  C   UNL     1      19.481   8.503   6.759  0.00  0.00    +0.008 A 
ATOM     31  C   UNL     1      20.180   7.527   4.240  0.00  0.00    +0.001 A 
ATOM     32  C   UNL     1      20.767   8.009   6.534  0.00  0.00    +0.001 A 
ATOM     33  C   UNL     1      21.115   7.521   5.274  0.00  0.00    +0.000 A 
ENDBRANCH  21  23
ENDBRANCH  14  15
ENDBRANCH   6  14
ENDBRANCH  10   6
BRANCH  11   3
ATOM      3  O   UNL     1       9.041   6.196   5.314  0.00  0.00    -0.442 OA
BRANCH   3  16
ATOM      4  O   UNL     1      10.174   4.209   5.322  0.00  0.00    -0.226 OA
ATOM      7  N   UNL     1      10.530   5.821   3.662  0.00  0.00    -0.251 N 
ATOM     16  C   UNL     1       9.953   5.296   4.801  0.00  0.00    +0.405 C 
ATOM     36  H   UNL     1      10.214   6.747   3.383  0.00  0.00    +0.158 HD
BRANCH   7  22
ATOM     22  C   UNL     1      11.509   5.230   2.831  0.00  0.00    +0.037 A 
ATOM     24  C   UNL     1      12.540   6.010   2.306  0.00  0.00    +0.027 A 
ATOM     25  C   UNL     1      11.444   3.869   2.535  0.00  0.00    +0.027 A 
ATOM     28  C   UNL     1      13.506   5.427   1.486  0.00  0.00    +0.047 A 
ATOM     29  C   UNL     1      12.410   3.286   1.715  0.00  0.00    +0.047 A 
ATOM     30  C   UNL     1      13.441   4.066   1.190  0.00  0.00    +0.120 A 
BRANCH  30   5
ATOM      5  O   UNL     1      14.384   3.497   0.389  0.00  0.00    -0.495 OA
ATOM     34  C   UNL     1      15.737   3.903   0.590  0.00  0.00    +0.277 C 
ENDBRANCH  30   5
ENDBRANCH   7  22
ENDBRANCH   3  16
ENDBRANCH  11   3
TORSDOF 8
ENDMDL
MODEL 8
REMARK VINA RESULT:      -7.2     31.360     35.961
REMARK  Name = 11884624
REMARK  9 active torsions:
REMARK  status: ('A' for Active; 'I' for Inactive)
REMARK    1  A    between atoms: O_3  and  C_11
REMARK    2  A    between atoms: O_3  and  C_16
REMARK    3  A    between atoms: O_5  and  C_30
REMARK    4  A    between atoms: O_5  and  C_34
REMARK    5  A    between atoms: N_6  and  C_10
REMARK    6  A    between atoms: N_6  and  C_14
REMARK    7  A    between atoms: N_7  and  C_22
REMARK    8  A    between atoms: C_14  and  C_15
REMARK    9  A    between atoms: C_21  and  C_23
REMARK                            x       y       z     vdW  Elec       q    Type
REMARK                         _______ _______ _______ _____ _____    ______ ____
ROOT
ATOM      1  O   UNL     1      22.090   4.334  23.449  0.00  0.00    -0.369 OA
ATOM      2  O   UNL     1      24.208   3.562  21.387  0.00  0.00    -0.369 OA
ATOM      8  C   UNL     1      22.772   3.674  21.279  0.00  0.00    +0.170 C 
ATOM      9  C   UNL     1      22.196   3.183  22.592  0.00  0.00    +0.191 C 
ATOM     10  C   UNL     1      22.369   5.131  21.220  0.00  0.00    +0.111 C 
ATOM     11  C   UNL     1      23.258   2.226  23.076  0.00  0.00    +0.235 C 
ATOM     12  C   UNL     1      22.389   5.518  22.693  0.00  0.00    +0.181 C 
ATOM     13  C   UNL     1      24.531   2.903  22.620  0.00  0.00    +0.207 C 
ENDROOT
BRANCH  10   6
ATOM      6  N   UNL     1      21.021   5.294  20.681  0.00  0.00    -0.305 NA
ATOM     35  H   UNL     1      20.469   4.461  20.889  0.00  0.00    +0.123 HD
BRANCH   6  14
ATOM     14  C   UNL     1      20.359   6.443  21.281  0.00  0.00    +0.116 C 
BRANCH  14  15
ATOM     15  C   UNL     1      18.954   6.612  20.771  0.00  0.00    -0.034 A 
ATOM     17  C   UNL     1      18.485   5.802  19.737  0.00  0.00    +0.005 A 
ATOM     18  C   UNL     1      18.118   7.578  21.332  0.00  0.00    +0.005 A 
ATOM     19  C   UNL     1      17.183   5.957  19.263  0.00  0.00    +0.009 A 
ATOM     20  C   UNL     1      16.815   7.734  20.858  0.00  0.00    +0.009 A 
ATOM     21  C   UNL     1      16.348   6.923  19.824  0.00  0.00    -0.018 A 
BRANCH  21  23
ATOM     23  C   UNL     1      14.996   7.085  19.334  0.00  0.00    -0.018 A 
ATOM     26  C   UNL     1      13.914   6.797  20.164  0.00  0.00    +0.008 A 
ATOM     27  C   UNL     1      14.776   7.530  18.030  0.00  0.00    +0.008 A 
ATOM     31  C   UNL     1      12.610   6.953  19.692  0.00  0.00    +0.001 A 
ATOM     32  C   UNL     1      13.472   7.685  17.557  0.00  0.00    +0.001 A 
ATOM     33  C   UNL     1      12.390   7.397  18.389  0.00  0.00    +0.000 A 
ENDBRANCH  21  23
ENDBRANCH  14  15
ENDBRANCH   6  14
ENDBRANCH  10   6
BRANCH  11   3
ATOM      3  O   UNL     1      23.237   2.020  24.471  0.00  0.00    -0.442 OA
BRANCH   3  16
ATOM      4  O   UNL     1      23.654  -0.197  24.848  0.00  0.00    -0.226 OA
ATOM      7  N   UNL     1      21.602   0.780  25.407  0.00  0.00    -0.251 N 
ATOM     16  C   UNL     1      22.890   0.759  24.912  0.00  0.00    +0.405 C 
ATOM     36  H   UNL     1      21.122   1.677  25.375  0.00  0.00    +0.158 HD
BRANCH   7  22
ATOM     22  C   UNL     1      20.862  -0.293  25.955  0.00  0.00    +0.037 A 
ATOM     24  C   UNL     1      19.789  -0.833  25.247  0.00  0.00    +0.027 A 
ATOM     25  C   UNL     1      21.205  -0.810  27.205  0.00  0.00    +0.027 A 
ATOM     28  C   UNL     1      19.059  -1.891  25.788  0.00  0.00    +0.047 A 
ATOM     29  C   UNL     1      20.476  -1.868  27.745  0.00  0.00    +0.047 A 
ATOM     30  C   UNL     1      19.402  -2.409  27.037  0.00  0.00    +0.120 A 
BRANCH  30   5
ATOM      5  O   UNL     1      18.689  -3.441  27.565  0.00  0.00    -0.495 OA
ATOM     34  C   UNL     1      17.906  -4.220  26.661  0.00  0.00    +0.277 C 
ENDBRANCH  30   5
ENDBRANCH   7  22
ENDBRANCH   3  16
ENDBRANCH  11   3
TORSDOF 8
ENDMDL
MODEL 9
REMARK VINA RESULT:      -7.1     25.934     30.731
REMARK  Name = 11884624
REMARK  9 active torsions:
REMARK  status: ('A' for Active; 'I' for Inactive)
REMARK    1  A    between atoms: O_3  and  C_11
REMARK    2  A    between atoms: O_3  and  C_16
REMARK    3  A    between atoms: O_5  and  C_30
REMARK    4  A    between atoms: O_5  and  C_34
REMARK    5  A    between atoms: N_6  and  C_10
REMARK    6  A    between atoms: N_6  and  C_14
REMARK    7  A    between atoms: N_7  and  C_22
REMARK    8  A    between atoms: C_14  and  C_15
REMARK    9  A    between atoms: C_21  and  C_23
REMARK                            x       y       z     vdW  Elec       q    Type
REMARK                         _______ _______ _______ _____ _____    ______ ____
ROOT
ATOM      1  O   UNL     1       4.680  11.256   2.430  0.00  0.00    -0.369 OA
ATOM      2  O   UNL     1       6.641  10.013   0.444  0.00  0.00    -0.369 OA
ATOM      8  C   UNL     1       5.316   9.609   0.852  0.00  0.00    +0.170 C 
ATOM      9  C   UNL     1       5.200   9.919   2.331  0.00  0.00    +0.191 C 
ATOM     10  C   UNL     1       4.280  10.503   0.205  0.00  0.00    +0.111 C 
ATOM     11  C   UNL     1       6.635   9.843   2.792  0.00  0.00    +0.235 C 
ATOM     12  C   UNL     1       4.301  11.717   1.124  0.00  0.00    +0.181 C 
ATOM     13  C   UNL     1       7.382  10.411   1.607  0.00  0.00    +0.207 C 
ENDROOT
BRANCH  10   6
ATOM      6  N   UNL     1       2.954   9.889   0.222  0.00  0.00    -0.305 NA
ATOM     35  H   UNL     1       2.852   9.327   1.068  0.00  0.00    +0.123 HD
BRANCH   6  14
ATOM     14  C   UNL     1       1.913  10.906   0.218  0.00  0.00    +0.116 C 
BRANCH  14  15
ATOM     15  C   UNL     1       0.749  10.521   1.090  0.00  0.00    -0.034 A 
ATOM     17  C   UNL     1       0.851  10.627   2.477  0.00  0.00    +0.005 A 
ATOM     18  C   UNL     1      -0.433  10.058   0.512  0.00  0.00    +0.005 A 
ATOM     19  C   UNL     1      -0.227  10.271   3.286  0.00  0.00    +0.009 A 
ATOM     20  C   UNL     1      -1.512   9.701   1.321  0.00  0.00    +0.009 A 
ATOM     21  C   UNL     1      -1.409   9.808   2.708  0.00  0.00    -0.018 A 
BRANCH  21  23
ATOM     23  C   UNL     1      -2.529   9.437   3.546  0.00  0.00    -0.018 A 
ATOM     26  C   UNL     1      -2.314   8.704   4.712  0.00  0.00    +0.008 A 
ATOM     27  C   UNL     1      -3.823   9.813   3.187  0.00  0.00    +0.008 A 
ATOM     31  C   UNL     1      -3.393   8.346   5.521  0.00  0.00    +0.001 A 
ATOM     32  C   UNL     1      -4.903   9.454   3.995  0.00  0.00    +0.001 A 
ATOM     33  C   UNL     1      -4.687   8.721   5.162  0.00  0.00    +0.000 A 
ENDBRANCH  21  23
ENDBRANCH  14  15
ENDBRANCH   6  14
ENDBRANCH  10   6
BRANCH  11   3
ATOM      3  O   UNL     1       6.885  10.570   3.975  0.00  0.00    -0.442 OA
BRANCH   3  16
ATOM      4  O   UNL     1       8.437  10.616   5.653  0.00  0.00    -0.226 OA
ATOM      7  N   UNL     1       7.533   8.604   4.869  0.00  0.00    -0.251 N 
ATOM     16  C   UNL     1       7.699   9.974   4.915  0.00  0.00    +0.405 C 
ATOM     36  H   UNL     1       6.869   8.254   4.182  0.00  0.00    +0.158 HD
BRANCH   7  22
ATOM     22  C   UNL     1       8.175   7.622   5.659  0.00  0.00    +0.037 A 
ATOM     24  C   UNL     1       8.445   7.878   7.004  0.00  0.00    +0.027 A 
ATOM     25  C   UNL     1       8.538   6.400   5.094  0.00  0.00    +0.027 A 
ATOM     28  C   UNL     1       9.078   6.909   7.783  0.00  0.00    +0.047 A 
ATOM     29  C   UNL     1       9.170   5.432   5.874  0.00  0.00    +0.047 A 
ATOM     30  C   UNL     1       9.441   5.687   7.218  0.00  0.00    +0.120 A 
BRANCH  30   5
ATOM      5  O   UNL     1      10.059   4.743   7.979  0.00  0.00    -0.495 OA
ATOM     34  C   UNL     1       9.432   4.388   9.211  0.00  0.00    +0.277 C 
ENDBRANCH  30   5
ENDBRANCH   7  22
ENDBRANCH   3  16
ENDBRANCH  11   3
TORSDOF 8
ENDMDL
MODEL 10
REMARK VINA RESULT:      -7.1     17.014     19.867
REMARK  Name = 11884624
REMARK  9 active torsions:
REMARK  status: ('A' for Active; 'I' for Inactive)
REMARK    1  A    between atoms: O_3  and  C_11
REMARK    2  A    between atoms: O_3  and  C_16
REMARK    3  A    between atoms: O_5  and  C_30
REMARK    4  A    between atoms: O_5  and  C_34
REMARK    5  A    between atoms: N_6  and  C_10
REMARK    6  A    between atoms: N_6  and  C_14
REMARK    7  A    between atoms: N_7  and  C_22
REMARK    8  A    between atoms: C_14  and  C_15
REMARK    9  A    between atoms: C_21  and  C_23
REMARK                            x       y       z     vdW  Elec       q    Type
REMARK                         _______ _______ _______ _____ _____    ______ ____
ROOT
ATOM      1  O   UNL     1     -10.807  -9.185  19.016  0.00  0.00    -0.369 OA
ATOM      2  O   UNL     1     -11.062 -11.597  17.158  0.00  0.00    -0.369 OA
ATOM      8  C   UNL     1      -9.923 -11.051  17.856  0.00  0.00    +0.170 C 
ATOM      9  C   UNL     1     -10.075  -9.544  17.830  0.00  0.00    +0.191 C 
ATOM     10  C   UNL     1      -9.998 -11.405  19.326  0.00  0.00    +0.111 C 
ATOM     11  C   UNL     1     -10.893  -9.321  16.582  0.00  0.00    +0.235 C 
ATOM     12  C   UNL     1     -10.954 -10.344  19.851  0.00  0.00    +0.181 C 
ATOM     13  C   UNL     1     -11.817 -10.518  16.587  0.00  0.00    +0.207 C 
ENDROOT
BRANCH  10   6
ATOM      6  N   UNL     1      -8.697 -11.270  19.978  0.00  0.00    -0.305 NA
ATOM     35  H   UNL     1      -8.828 -11.234  20.990  0.00  0.00    +0.123 HD
BRANCH   6  14
ATOM     14  C   UNL     1      -7.841 -12.405  19.666  0.00  0.00    +0.116 C 
BRANCH  14  15
ATOM     15  C   UNL     1      -6.753 -12.037  18.694  0.00  0.00    -0.034 A 
ATOM     17  C   UNL     1      -6.679 -12.674  17.456  0.00  0.00    +0.005 A 
ATOM     18  C   UNL     1      -5.818 -11.058  19.031  0.00  0.00    +0.005 A 
ATOM     19  C   UNL     1      -5.671 -12.335  16.555  0.00  0.00    +0.009 A 
ATOM     20  C   UNL     1      -4.809 -10.717  18.130  0.00  0.00    +0.009 A 
ATOM     21  C   UNL     1      -4.736 -11.356  16.891  0.00  0.00    -0.018 A 
BRANCH  21  23
ATOM     23  C   UNL     1      -3.690 -11.002  15.957  0.00  0.00    -0.018 A 
ATOM     26  C   UNL     1      -2.412 -10.696  16.425  0.00  0.00    +0.008 A 
ATOM     27  C   UNL     1      -3.959 -10.964  14.589  0.00  0.00    +0.008 A 
ATOM     31  C   UNL     1      -1.402 -10.354  15.524  0.00  0.00    +0.001 A 
ATOM     32  C   UNL     1      -2.949 -10.622  13.688  0.00  0.00    +0.001 A 
ATOM     33  C   UNL     1      -1.671 -10.317  14.157  0.00  0.00    +0.000 A 
ENDBRANCH  21  23
ENDBRANCH  14  15
ENDBRANCH   6  14
ENDBRANCH  10   6
BRANCH  11   3
ATOM      3  O   UNL     1     -11.603  -8.103  16.584  0.00  0.00    -0.442 OA
BRANCH   3  16
ATOM      4  O   UNL     1     -10.189  -6.574  15.639  0.00  0.00    -0.226 OA
ATOM      7  N   UNL     1     -12.277  -7.062  14.701  0.00  0.00    -0.251 N 
ATOM     16  C   UNL     1     -11.257  -7.175  15.624  0.00  0.00    +0.405 C 
ATOM     36  H   UNL     1     -13.094  -7.649  14.858  0.00  0.00    +0.158 HD
BRANCH   7  22
ATOM     22  C   UNL     1     -12.331  -6.228  13.560  0.00  0.00    +0.037 A 
ATOM     24  C   UNL     1     -12.330  -4.841  13.710  0.00  0.00    +0.027 A 
ATOM     25  C   UNL     1     -12.387  -6.792  12.286  0.00  0.00    +0.027 A 
ATOM     28  C   UNL     1     -12.384  -4.019  12.585  0.00  0.00    +0.047 A 
ATOM     29  C   UNL     1     -12.440  -5.969  11.161  0.00  0.00    +0.047 A 
ATOM     30  C   UNL     1     -12.439  -4.582  11.311  0.00  0.00    +0.120 A 
BRANCH  30   5
ATOM      5  O   UNL     1     -12.492  -3.779  10.213  0.00  0.00    -0.495 OA
ATOM     34  C   UNL     1     -11.267  -3.547   9.518  0.00  0.00    +0.277 C 
ENDBRANCH  30   5
ENDBRANCH   7  22
ENDBRANCH   3  16
ENDBRANCH  11   3
TORSDOF 8
ENDMDL
