MODEL 1
REMARK VINA RESULT:      -7.1      0.000      0.000
REMARK  Name = 40586240
REMARK  7 active torsions:
REMARK  status: ('A' for Active; 'I' for Inactive)
REMARK    1  A    between atoms: S_1  and  N_8
REMARK    2  A    between atoms: S_1  and  C_23
REMARK    3  A    between atoms: O_4  and  C_13
REMARK    4  A    between atoms: O_4  and  C_22
REMARK    5  A    between atoms: N_8  and  C_12
REMARK    6  A    between atoms: N_9  and  C_16
REMARK    7  A    between atoms: C_28  and  C_29
REMARK                            x       y       z     vdW  Elec       q    Type
REMARK                         _______ _______ _______ _____ _____    ______ ____
ROOT
ATOM      2  O   UNL     1     -16.882   1.883  25.848  0.00  0.00    -0.369 OA
ATOM      3  O   UNL     1     -17.893   4.422  27.240  0.00  0.00    -0.368 OA
ATOM     10  C   UNL     1     -16.804   4.207  26.319  0.00  0.00    +0.171 C 
ATOM     11  C   UNL     1     -16.202   2.858  26.659  0.00  0.00    +0.191 C 
ATOM     12  C   UNL     1     -17.338   4.023  24.918  0.00  0.00    +0.133 C 
ATOM     13  C   UNL     1     -16.545   2.707  28.121  0.00  0.00    +0.235 C 
ATOM     14  C   UNL     1     -17.739   2.558  24.915  0.00  0.00    +0.183 C 
ATOM     15  C   UNL     1     -17.909   3.353  28.198  0.00  0.00    +0.207 C 
ENDROOT
BRANCH  12   8
ATOM      8  N   UNL     1     -16.319   4.290  23.931  0.00  0.00    -0.182 NA
ATOM     30  H   UNL     1     -15.337   4.280  24.230  0.00  0.00    +0.148 HD
BRANCH   8   1
ATOM      1  S   UNL     1     -16.748   4.969  22.434  0.00  0.00    +0.059 S 
ATOM      5  O   UNL     1     -17.661   6.075  22.649  0.00  0.00    -0.153 OA
ATOM      6  O   UNL     1     -17.100   3.900  21.519  0.00  0.00    -0.153 OA
BRANCH   1  23
ATOM     23  C   UNL     1     -15.206   5.635  21.882  0.00  0.00    +0.105 A 
ATOM     24  C   UNL     1     -15.188   6.698  20.980  0.00  0.00    +0.029 A 
ATOM     25  C   UNL     1     -14.008   5.094  22.348  0.00  0.00    +0.029 A 
ATOM     26  C   UNL     1     -13.972   7.222  20.543  0.00  0.00    +0.005 A 
ATOM     27  C   UNL     1     -12.791   5.618  21.909  0.00  0.00    +0.005 A 
ATOM     28  C   UNL     1     -12.772   6.682  21.007  0.00  0.00    -0.050 A 
ATOM     29  C   UNL     1     -11.472   7.242  20.540  0.00  0.00    +0.044 C 
ENDBRANCH   1  23
ENDBRANCH   8   1
ENDBRANCH  12   8
BRANCH  13   4
ATOM      4  O   UNL     1     -16.568   1.367  28.558  0.00  0.00    -0.442 OA
BRANCH   4  22
ATOM      7  O   UNL     1     -14.957  -0.142  29.195  0.00  0.00    -0.226 OA
ATOM      9  N   UNL     1     -15.160   1.918  30.244  0.00  0.00    -0.278 N 
ATOM     22  C   UNL     1     -15.505   0.948  29.327  0.00  0.00    +0.401 C 
ATOM     31  H   UNL     1     -15.729   2.758  30.273  0.00  0.00    +0.152 HD
BRANCH   9  16
ATOM     16  C   UNL     1     -14.080   1.775  31.195  0.00  0.00    +0.076 C 
ATOM     17  C   UNL     1     -13.249   3.060  31.281  0.00  0.00    +0.022 C 
ATOM     18  C   UNL     1     -14.611   1.363  32.572  0.00  0.00    +0.022 C 
ATOM     19  C   UNL     1     -13.994   4.192  31.988  0.00  0.00    +0.002 C 
ATOM     20  C   UNL     1     -15.354   2.498  33.277  0.00  0.00    +0.002 C 
ATOM     21  C   UNL     1     -14.502   3.761  33.360  0.00  0.00    +0.000 C 
ENDBRANCH   9  16
ENDBRANCH   4  22
ENDBRANCH  13   4
TORSDOF 6
ENDMDL
MODEL 2
REMARK VINA RESULT:      -7.0      2.369      4.060
REMARK  Name = 40586240
REMARK  7 active torsions:
REMARK  status: ('A' for Active; 'I' for Inactive)
REMARK    1  A    between atoms: S_1  and  N_8
REMARK    2  A    between atoms: S_1  and  C_23
REMARK    3  A    between atoms: O_4  and  C_13
REMARK    4  A    between atoms: O_4  and  C_22
REMARK    5  A    between atoms: N_8  and  C_12
REMARK    6  A    between atoms: N_9  and  C_16
REMARK    7  A    between atoms: C_28  and  C_29
REMARK                            x       y       z     vdW  Elec       q    Type
REMARK                         _______ _______ _______ _____ _____    ______ ____
ROOT
ATOM      2  O   UNL     1     -14.247   4.923  23.718  0.00  0.00    -0.369 OA
ATOM      3  O   UNL     1     -16.701   3.766  22.288  0.00  0.00    -0.368 OA
ATOM     10  C   UNL     1     -16.275   5.127  22.504  0.00  0.00    +0.171 C 
ATOM     11  C   UNL     1     -15.652   5.179  23.886  0.00  0.00    +0.191 C 
ATOM     12  C   UNL     1     -15.129   5.465  21.578  0.00  0.00    +0.133 C 
ATOM     13  C   UNL     1     -16.347   4.043  24.598  0.00  0.00    +0.235 C 
ATOM     14  C   UNL     1     -13.935   4.886  22.317  0.00  0.00    +0.183 C 
ATOM     15  C   UNL     1     -16.497   3.019  23.497  0.00  0.00    +0.207 C 
ENDROOT
BRANCH  12   8
ATOM      8  N   UNL     1     -14.999   6.892  21.406  0.00  0.00    -0.182 NA
ATOM     30  H   UNL     1     -14.798   7.466  22.234  0.00  0.00    +0.148 HD
BRANCH   8   1
ATOM      1  S   UNL     1     -15.536   7.624  19.971  0.00  0.00    +0.059 S 
ATOM      5  O   UNL     1     -16.064   8.941  20.268  0.00  0.00    -0.153 OA
ATOM      6  O   UNL     1     -16.335   6.668  19.229  0.00  0.00    -0.153 OA
BRANCH   1  23
ATOM     23  C   UNL     1     -14.022   7.832  19.081  0.00  0.00    +0.105 A 
ATOM     24  C   UNL     1     -12.803   7.575  19.708  0.00  0.00    +0.029 A 
ATOM     25  C   UNL     1     -14.048   8.256  17.753  0.00  0.00    +0.029 A 
ATOM     26  C   UNL     1     -11.609   7.740  19.007  0.00  0.00    +0.005 A 
ATOM     27  C   UNL     1     -12.853   8.423  17.051  0.00  0.00    +0.005 A 
ATOM     28  C   UNL     1     -11.634   8.164  17.678  0.00  0.00    -0.050 A 
ATOM     29  C   UNL     1     -10.357   8.342  16.928  0.00  0.00    +0.044 C 
ENDBRANCH   1  23
ENDBRANCH   8   1
ENDBRANCH  12   8
BRANCH  13   4
ATOM      4  O   UNL     1     -15.619   3.540  25.695  0.00  0.00    -0.442 OA
BRANCH   4  22
ATOM      7  O   UNL     1     -17.519   3.511  26.986  0.00  0.00    -0.226 OA
ATOM      9  N   UNL     1     -15.422   3.179  27.922  0.00  0.00    -0.278 N 
ATOM     22  C   UNL     1     -16.300   3.417  26.886  0.00  0.00    +0.401 C 
ATOM     31  H   UNL     1     -14.431   3.170  27.703  0.00  0.00    +0.152 HD
BRANCH   9  16
ATOM     16  C   UNL     1     -15.833   3.003  29.298  0.00  0.00    +0.076 C 
ATOM     17  C   UNL     1     -16.180   1.538  29.586  0.00  0.00    +0.022 C 
ATOM     18  C   UNL     1     -14.762   3.521  30.263  0.00  0.00    +0.022 C 
ATOM     19  C   UNL     1     -14.942   0.642  29.627  0.00  0.00    +0.002 C 
ATOM     20  C   UNL     1     -13.527   2.621  30.303  0.00  0.00    +0.002 C 
ATOM     21  C   UNL     1     -13.896   1.171  30.603  0.00  0.00    +0.000 C 
ENDBRANCH   9  16
ENDBRANCH   4  22
ENDBRANCH  13   4
TORSDOF 6
ENDMDL
MODEL 3
REMARK VINA RESULT:      -7.0     19.124     20.819
REMARK  Name = 40586240
REMARK  7 active torsions:
REMARK  status: ('A' for Active; 'I' for Inactive)
REMARK    1  A    between atoms: S_1  and  N_8
REMARK    2  A    between atoms: S_1  and  C_23
REMARK    3  A    between atoms: O_4  and  C_13
REMARK    4  A    between atoms: O_4  and  C_22
REMARK    5  A    between atoms: N_8  and  C_12
REMARK    6  A    between atoms: N_9  and  C_16
REMARK    7  A    between atoms: C_28  and  C_29
REMARK                            x       y       z     vdW  Elec       q    Type
REMARK                         _______ _______ _______ _____ _____    ______ ____
ROOT
ATOM      2  O   UNL     1      -6.145 -10.329  17.464  0.00  0.00    -0.369 OA
ATOM      3  O   UNL     1      -4.215 -11.898  19.258  0.00  0.00    -0.368 OA
ATOM     10  C   UNL     1      -4.709 -12.159  17.928  0.00  0.00    +0.171 C 
ATOM     11  C   UNL     1      -6.154 -11.701  17.898  0.00  0.00    +0.191 C 
ATOM     12  C   UNL     1      -4.021 -11.254  16.932  0.00  0.00    +0.133 C 
ATOM     13  C   UNL     1      -6.565 -11.827  19.345  0.00  0.00    +0.235 C 
ATOM     14  C   UNL     1      -4.815  -9.966  17.064  0.00  0.00    +0.183 C 
ATOM     15  C   UNL     1      -5.301 -11.433  20.073  0.00  0.00    +0.207 C 
ENDROOT
BRANCH  12   8
ATOM      8  N   UNL     1      -4.105 -11.789  15.594  0.00  0.00    -0.182 NA
ATOM     30  H   UNL     1      -4.984 -12.232  15.302  0.00  0.00    +0.148 HD
BRANCH   8   1
ATOM      1  S   UNL     1      -2.691 -12.017  14.683  0.00  0.00    +0.059 S 
ATOM      5  O   UNL     1      -2.570 -13.415  14.319  0.00  0.00    -0.153 OA
ATOM      6  O   UNL     1      -1.593 -11.339  15.346  0.00  0.00    -0.153 OA
BRANCH   1  23
ATOM     23  C   UNL     1      -3.052 -11.100  13.216  0.00  0.00    +0.105 A 
ATOM     24  C   UNL     1      -4.361 -10.699  12.948  0.00  0.00    +0.029 A 
ATOM     25  C   UNL     1      -2.028 -10.780  12.324  0.00  0.00    +0.029 A 
ATOM     26  C   UNL     1      -4.646  -9.977  11.789  0.00  0.00    +0.005 A 
ATOM     27  C   UNL     1      -2.314 -10.059  11.164  0.00  0.00    +0.005 A 
ATOM     28  C   UNL     1      -3.623  -9.657  10.897  0.00  0.00    -0.050 A 
ATOM     29  C   UNL     1      -3.928  -8.885   9.658  0.00  0.00    +0.044 C 
ENDBRANCH   1  23
ENDBRANCH   8   1
ENDBRANCH  12   8
BRANCH  13   4
ATOM      4  O   UNL     1      -7.657 -11.006  19.693  0.00  0.00    -0.442 OA
BRANCH   4  22
ATOM      7  O   UNL     1      -9.439 -12.296  19.033  0.00  0.00    -0.226 OA
ATOM      9  N   UNL     1      -9.231 -10.089  18.347  0.00  0.00    -0.278 N 
ATOM     22  C   UNL     1      -8.837 -11.227  19.020  0.00  0.00    +0.401 C 
ATOM     31  H   UNL     1      -8.612  -9.285  18.386  0.00  0.00    +0.152 HD
BRANCH   9  16
ATOM     16  C   UNL     1     -10.433 -10.005  17.548  0.00  0.00    +0.076 C 
ATOM     17  C   UNL     1     -11.116  -8.644  17.722  0.00  0.00    +0.022 C 
ATOM     18  C   UNL     1     -10.136 -10.294  16.073  0.00  0.00    +0.022 C 
ATOM     19  C   UNL     1     -10.342  -7.512  17.045  0.00  0.00    +0.002 C 
ATOM     20  C   UNL     1      -9.364  -9.158  15.399  0.00  0.00    +0.002 C 
ATOM     21  C   UNL     1     -10.068  -7.816  15.576  0.00  0.00    +0.000 C 
ENDBRANCH   9  16
ENDBRANCH   4  22
ENDBRANCH  13   4
TORSDOF 6
ENDMDL
MODEL 4
REMARK VINA RESULT:      -6.9     19.788     22.615
REMARK  Name = 40586240
REMARK  7 active torsions:
REMARK  status: ('A' for Active; 'I' for Inactive)
REMARK    1  A    between atoms: S_1  and  N_8
REMARK    2  A    between atoms: S_1  and  C_23
REMARK    3  A    between atoms: O_4  and  C_13
REMARK    4  A    between atoms: O_4  and  C_22
REMARK    5  A    between atoms: N_8  and  C_12
REMARK    6  A    between atoms: N_9  and  C_16
REMARK    7  A    between atoms: C_28  and  C_29
REMARK                            x       y       z     vdW  Elec       q    Type
REMARK                         _______ _______ _______ _____ _____    ______ ____
ROOT
ATOM      2  O   UNL     1      -4.003 -12.061  14.476  0.00  0.00    -0.369 OA
ATOM      3  O   UNL     1      -2.020 -10.890  16.501  0.00  0.00    -0.368 OA
ATOM     10  C   UNL     1      -3.382 -10.537  16.185  0.00  0.00    +0.171 C 
ATOM     11  C   UNL     1      -3.545 -10.714  14.688  0.00  0.00    +0.191 C 
ATOM     12  C   UNL     1      -4.333 -11.553  16.775  0.00  0.00    +0.133 C 
ATOM     13  C   UNL     1      -2.137 -10.516  14.181  0.00  0.00    +0.235 C 
ATOM     14  C   UNL     1      -4.294 -12.668  15.744  0.00  0.00    +0.183 C 
ATOM     15  C   UNL     1      -1.311 -11.144  15.280  0.00  0.00    +0.207 C 
ENDROOT
BRANCH  12   8
ATOM      8  N   UNL     1      -5.662 -11.008  16.910  0.00  0.00    -0.182 NA
ATOM     30  H   UNL     1      -5.993 -10.347  16.198  0.00  0.00    +0.148 HD
BRANCH   8   1
ATOM      1  S   UNL     1      -6.492 -11.158  18.385  0.00  0.00    +0.059 S 
ATOM      5  O   UNL     1      -5.778 -10.432  19.417  0.00  0.00    -0.153 OA
ATOM      6  O   UNL     1      -6.845 -12.551  18.584  0.00  0.00    -0.153 OA
BRANCH   1  23
ATOM     23  C   UNL     1      -7.994 -10.289  18.046  0.00  0.00    +0.105 A 
ATOM     24  C   UNL     1      -9.177 -10.666  18.681  0.00  0.00    +0.029 A 
ATOM     25  C   UNL     1      -7.996  -9.227  17.142  0.00  0.00    +0.029 A 
ATOM     26  C   UNL     1     -10.362  -9.982  18.413  0.00  0.00    +0.005 A 
ATOM     27  C   UNL     1      -9.182  -8.543  16.872  0.00  0.00    +0.005 A 
ATOM     28  C   UNL     1     -10.365  -8.920  17.508  0.00  0.00    -0.050 A 
ATOM     29  C   UNL     1     -11.632  -8.188  17.221  0.00  0.00    +0.044 C 
ENDBRANCH   1  23
ENDBRANCH   8   1
ENDBRANCH  12   8
BRANCH  13   4
ATOM      4  O   UNL     1      -1.900 -11.118  12.929  0.00  0.00    -0.442 OA
BRANCH   4  22
ATOM      7  O   UNL     1      -1.137  -9.511  11.476  0.00  0.00    -0.226 OA
ATOM      9  N   UNL     1      -3.205 -10.519  11.177  0.00  0.00    -0.278 N 
ATOM     22  C   UNL     1      -2.005 -10.305  11.822  0.00  0.00    +0.401 C 
ATOM     31  H   UNL     1      -3.852 -11.177  11.599  0.00  0.00    +0.152 HD
BRANCH   9  16
ATOM     16  C   UNL     1      -3.608  -9.816   9.980  0.00  0.00    +0.076 C 
ATOM     17  C   UNL     1      -4.381 -10.740   9.033  0.00  0.00    +0.022 C 
ATOM     18  C   UNL     1      -4.423  -8.564  10.324  0.00  0.00    +0.022 C 
ATOM     19  C   UNL     1      -5.780 -11.073   9.554  0.00  0.00    +0.002 C 
ATOM     20  C   UNL     1      -5.822  -8.902  10.842  0.00  0.00    +0.002 C 
ATOM     21  C   UNL     1      -6.575  -9.813   9.878  0.00  0.00    +0.000 C 
ENDBRANCH   9  16
ENDBRANCH   4  22
ENDBRANCH  13   4
TORSDOF 6
ENDMDL
MODEL 5
REMARK VINA RESULT:      -6.9     18.891     21.370
REMARK  Name = 40586240
REMARK  7 active torsions:
REMARK  status: ('A' for Active; 'I' for Inactive)
REMARK    1  A    between atoms: S_1  and  N_8
REMARK    2  A    between atoms: S_1  and  C_23
REMARK    3  A    between atoms: O_4  and  C_13
REMARK    4  A    between atoms: O_4  and  C_22
REMARK    5  A    between atoms: N_8  and  C_12
REMARK    6  A    between atoms: N_9  and  C_16
REMARK    7  A    between atoms: C_28  and  C_29
REMARK                            x       y       z     vdW  Elec       q    Type
REMARK                         _______ _______ _______ _____ _____    ______ ____
ROOT
ATOM      2  O   UNL     1      -5.619  -9.611  16.228  0.00  0.00    -0.369 OA
ATOM      3  O   UNL     1      -5.434 -12.643  16.643  0.00  0.00    -0.368 OA
ATOM     10  C   UNL     1      -5.820 -11.579  17.537  0.00  0.00    +0.171 C 
ATOM     11  C   UNL     1      -4.930 -10.394  17.218  0.00  0.00    +0.191 C 
ATOM     12  C   UNL     1      -7.209 -11.091  17.193  0.00  0.00    +0.133 C 
ATOM     13  C   UNL     1      -3.698 -11.055  16.650  0.00  0.00    +0.235 C 
ATOM     14  C   UNL     1      -6.941 -10.139  16.040  0.00  0.00    +0.183 C 
ATOM     15  C   UNL     1      -4.283 -12.226  15.894  0.00  0.00    +0.207 C 
ENDROOT
BRANCH  12   8
ATOM      8  N   UNL     1      -7.814 -10.406  18.310  0.00  0.00    -0.182 NA
ATOM     30  H   UNL     1      -7.204  -9.881  18.948  0.00  0.00    +0.148 HD
BRANCH   8   1
ATOM      1  S   UNL     1      -9.408 -10.772  18.765  0.00  0.00    +0.059 S 
ATOM      5  O   UNL     1      -9.567 -10.558  20.190  0.00  0.00    -0.153 OA
ATOM      6  O   UNL     1      -9.784 -12.042  18.172  0.00  0.00    -0.153 OA
BRANCH   1  23
ATOM     23  C   UNL     1     -10.324  -9.518  17.920  0.00  0.00    +0.105 A 
ATOM     24  C   UNL     1      -9.685  -8.351  17.501  0.00  0.00    +0.029 A 
ATOM     25  C   UNL     1     -11.686  -9.695  17.675  0.00  0.00    +0.029 A 
ATOM     26  C   UNL     1     -10.408  -7.360  16.835  0.00  0.00    +0.005 A 
ATOM     27  C   UNL     1     -12.409  -8.703  17.011  0.00  0.00    +0.005 A 
ATOM     28  C   UNL     1     -11.770  -7.536  16.590  0.00  0.00    -0.050 A 
ATOM     29  C   UNL     1     -12.542  -6.477  15.880  0.00  0.00    +0.044 C 
ENDBRANCH   1  23
ENDBRANCH   8   1
ENDBRANCH  12   8
BRANCH  13   4
ATOM      4  O   UNL     1      -2.940 -10.210  15.815  0.00  0.00    -0.442 OA
BRANCH   4  22
ATOM      7  O   UNL     1      -1.175 -11.528  15.166  0.00  0.00    -0.226 OA
ATOM      9  N   UNL     1      -2.568 -10.527  13.604  0.00  0.00    -0.278 N 
ATOM     22  C   UNL     1      -2.136 -10.822  14.880  0.00  0.00    +0.401 C 
ATOM     31  H   UNL     1      -3.354  -9.891  13.512  0.00  0.00    +0.152 HD
BRANCH   9  16
ATOM     16  C   UNL     1      -1.929 -11.023  12.405  0.00  0.00    +0.076 C 
ATOM     17  C   UNL     1      -2.724 -12.184  11.798  0.00  0.00    +0.022 C 
ATOM     18  C   UNL     1      -1.721  -9.898  11.386  0.00  0.00    +0.022 C 
ATOM     19  C   UNL     1      -4.032 -11.724  11.155  0.00  0.00    +0.002 C 
ATOM     20  C   UNL     1      -3.032  -9.442  10.744  0.00  0.00    +0.002 C 
ATOM     21  C   UNL     1      -3.799 -10.613  10.137  0.00  0.00    +0.000 C 
ENDBRANCH   9  16
ENDBRANCH   4  22
ENDBRANCH  13   4
TORSDOF 6
ENDMDL
MODEL 6
REMARK VINA RESULT:      -6.8     16.205     19.055
REMARK  Name = 40586240
REMARK  7 active torsions:
REMARK  status: ('A' for Active; 'I' for Inactive)
REMARK    1  A    between atoms: S_1  and  N_8
REMARK    2  A    between atoms: S_1  and  C_23
REMARK    3  A    between atoms: O_4  and  C_13
REMARK    4  A    between atoms: O_4  and  C_22
REMARK    5  A    between atoms: N_8  and  C_12
REMARK    6  A    between atoms: N_9  and  C_16
REMARK    7  A    between atoms: C_28  and  C_29
REMARK                            x       y       z     vdW  Elec       q    Type
REMARK                         _______ _______ _______ _____ _____    ______ ____
ROOT
ATOM      2  O   UNL     1     -11.035  -8.025  17.716  0.00  0.00    -0.369 OA
ATOM      3  O   UNL     1     -10.094  -8.962  14.952  0.00  0.00    -0.368 OA
ATOM     10  C   UNL     1      -9.362  -8.660  16.158  0.00  0.00    +0.171 C 
ATOM     11  C   UNL     1     -10.059  -7.482  16.811  0.00  0.00    +0.191 C 
ATOM     12  C   UNL     1      -9.531  -9.779  17.160  0.00  0.00    +0.133 C 
ATOM     13  C   UNL     1     -10.708  -6.795  15.634  0.00  0.00    +0.235 C 
ATOM     14  C   UNL     1     -10.872  -9.450  17.791  0.00  0.00    +0.183 C 
ATOM     15  C   UNL     1     -11.107  -7.964  14.762  0.00  0.00    +0.207 C 
ENDROOT
BRANCH  12   8
ATOM      8  N   UNL     1      -8.471  -9.767  18.140  0.00  0.00    -0.182 NA
ATOM     30  H   UNL     1      -8.023  -8.870  18.361  0.00  0.00    +0.148 HD
BRANCH   8   1
ATOM      1  S   UNL     1      -7.743 -11.225  18.617  0.00  0.00    +0.059 S 
ATOM      5  O   UNL     1      -8.416 -12.336  17.974  0.00  0.00    -0.153 OA
ATOM      6  O   UNL     1      -7.570 -11.212  20.058  0.00  0.00    -0.153 OA
BRANCH   1  23
ATOM     23  C   UNL     1      -6.132 -11.076  17.904  0.00  0.00    +0.105 A 
ATOM     24  C   UNL     1      -5.022 -11.593  18.572  0.00  0.00    +0.029 A 
ATOM     25  C   UNL     1      -5.971 -10.441  16.672  0.00  0.00    +0.029 A 
ATOM     26  C   UNL     1      -3.751 -11.474  18.010  0.00  0.00    +0.005 A 
ATOM     27  C   UNL     1      -4.700 -10.322  16.111  0.00  0.00    +0.005 A 
ATOM     28  C   UNL     1      -3.590 -10.839  16.779  0.00  0.00    -0.050 A 
ATOM     29  C   UNL     1      -2.231 -10.712  16.178  0.00  0.00    +0.044 C 
ENDBRANCH   1  23
ENDBRANCH   8   1
ENDBRANCH  12   8
BRANCH  13   4
ATOM      4  O   UNL     1     -11.813  -5.996  15.989  0.00  0.00    -0.442 OA
BRANCH   4  22
ATOM      7  O   UNL     1     -13.903  -6.679  15.324  0.00  0.00    -0.226 OA
ATOM      9  N   UNL     1     -12.663  -5.185  14.053  0.00  0.00    -0.278 N 
ATOM     22  C   UNL     1     -12.891  -6.012  15.132  0.00  0.00    +0.401 C 
ATOM     31  H   UNL     1     -11.759  -4.726  13.998  0.00  0.00    +0.152 HD
BRANCH   9  16
ATOM     16  C   UNL     1     -13.610  -4.989  12.978  0.00  0.00    +0.076 C 
ATOM     17  C   UNL     1     -13.482  -3.583  12.381  0.00  0.00    +0.022 C 
ATOM     18  C   UNL     1     -13.452  -6.067  11.900  0.00  0.00    +0.022 C 
ATOM     19  C   UNL     1     -12.204  -3.411  11.560  0.00  0.00    +0.002 C 
ATOM     20  C   UNL     1     -12.173  -5.890  11.080  0.00  0.00    +0.002 C 
ATOM     21  C   UNL     1     -12.075  -4.488  10.487  0.00  0.00    +0.000 C 
ENDBRANCH   9  16
ENDBRANCH   4  22
ENDBRANCH  13   4
TORSDOF 6
ENDMDL
MODEL 7
REMARK VINA RESULT:      -6.6      2.520      9.078
REMARK  Name = 40586240
REMARK  7 active torsions:
REMARK  status: ('A' for Active; 'I' for Inactive)
REMARK    1  A    between atoms: S_1  and  N_8
REMARK    2  A    between atoms: S_1  and  C_23
REMARK    3  A    between atoms: O_4  and  C_13
REMARK    4  A    between atoms: O_4  and  C_22
REMARK    5  A    between atoms: N_8  and  C_12
REMARK    6  A    between atoms: N_9  and  C_16
REMARK    7  A    between atoms: C_28  and  C_29
REMARK                            x       y       z     vdW  Elec       q    Type
REMARK                         _______ _______ _______ _____ _____    ______ ____
ROOT
ATOM      2  O   UNL     1     -17.083   3.053  26.938  0.00  0.00    -0.369 OA
ATOM      3  O   UNL     1     -18.049   0.145  26.825  0.00  0.00    -0.368 OA
ATOM     10  C   UNL     1     -16.747   0.709  27.084  0.00  0.00    +0.171 C 
ATOM     11  C   UNL     1     -16.607   1.923  26.186  0.00  0.00    +0.191 C 
ATOM     12  C   UNL     1     -16.701   1.286  28.481  0.00  0.00    +0.133 C 
ATOM     13  C   UNL     1     -17.529   1.587  25.039  0.00  0.00    +0.235 C 
ATOM     14  C   UNL     1     -17.345   2.647  28.290  0.00  0.00    +0.183 C 
ATOM     15  C   UNL     1     -18.655   0.858  25.737  0.00  0.00    +0.207 C 
ENDROOT
BRANCH  12   8
ATOM      8  N   UNL     1     -15.341   1.409  28.951  0.00  0.00    -0.182 NA
ATOM     30  H   UNL     1     -14.664   1.903  28.358  0.00  0.00    +0.148 HD
BRANCH   8   1
ATOM      1  S   UNL     1     -14.802   0.447  30.242  0.00  0.00    +0.059 S 
ATOM      5  O   UNL     1     -13.463  -0.035  29.960  0.00  0.00    -0.153 OA
ATOM      6  O   UNL     1     -15.852  -0.486  30.601  0.00  0.00    -0.153 OA
BRANCH   1  23
ATOM     23  C   UNL     1     -14.691   1.628  31.553  0.00  0.00    +0.105 A 
ATOM     24  C   UNL     1     -14.733   1.202  32.881  0.00  0.00    +0.029 A 
ATOM     25  C   UNL     1     -14.565   2.986  31.259  0.00  0.00    +0.029 A 
ATOM     26  C   UNL     1     -14.647   2.134  33.915  0.00  0.00    +0.005 A 
ATOM     27  C   UNL     1     -14.480   3.917  32.294  0.00  0.00    +0.005 A 
ATOM     28  C   UNL     1     -14.521   3.492  33.622  0.00  0.00    -0.050 A 
ATOM     29  C   UNL     1     -14.429   4.488  34.728  0.00  0.00    +0.044 C 
ENDBRANCH   1  23
ENDBRANCH   8   1
ENDBRANCH  12   8
BRANCH  13   4
ATOM      4  O   UNL     1     -17.986   2.719  24.335  0.00  0.00    -0.442 OA
BRANCH   4  22
ATOM      7  O   UNL     1     -16.944   2.158  22.366  0.00  0.00    -0.226 OA
ATOM      9  N   UNL     1     -17.234   4.375  22.986  0.00  0.00    -0.278 N 
ATOM     22  C   UNL     1     -17.347   3.011  23.150  0.00  0.00    +0.401 C 
ATOM     31  H   UNL     1     -17.574   4.967  23.738  0.00  0.00    +0.152 HD
BRANCH   9  16
ATOM     16  C   UNL     1     -16.610   4.996  21.839  0.00  0.00    +0.076 C 
ATOM     17  C   UNL     1     -17.251   6.353  21.530  0.00  0.00    +0.022 C 
ATOM     18  C   UNL     1     -15.097   5.129  22.040  0.00  0.00    +0.022 C 
ATOM     19  C   UNL     1     -16.887   7.420  22.562  0.00  0.00    +0.002 C 
ATOM     20  C   UNL     1     -14.736   6.199  23.072  0.00  0.00    +0.002 C 
ATOM     21  C   UNL     1     -15.377   7.542  22.736  0.00  0.00    +0.000 C 
ENDBRANCH   9  16
ENDBRANCH   4  22
ENDBRANCH  13   4
TORSDOF 6
ENDMDL
MODEL 8
REMARK VINA RESULT:      -6.4     19.047     20.536
REMARK  Name = 40586240
REMARK  7 active torsions:
REMARK  status: ('A' for Active; 'I' for Inactive)
REMARK    1  A    between atoms: S_1  and  N_8
REMARK    2  A    between atoms: S_1  and  C_23
REMARK    3  A    between atoms: O_4  and  C_13
REMARK    4  A    between atoms: O_4  and  C_22
REMARK    5  A    between atoms: N_8  and  C_12
REMARK    6  A    between atoms: N_9  and  C_16
REMARK    7  A    between atoms: C_28  and  C_29
REMARK                            x       y       z     vdW  Elec       q    Type
REMARK                         _______ _______ _______ _____ _____    ______ ____
ROOT
ATOM      2  O   UNL     1      -6.491 -10.504  17.315  0.00  0.00    -0.369 OA
ATOM      3  O   UNL     1      -4.395 -11.637  19.245  0.00  0.00    -0.368 OA
ATOM     10  C   UNL     1      -4.789 -12.043  17.918  0.00  0.00    +0.171 C 
ATOM     11  C   UNL     1      -6.288 -11.835  17.823  0.00  0.00    +0.191 C 
ATOM     12  C   UNL     1      -4.224 -11.085  16.894  0.00  0.00    +0.133 C 
ATOM     13  C   UNL     1      -6.726 -11.957  19.262  0.00  0.00    +0.235 C 
ATOM     14  C   UNL     1      -5.226  -9.943  16.933  0.00  0.00    +0.183 C 
ATOM     15  C   UNL     1      -5.572 -11.321  20.003  0.00  0.00    +0.207 C 
ENDROOT
BRANCH  12   8
ATOM      8  N   UNL     1      -4.170 -11.691  15.586  0.00  0.00    -0.182 NA
ATOM     30  H   UNL     1      -4.970 -12.256  15.277  0.00  0.00    +0.148 HD
BRANCH   8   1
ATOM      1  S   UNL     1      -2.690 -11.784  14.757  0.00  0.00    +0.059 S 
ATOM      5  O   UNL     1      -2.399 -13.168  14.440  0.00  0.00    -0.153 OA
ATOM      6  O   UNL     1      -1.711 -10.975  15.457  0.00  0.00    -0.153 OA
BRANCH   1  23
ATOM     23  C   UNL     1      -3.067 -10.946  13.247  0.00  0.00    +0.105 A 
ATOM     24  C   UNL     1      -2.047 -10.640  12.346  0.00  0.00    +0.029 A 
ATOM     25  C   UNL     1      -4.384 -10.589  12.958  0.00  0.00    +0.029 A 
ATOM     26  C   UNL     1      -2.344  -9.978  11.154  0.00  0.00    +0.005 A 
ATOM     27  C   UNL     1      -4.681  -9.925  11.767  0.00  0.00    +0.005 A 
ATOM     28  C   UNL     1      -3.661  -9.620  10.865  0.00  0.00    -0.050 A 
ATOM     29  C   UNL     1      -3.978  -8.911   9.592  0.00  0.00    +0.044 C 
ENDBRANCH   1  23
ENDBRANCH   8   1
ENDBRANCH  12   8
BRANCH  13   4
ATOM      4  O   UNL     1      -7.950 -11.314  19.533  0.00  0.00    -0.442 OA
BRANCH   4  22
ATOM      7  O   UNL     1      -9.041 -13.334  19.575  0.00  0.00    -0.226 OA
ATOM      9  N   UNL     1     -10.214 -11.332  19.573  0.00  0.00    -0.278 N 
ATOM     22  C   UNL     1      -9.074 -12.108  19.561  0.00  0.00    +0.401 C 
ATOM     31  H   UNL     1     -10.096 -10.326  19.514  0.00  0.00    +0.152 HD
BRANCH   9  16
ATOM     16  C   UNL     1     -11.554 -11.875  19.602  0.00  0.00    +0.076 C 
ATOM     17  C   UNL     1     -12.388 -11.225  20.712  0.00  0.00    +0.022 C 
ATOM     18  C   UNL     1     -12.237 -11.733  18.238  0.00  0.00    +0.022 C 
ATOM     19  C   UNL     1     -12.762  -9.778  20.390  0.00  0.00    +0.002 C 
ATOM     20  C   UNL     1     -12.611 -10.284  17.920  0.00  0.00    +0.002 C 
ATOM     21  C   UNL     1     -13.449  -9.663  19.033  0.00  0.00    +0.000 C 
ENDBRANCH   9  16
ENDBRANCH   4  22
ENDBRANCH  13   4
TORSDOF 6
ENDMDL
MODEL 9
REMARK VINA RESULT:      -6.4     20.747     24.089
REMARK  Name = 40586240
REMARK  7 active torsions:
REMARK  status: ('A' for Active; 'I' for Inactive)
REMARK    1  A    between atoms: S_1  and  N_8
REMARK    2  A    between atoms: S_1  and  C_23
REMARK    3  A    between atoms: O_4  and  C_13
REMARK    4  A    between atoms: O_4  and  C_22
REMARK    5  A    between atoms: N_8  and  C_12
REMARK    6  A    between atoms: N_9  and  C_16
REMARK    7  A    between atoms: C_28  and  C_29
REMARK                            x       y       z     vdW  Elec       q    Type
REMARK                         _______ _______ _______ _____ _____    ______ ____
ROOT
ATOM      2  O   UNL     1      -4.677 -11.627  10.364  0.00  0.00    -0.369 OA
ATOM      3  O   UNL     1      -3.517  -8.790  10.269  0.00  0.00    -0.368 OA
ATOM     10  C   UNL     1      -4.278  -9.478  11.284  0.00  0.00    +0.171 C 
ATOM     11  C   UNL     1      -5.292 -10.343  10.562  0.00  0.00    +0.191 C 
ATOM     12  C   UNL     1      -3.399 -10.475  12.003  0.00  0.00    +0.133 C 
ATOM     13  C   UNL     1      -5.480  -9.605   9.259  0.00  0.00    +0.235 C 
ATOM     14  C   UNL     1      -3.422 -11.666  11.061  0.00  0.00    +0.183 C 
ATOM     15  C   UNL     1      -4.089  -9.080   8.985  0.00  0.00    +0.207 C 
ENDROOT
BRANCH  12   8
ATOM      8  N   UNL     1      -3.945 -10.817  13.295  0.00  0.00    -0.182 NA
ATOM     30  H   UNL     1      -4.930 -10.594  13.481  0.00  0.00    +0.148 HD
BRANCH   8   1
ATOM      1  S   UNL     1      -2.903 -11.214  14.576  0.00  0.00    +0.059 S 
ATOM      5  O   UNL     1      -1.835 -10.236  14.652  0.00  0.00    -0.153 OA
ATOM      6  O   UNL     1      -2.593 -12.629  14.505  0.00  0.00    -0.153 OA
BRANCH   1  23
ATOM     23  C   UNL     1      -3.952 -10.985  15.981  0.00  0.00    +0.105 A 
ATOM     24  C   UNL     1      -3.518 -11.379  17.247  0.00  0.00    +0.029 A 
ATOM     25  C   UNL     1      -5.215 -10.414  15.823  0.00  0.00    +0.029 A 
ATOM     26  C   UNL     1      -4.346 -11.200  18.355  0.00  0.00    +0.005 A 
ATOM     27  C   UNL     1      -6.043 -10.236  16.931  0.00  0.00    +0.005 A 
ATOM     28  C   UNL     1      -5.609 -10.629  18.197  0.00  0.00    -0.050 A 
ATOM     29  C   UNL     1      -6.494 -10.438  19.382  0.00  0.00    +0.044 C 
ENDBRANCH   1  23
ENDBRANCH   8   1
ENDBRANCH  12   8
BRANCH  13   4
ATOM      4  O   UNL     1      -5.954 -10.423   8.213  0.00  0.00    -0.442 OA
BRANCH   4  22
ATOM      7  O   UNL     1      -6.422  -9.825   6.045  0.00  0.00    -0.226 OA
ATOM      9  N   UNL     1      -7.804  -9.186   7.796  0.00  0.00    -0.278 N 
ATOM     22  C   UNL     1      -6.707  -9.808   7.238  0.00  0.00    +0.401 C 
ATOM     31  H   UNL     1      -7.894  -9.214   8.807  0.00  0.00    +0.152 HD
BRANCH   9  16
ATOM     16  C   UNL     1      -8.788  -8.454   7.029  0.00  0.00    +0.076 C 
ATOM     17  C   UNL     1     -10.154  -8.473   7.723  0.00  0.00    +0.022 C 
ATOM     18  C   UNL     1      -8.320  -7.019   6.761  0.00  0.00    +0.022 C 
ATOM     19  C   UNL     1     -10.184  -7.601   8.978  0.00  0.00    +0.002 C 
ATOM     20  C   UNL     1      -8.354  -6.149   8.018  0.00  0.00    +0.002 C 
ATOM     21  C   UNL     1      -9.726  -6.176   8.684  0.00  0.00    +0.000 C 
ENDBRANCH   9  16
ENDBRANCH   4  22
ENDBRANCH  13   4
TORSDOF 6
ENDMDL
MODEL 10
REMARK VINA RESULT:      -6.2     19.357     22.451
REMARK  Name = 40586240
REMARK  7 active torsions:
REMARK  status: ('A' for Active; 'I' for Inactive)
REMARK    1  A    between atoms: S_1  and  N_8
REMARK    2  A    between atoms: S_1  and  C_23
REMARK    3  A    between atoms: O_4  and  C_13
REMARK    4  A    between atoms: O_4  and  C_22
REMARK    5  A    between atoms: N_8  and  C_12
REMARK    6  A    between atoms: N_9  and  C_16
REMARK    7  A    between atoms: C_28  and  C_29
REMARK                            x       y       z     vdW  Elec       q    Type
REMARK                         _______ _______ _______ _____ _____    ______ ____
ROOT
ATOM      2  O   UNL     1     -10.025  -8.540   9.068  0.00  0.00    -0.369 OA
ATOM      3  O   UNL     1      -8.904  -7.219   6.538  0.00  0.00    -0.368 OA
ATOM     10  C   UNL     1      -8.249  -7.752   7.708  0.00  0.00    +0.171 C 
ATOM     11  C   UNL     1      -9.135  -7.424   8.894  0.00  0.00    +0.191 C 
ATOM     12  C   UNL     1      -8.251  -9.262   7.661  0.00  0.00    +0.133 C 
ATOM     13  C   UNL     1      -9.868  -6.192   8.423  0.00  0.00    +0.235 C 
ATOM     14  C   UNL     1      -9.637  -9.600   8.181  0.00  0.00    +0.183 C 
ATOM     15  C   UNL     1     -10.061  -6.478   6.951  0.00  0.00    +0.207 C 
ENDROOT
BRANCH  12   8
ATOM      8  N   UNL     1      -7.222  -9.813   8.510  0.00  0.00    -0.182 NA
ATOM     30  H   UNL     1      -7.150  -9.467   9.474  0.00  0.00    +0.148 HD
BRANCH   8   1
ATOM      1  S   UNL     1      -5.950 -10.707   7.828  0.00  0.00    +0.059 S 
ATOM      5  O   UNL     1      -5.476 -10.040   6.631  0.00  0.00    -0.153 OA
ATOM      6  O   UNL     1      -6.334 -12.105   7.780  0.00  0.00    -0.153 OA
BRANCH   1  23
ATOM     23  C   UNL     1      -4.697 -10.560   9.067  0.00  0.00    +0.105 A 
ATOM     24  C   UNL     1      -4.337 -11.669   9.831  0.00  0.00    +0.029 A 
ATOM     25  C   UNL     1      -4.070  -9.332   9.281  0.00  0.00    +0.029 A 
ATOM     26  C   UNL     1      -3.350 -11.553  10.809  0.00  0.00    +0.005 A 
ATOM     27  C   UNL     1      -3.084  -9.215  10.260  0.00  0.00    +0.005 A 
ATOM     28  C   UNL     1      -2.723 -10.325  11.024  0.00  0.00    -0.050 A 
ATOM     29  C   UNL     1      -1.668 -10.200  12.070  0.00  0.00    +0.044 C 
ENDBRANCH   1  23
ENDBRANCH   8   1
ENDBRANCH  12   8
BRANCH  13   4
ATOM      4  O   UNL     1     -11.092  -5.977   9.088  0.00  0.00    -0.442 OA
BRANCH   4  22
ATOM      7  O   UNL     1     -10.752  -3.716   9.298  0.00  0.00    -0.226 OA
ATOM      9  N   UNL     1     -12.057  -4.884  10.820  0.00  0.00    -0.278 N 
ATOM     22  C   UNL     1     -11.257  -4.757   9.704  0.00  0.00    +0.401 C 
ATOM     31  H   UNL     1     -12.371  -5.817  11.067  0.00  0.00    +0.152 HD
BRANCH   9  16
ATOM     16  C   UNL     1     -12.415  -3.778  11.680  0.00  0.00    +0.076 C 
ATOM     17  C   UNL     1     -13.758  -3.168  11.262  0.00  0.00    +0.022 C 
ATOM     18  C   UNL     1     -12.433  -4.207  13.151  0.00  0.00    +0.022 C 
ATOM     19  C   UNL     1     -14.941  -4.077  11.596  0.00  0.00    +0.002 C 
ATOM     20  C   UNL     1     -13.619  -5.114  13.481  0.00  0.00    +0.002 C 
ATOM     21  C   UNL     1     -14.944  -4.481  13.066  0.00  0.00    +0.000 C 
ENDBRANCH   9  16
ENDBRANCH   4  22
ENDBRANCH  13   4
TORSDOF 6
ENDMDL
