MODEL 1
REMARK VINA RESULT:      -7.0      0.000      0.000
REMARK  Name = 45361016
REMARK  10 active torsions:
REMARK  status: ('A' for Active; 'I' for Inactive)
REMARK    1  A    between atoms: O_4  and  C_26
REMARK    2  A    between atoms: O_4  and  C_29
REMARK    3  A    between atoms: N_5  and  C_16
REMARK    4  A    between atoms: N_6  and  C_18
REMARK    5  A    between atoms: N_8  and  C_27
REMARK    6  A    between atoms: C_13  and  C_17
REMARK    7  A    between atoms: C_16  and  C_20
REMARK    8  A    between atoms: C_17  and  C_19
REMARK    9  A    between atoms: C_19  and  C_21
REMARK   10  A    between atoms: C_27  and  C_28
REMARK                            x       y       z     vdW  Elec       q    Type
REMARK                         _______ _______ _______ _____ _____    ______ ____
ROOT
ATOM      2  O   UNL     1     -13.200   4.809  23.064  0.00  0.00    -0.274 OA
ATOM      5  N   UNL     1     -14.808   6.590  21.825  0.00  0.00    -0.286 NA
ATOM      6  N   UNL     1     -16.890   3.704  22.675  0.00  0.00    -0.296 NA
ATOM      7  N   UNL     1     -14.772   4.141  24.586  0.00  0.00    -0.312 N 
ATOM      9  C   UNL     1     -16.673   5.134  22.367  0.00  0.00    +0.084 C 
ATOM     10  C   UNL     1     -15.404   5.832  22.941  0.00  0.00    +0.161 C 
ATOM     11  C   UNL     1     -16.553   5.438  20.862  0.00  0.00    +0.036 C 
ATOM     12  C   UNL     1     -15.855   6.781  20.829  0.00  0.00    +0.087 C 
ATOM     13  C   UNL     1     -17.092   3.408  24.121  0.00  0.00    +0.074 C 
ATOM     14  C   UNL     1     -14.346   4.887  23.503  0.00  0.00    +0.232 C 
ATOM     15  C   UNL     1     -16.137   4.151  25.075  0.00  0.00    +0.123 C 
ATOM     18  C   UNL     1     -18.005   3.160  21.882  0.00  0.00    +0.105 C 
ATOM     33  H   UNL     1     -14.110   3.508  25.022  0.00  0.00    +0.149 HD
ENDROOT
BRANCH   5  16
ATOM     16  C   UNL     1     -14.208   7.852  22.240  0.00  0.00    +0.120 C 
BRANCH  16  20
ATOM     20  C   UNL     1     -13.060   8.246  21.350  0.00  0.00    -0.033 A 
ATOM     22  C   UNL     1     -12.226   7.267  20.811  0.00  0.00    +0.008 A 
ATOM     23  C   UNL     1     -12.829   9.592  21.065  0.00  0.00    +0.008 A 
ATOM     24  C   UNL     1     -11.163   7.632  19.987  0.00  0.00    +0.046 A 
ATOM     25  C   UNL     1     -11.765   9.958  20.241  0.00  0.00    +0.046 A 
ATOM     26  C   UNL     1     -10.932   8.978  19.702  0.00  0.00    +0.120 A 
BRANCH  26   4
ATOM      4  O   UNL     1      -9.894   9.335  18.896  0.00  0.00    -0.495 OA
ATOM     29  C   UNL     1     -10.096   9.222  17.488  0.00  0.00    +0.277 C 
ENDBRANCH  26   4
ENDBRANCH  16  20
ENDBRANCH   5  16
BRANCH  13  17
ATOM     17  C   UNL     1     -16.935   1.896  24.391  0.00  0.00    +0.029 C 
BRANCH  17  19
ATOM     19  C   UNL     1     -18.221   1.313  24.946  0.00  0.00    +0.097 C 
BRANCH  19  21
ATOM      3  O   UNL     1     -18.608  -0.370  26.642  0.00  0.00    -0.276 OA
ATOM      8  N   UNL     1     -17.020   1.279  27.029  0.00  0.00    -0.311 N 
ATOM     21  C   UNL     1     -17.995   0.631  26.283  0.00  0.00    +0.213 C 
ATOM     34  H   UNL     1     -16.553   2.095  26.642  0.00  0.00    +0.149 HD
BRANCH   8  27
ATOM     27  C   UNL     1     -16.624   0.825  28.340  0.00  0.00    +0.146 C 
BRANCH  27  28
ATOM      1  S   UNL     1     -14.415   1.294  29.963  0.00  0.00    -0.100 S 
ATOM     28  C   UNL     1     -15.756   1.833  29.044  0.00  0.00    +0.007 A 
ATOM     30  C   UNL     1     -15.880   3.204  29.067  0.00  0.00    +0.013 A 
ATOM     31  C   UNL     1     -14.861   3.822  29.849  0.00  0.00    +0.008 A 
ATOM     32  C   UNL     1     -13.997   2.898  30.393  0.00  0.00    +0.045 A 
ENDBRANCH  27  28
ENDBRANCH   8  27
ENDBRANCH  19  21
ENDBRANCH  17  19
ENDBRANCH  13  17
TORSDOF 8
ENDMDL
MODEL 2
REMARK VINA RESULT:      -6.6     19.390     20.486
REMARK  Name = 45361016
REMARK  10 active torsions:
REMARK  status: ('A' for Active; 'I' for Inactive)
REMARK    1  A    between atoms: O_4  and  C_26
REMARK    2  A    between atoms: O_4  and  C_29
REMARK    3  A    between atoms: N_5  and  C_16
REMARK    4  A    between atoms: N_6  and  C_18
REMARK    5  A    between atoms: N_8  and  C_27
REMARK    6  A    between atoms: C_13  and  C_17
REMARK    7  A    between atoms: C_16  and  C_20
REMARK    8  A    between atoms: C_17  and  C_19
REMARK    9  A    between atoms: C_19  and  C_21
REMARK   10  A    between atoms: C_27  and  C_28
REMARK                            x       y       z     vdW  Elec       q    Type
REMARK                         _______ _______ _______ _____ _____    ______ ____
ROOT
ATOM      2  O   UNL     1      -5.967  -9.489  13.276  0.00  0.00    -0.274 OA
ATOM      5  N   UNL     1      -3.840 -10.517  11.968  0.00  0.00    -0.286 NA
ATOM      6  N   UNL     1      -3.126 -10.819  15.544  0.00  0.00    -0.296 NA
ATOM      7  N   UNL     1      -5.942 -11.042  14.956  0.00  0.00    -0.312 N 
ATOM      9  C   UNL     1      -2.975 -11.214  14.127  0.00  0.00    +0.084 C 
ATOM     10  C   UNL     1      -4.237 -11.199  13.214  0.00  0.00    +0.161 C 
ATOM     11  C   UNL     1      -1.995 -10.329  13.333  0.00  0.00    +0.036 C 
ATOM     12  C   UNL     1      -2.385 -10.578  11.891  0.00  0.00    +0.087 C 
ATOM     13  C   UNL     1      -4.005 -11.717  16.344  0.00  0.00    +0.074 C 
ATOM     14  C   UNL     1      -5.447 -10.473  13.797  0.00  0.00    +0.232 C 
ATOM     15  C   UNL     1      -5.304 -12.151  15.638  0.00  0.00    +0.123 C 
ATOM     18  C   UNL     1      -1.811 -10.682  16.193  0.00  0.00    +0.105 C 
ATOM     33  H   UNL     1      -6.761 -10.621  15.384  0.00  0.00    +0.149 HD
ENDROOT
BRANCH   5  16
ATOM     16  C   UNL     1      -4.476 -11.069  10.779  0.00  0.00    +0.120 C 
BRANCH  16  20
ATOM     20  C   UNL     1      -5.530 -10.148  10.228  0.00  0.00    -0.033 A 
ATOM     22  C   UNL     1      -6.838 -10.604  10.061  0.00  0.00    +0.008 A 
ATOM     23  C   UNL     1      -5.200  -8.837   9.884  0.00  0.00    +0.008 A 
ATOM     24  C   UNL     1      -7.815  -9.750   9.551  0.00  0.00    +0.046 A 
ATOM     25  C   UNL     1      -6.177  -7.983   9.373  0.00  0.00    +0.046 A 
ATOM     26  C   UNL     1      -7.484  -8.439   9.206  0.00  0.00    +0.120 A 
BRANCH  26   4
ATOM      4  O   UNL     1      -8.438  -7.605   8.709  0.00  0.00    -0.495 OA
ATOM     29  C   UNL     1      -7.997  -6.548   7.858  0.00  0.00    +0.277 C 
ENDBRANCH  26   4
ENDBRANCH  16  20
ENDBRANCH   5  16
BRANCH  13  17
ATOM     17  C   UNL     1      -4.403 -11.041  17.674  0.00  0.00    +0.029 C 
BRANCH  17  19
ATOM     19  C   UNL     1      -4.867 -12.074  18.684  0.00  0.00    +0.097 C 
BRANCH  19  21
ATOM      3  O   UNL     1      -6.049 -11.211  20.612  0.00  0.00    -0.276 OA
ATOM      8  N   UNL     1      -7.236 -11.659  18.668  0.00  0.00    -0.311 N 
ATOM     21  C   UNL     1      -6.089 -11.599  19.448  0.00  0.00    +0.213 C 
ATOM     34  H   UNL     1      -7.170 -11.979  17.705  0.00  0.00    +0.149 HD
BRANCH   8  27
ATOM     27  C   UNL     1      -8.530 -11.262  19.168  0.00  0.00    +0.146 C 
BRANCH  27  28
ATOM      1  S   UNL     1      -8.140  -9.294  17.241  0.00  0.00    -0.100 S 
ATOM     28  C   UNL     1      -9.124 -10.142  18.356  0.00  0.00    +0.007 A 
ATOM     30  C   UNL     1     -10.416  -9.663  18.372  0.00  0.00    +0.013 A 
ATOM     31  C   UNL     1     -10.600  -8.587  17.457  0.00  0.00    +0.008 A 
ATOM     32  C   UNL     1      -9.442  -8.284  16.776  0.00  0.00    +0.045 A 
ENDBRANCH  27  28
ENDBRANCH   8  27
ENDBRANCH  19  21
ENDBRANCH  17  19
ENDBRANCH  13  17
TORSDOF 8
ENDMDL
MODEL 3
REMARK VINA RESULT:      -6.6     18.349     20.529
REMARK  Name = 45361016
REMARK  10 active torsions:
REMARK  status: ('A' for Active; 'I' for Inactive)
REMARK    1  A    between atoms: O_4  and  C_26
REMARK    2  A    between atoms: O_4  and  C_29
REMARK    3  A    between atoms: N_5  and  C_16
REMARK    4  A    between atoms: N_6  and  C_18
REMARK    5  A    between atoms: N_8  and  C_27
REMARK    6  A    between atoms: C_13  and  C_17
REMARK    7  A    between atoms: C_16  and  C_20
REMARK    8  A    between atoms: C_17  and  C_19
REMARK    9  A    between atoms: C_19  and  C_21
REMARK   10  A    between atoms: C_27  and  C_28
REMARK                            x       y       z     vdW  Elec       q    Type
REMARK                         _______ _______ _______ _____ _____    ______ ____
ROOT
ATOM      2  O   UNL     1      -8.208  -9.441  15.333  0.00  0.00    -0.274 OA
ATOM      5  N   UNL     1      -9.139 -10.664  17.553  0.00  0.00    -0.286 NA
ATOM      6  N   UNL     1      -5.944 -12.250  16.738  0.00  0.00    -0.296 NA
ATOM      7  N   UNL     1      -6.017  -9.464  15.993  0.00  0.00    -0.312 N 
ATOM      9  C   UNL     1      -7.025 -11.853  17.666  0.00  0.00    +0.084 C 
ATOM     10  C   UNL     1      -7.681 -10.452  17.483  0.00  0.00    +0.161 C 
ATOM     11  C   UNL     1      -8.250 -12.786  17.635  0.00  0.00    +0.036 C 
ATOM     12  C   UNL     1      -9.354 -11.938  18.229  0.00  0.00    +0.087 C 
ATOM     13  C   UNL     1      -4.720 -11.406  16.819  0.00  0.00    +0.074 C 
ATOM     14  C   UNL     1      -7.357  -9.754  16.164  0.00  0.00    +0.232 C 
ATOM     15  C   UNL     1      -4.983  -9.890  16.915  0.00  0.00    +0.123 C 
ATOM     18  C   UNL     1      -5.597 -13.670  16.916  0.00  0.00    +0.105 C 
ATOM     33  H   UNL     1      -5.736  -8.979  15.146  0.00  0.00    +0.149 HD
ENDROOT
BRANCH   5  16
ATOM     16  C   UNL     1      -9.851  -9.571  18.203  0.00  0.00    +0.120 C 
BRANCH  16  20
ATOM     20  C   UNL     1     -10.733  -8.825  17.238  0.00  0.00    -0.033 A 
ATOM     22  C   UNL     1     -10.593  -7.445  17.087  0.00  0.00    +0.008 A 
ATOM     23  C   UNL     1     -11.691  -9.513  16.495  0.00  0.00    +0.008 A 
ATOM     24  C   UNL     1     -11.410  -6.755  16.194  0.00  0.00    +0.046 A 
ATOM     25  C   UNL     1     -12.509  -8.823  15.601  0.00  0.00    +0.046 A 
ATOM     26  C   UNL     1     -12.369  -7.443  15.450  0.00  0.00    +0.120 A 
BRANCH  26   4
ATOM      4  O   UNL     1     -13.166  -6.769  14.577  0.00  0.00    -0.495 OA
ATOM     29  C   UNL     1     -12.750  -5.459  14.196  0.00  0.00    +0.277 C 
ENDBRANCH  26   4
ENDBRANCH  16  20
ENDBRANCH   5  16
BRANCH  13  17
ATOM     17  C   UNL     1      -3.816 -11.643  15.591  0.00  0.00    +0.029 C 
BRANCH  17  19
ATOM     19  C   UNL     1      -2.422 -11.096  15.835  0.00  0.00    +0.097 C 
BRANCH  19  21
ATOM      3  O   UNL     1      -1.044  -9.525  14.613  0.00  0.00    -0.276 OA
ATOM      8  N   UNL     1      -2.338 -11.049  13.432  0.00  0.00    -0.311 N 
ATOM     21  C   UNL     1      -1.846 -10.455  14.586  0.00  0.00    +0.213 C 
ATOM     34  H   UNL     1      -2.988 -11.827  13.508  0.00  0.00    +0.149 HD
BRANCH   8  27
ATOM     27  C   UNL     1      -1.942 -10.617  12.114  0.00  0.00    +0.146 C 
BRANCH  27  28
ATOM      1  S   UNL     1      -4.679 -10.143  11.971  0.00  0.00    -0.100 S 
ATOM     28  C   UNL     1      -3.085  -9.986  11.365  0.00  0.00    +0.007 A 
ATOM     30  C   UNL     1      -3.046  -9.258  10.196  0.00  0.00    +0.013 A 
ATOM     31  C   UNL     1      -4.342  -8.823   9.792  0.00  0.00    +0.008 A 
ATOM     32  C   UNL     1      -5.321  -9.235  10.668  0.00  0.00    +0.045 A 
ENDBRANCH  27  28
ENDBRANCH   8  27
ENDBRANCH  19  21
ENDBRANCH  17  19
ENDBRANCH  13  17
TORSDOF 8
ENDMDL
MODEL 4
REMARK VINA RESULT:      -6.3     17.645     19.543
REMARK  Name = 45361016
REMARK  10 active torsions:
REMARK  status: ('A' for Active; 'I' for Inactive)
REMARK    1  A    between atoms: O_4  and  C_26
REMARK    2  A    between atoms: O_4  and  C_29
REMARK    3  A    between atoms: N_5  and  C_16
REMARK    4  A    between atoms: N_6  and  C_18
REMARK    5  A    between atoms: N_8  and  C_27
REMARK    6  A    between atoms: C_13  and  C_17
REMARK    7  A    between atoms: C_16  and  C_20
REMARK    8  A    between atoms: C_17  and  C_19
REMARK    9  A    between atoms: C_19  and  C_21
REMARK   10  A    between atoms: C_27  and  C_28
REMARK                            x       y       z     vdW  Elec       q    Type
REMARK                         _______ _______ _______ _____ _____    ______ ____
ROOT
ATOM      2  O   UNL     1      -8.178  -8.944  16.735  0.00  0.00    -0.274 OA
ATOM      5  N   UNL     1     -10.485 -10.242  17.271  0.00  0.00    -0.286 NA
ATOM      6  N   UNL     1      -7.770 -12.614  17.898  0.00  0.00    -0.296 NA
ATOM      7  N   UNL     1      -7.009  -9.889  18.460  0.00  0.00    -0.312 N 
ATOM      9  C   UNL     1      -9.140 -12.089  18.091  0.00  0.00    +0.084 C 
ATOM     10  C   UNL     1      -9.340 -10.546  18.151  0.00  0.00    +0.161 C 
ATOM     11  C   UNL     1     -10.127 -12.498  16.981  0.00  0.00    +0.036 C 
ATOM     12  C   UNL     1     -11.240 -11.478  17.108  0.00  0.00    +0.087 C 
ATOM     13  C   UNL     1      -6.827 -12.298  19.006  0.00  0.00    +0.074 C 
ATOM     14  C   UNL     1      -8.143  -9.720  17.688  0.00  0.00    +0.232 C 
ATOM     15  C   UNL     1      -6.911 -10.853  19.537  0.00  0.00    +0.123 C 
ATOM     18  C   UNL     1      -7.796 -14.065  17.648  0.00  0.00    +0.105 C 
ATOM     33  H   UNL     1      -6.182  -9.351  18.220  0.00  0.00    +0.149 HD
ENDROOT
BRANCH   5  16
ATOM     16  C   UNL     1     -11.317  -9.151  17.763  0.00  0.00    +0.120 C 
BRANCH  16  20
ATOM     20  C   UNL     1     -11.546  -8.102  16.710  0.00  0.00    -0.033 A 
ATOM     22  C   UNL     1     -12.449  -8.337  15.673  0.00  0.00    +0.008 A 
ATOM     23  C   UNL     1     -10.854  -6.892  16.769  0.00  0.00    +0.008 A 
ATOM     24  C   UNL     1     -12.661  -7.364  14.697  0.00  0.00    +0.046 A 
ATOM     25  C   UNL     1     -11.065  -5.918  15.793  0.00  0.00    +0.046 A 
ATOM     26  C   UNL     1     -11.969  -6.155  14.757  0.00  0.00    +0.120 A 
BRANCH  26   4
ATOM      4  O   UNL     1     -12.176  -5.204  13.805  0.00  0.00    -0.495 OA
ATOM     29  C   UNL     1     -13.527  -4.822  13.553  0.00  0.00    +0.277 C 
ENDBRANCH  26   4
ENDBRANCH  16  20
ENDBRANCH   5  16
BRANCH  13  17
ATOM     17  C   UNL     1      -5.369 -12.545  18.563  0.00  0.00    +0.029 C 
BRANCH  17  19
ATOM     19  C   UNL     1      -5.252 -12.500  17.051  0.00  0.00    +0.097 C 
BRANCH  19  21
ATOM      3  O   UNL     1      -4.405 -10.233  16.996  0.00  0.00    -0.276 OA
ATOM      8  N   UNL     1      -3.385 -11.852  15.681  0.00  0.00    -0.311 N 
ATOM     21  C   UNL     1      -4.322 -11.391  16.595  0.00  0.00    +0.213 C 
ATOM     34  H   UNL     1      -3.382 -12.834  15.419  0.00  0.00    +0.149 HD
BRANCH   8  27
ATOM     27  C   UNL     1      -2.388 -10.988  15.097  0.00  0.00    +0.146 C 
BRANCH  27  28
ATOM      1  S   UNL     1      -4.321 -10.604  13.133  0.00  0.00    -0.100 S 
ATOM     28  C   UNL     1      -2.691 -10.677  13.655  0.00  0.00    +0.007 A 
ATOM     30  C   UNL     1      -1.808 -10.428  12.628  0.00  0.00    +0.013 A 
ATOM     31  C   UNL     1      -2.477 -10.174  11.396  0.00  0.00    +0.008 A 
ATOM     32  C   UNL     1      -3.847 -10.238  11.529  0.00  0.00    +0.045 A 
ENDBRANCH  27  28
ENDBRANCH   8  27
ENDBRANCH  19  21
ENDBRANCH  17  19
ENDBRANCH  13  17
TORSDOF 8
ENDMDL
MODEL 5
REMARK VINA RESULT:      -6.3     30.013     35.367
REMARK  Name = 45361016
REMARK  10 active torsions:
REMARK  status: ('A' for Active; 'I' for Inactive)
REMARK    1  A    between atoms: O_4  and  C_26
REMARK    2  A    between atoms: O_4  and  C_29
REMARK    3  A    between atoms: N_5  and  C_16
REMARK    4  A    between atoms: N_6  and  C_18
REMARK    5  A    between atoms: N_8  and  C_27
REMARK    6  A    between atoms: C_13  and  C_17
REMARK    7  A    between atoms: C_16  and  C_20
REMARK    8  A    between atoms: C_17  and  C_19
REMARK    9  A    between atoms: C_19  and  C_21
REMARK   10  A    between atoms: C_27  and  C_28
REMARK                            x       y       z     vdW  Elec       q    Type
REMARK                         _______ _______ _______ _____ _____    ______ ____
ROOT
ATOM      2  O   UNL     1      10.779   3.885   2.942  0.00  0.00    -0.274 OA
ATOM      5  N   UNL     1      12.361   6.071   3.023  0.00  0.00    -0.286 NA
ATOM      6  N   UNL     1      13.125   4.333  -0.105  0.00  0.00    -0.296 NA
ATOM      7  N   UNL     1      10.371   4.014   0.693  0.00  0.00    -0.312 N 
ATOM      9  C   UNL     1      13.057   5.531   0.761  0.00  0.00    +0.084 C 
ATOM     10  C   UNL     1      11.826   5.697   1.700  0.00  0.00    +0.161 C 
ATOM     11  C   UNL     1      14.233   5.655   1.748  0.00  0.00    +0.036 C 
ATOM     12  C   UNL     1      13.704   6.598   2.808  0.00  0.00    +0.087 C 
ATOM     13  C   UNL     1      12.040   4.245  -1.122  0.00  0.00    +0.074 C 
ATOM     14  C   UNL     1      10.965   4.447   1.864  0.00  0.00    +0.232 C 
ATOM     15  C   UNL     1      10.634   4.605  -0.603  0.00  0.00    +0.123 C 
ATOM     18  C   UNL     1      14.443   4.231  -0.755  0.00  0.00    +0.105 C 
ATOM     33  H   UNL     1       9.766   3.199   0.737  0.00  0.00    +0.149 HD
ENDROOT
BRANCH   5  16
ATOM     16  C   UNL     1      11.512   7.010   3.744  0.00  0.00    +0.120 C 
BRANCH  16  20
ATOM     20  C   UNL     1      11.264   6.568   5.161  0.00  0.00    -0.033 A 
ATOM     22  C   UNL     1      10.093   5.883   5.484  0.00  0.00    +0.008 A 
ATOM     23  C   UNL     1      12.206   6.842   6.153  0.00  0.00    +0.008 A 
ATOM     24  C   UNL     1       9.864   5.473   6.796  0.00  0.00    +0.046 A 
ATOM     25  C   UNL     1      11.977   6.432   7.466  0.00  0.00    +0.046 A 
ATOM     26  C   UNL     1      10.806   5.747   7.788  0.00  0.00    +0.120 A 
BRANCH  26   4
ATOM      4  O   UNL     1      10.582   5.346   9.069  0.00  0.00    -0.495 OA
ATOM     29  C   UNL     1       9.429   4.539   9.305  0.00  0.00    +0.277 C 
ENDBRANCH  26   4
ENDBRANCH  16  20
ENDBRANCH   5  16
BRANCH  13  17
ATOM     17  C   UNL     1      11.966   2.821  -1.713  0.00  0.00    +0.029 C 
BRANCH  17  19
ATOM     19  C   UNL     1      11.855   2.871  -3.225  0.00  0.00    +0.097 C 
BRANCH  19  21
ATOM      3  O   UNL     1       9.573   2.075  -3.355  0.00  0.00    -0.276 OA
ATOM      8  N   UNL     1      10.159   4.012  -4.492  0.00  0.00    -0.311 N 
ATOM     21  C   UNL     1      10.408   2.915  -3.678  0.00  0.00    +0.213 C 
ATOM     34  H   UNL     1      10.911   4.666  -4.693  0.00  0.00    +0.149 HD
BRANCH   8  27
ATOM     27  C   UNL     1       8.857   4.276  -5.053  0.00  0.00    +0.146 C 
BRANCH  27  28
ATOM      1  S   UNL     1       6.510   5.730  -4.718  0.00  0.00    -0.100 S 
ATOM     28  C   UNL     1       8.117   5.334  -4.279  0.00  0.00    +0.007 A 
ATOM     30  C   UNL     1       8.559   6.080  -3.209  0.00  0.00    +0.013 A 
ATOM     31  C   UNL     1       7.565   6.988  -2.742  0.00  0.00    +0.008 A 
ATOM     32  C   UNL     1       6.402   6.902  -3.473  0.00  0.00    +0.045 A 
ENDBRANCH  27  28
ENDBRANCH   8  27
ENDBRANCH  19  21
ENDBRANCH  17  19
ENDBRANCH  13  17
TORSDOF 8
ENDMDL
MODEL 6
REMARK VINA RESULT:      -6.3     30.714     34.766
REMARK  Name = 45361016
REMARK  10 active torsions:
REMARK  status: ('A' for Active; 'I' for Inactive)
REMARK    1  A    between atoms: O_4  and  C_26
REMARK    2  A    between atoms: O_4  and  C_29
REMARK    3  A    between atoms: N_5  and  C_16
REMARK    4  A    between atoms: N_6  and  C_18
REMARK    5  A    between atoms: N_8  and  C_27
REMARK    6  A    between atoms: C_13  and  C_17
REMARK    7  A    between atoms: C_16  and  C_20
REMARK    8  A    between atoms: C_17  and  C_19
REMARK    9  A    between atoms: C_19  and  C_21
REMARK   10  A    between atoms: C_27  and  C_28
REMARK                            x       y       z     vdW  Elec       q    Type
REMARK                         _______ _______ _______ _____ _____    ______ ____
ROOT
ATOM      2  O   UNL     1      20.304   6.213  24.199  0.00  0.00    -0.274 OA
ATOM      5  N   UNL     1      21.564   5.186  22.042  0.00  0.00    -0.286 NA
ATOM      6  N   UNL     1      18.538   6.833  20.809  0.00  0.00    -0.296 NA
ATOM      7  N   UNL     1      19.629   8.129  23.145  0.00  0.00    -0.312 N 
ATOM      9  C   UNL     1      19.917   6.317  20.664  0.00  0.00    +0.084 C 
ATOM     10  C   UNL     1      20.903   6.491  21.857  0.00  0.00    +0.161 C 
ATOM     11  C   UNL     1      19.993   4.801  20.404  0.00  0.00    +0.036 C 
ATOM     12  C   UNL     1      21.412   4.448  20.795  0.00  0.00    +0.087 C 
ATOM     13  C   UNL     1      18.446   8.310  20.976  0.00  0.00    +0.074 C 
ATOM     14  C   UNL     1      20.254   6.896  23.177  0.00  0.00    +0.232 C 
ATOM     15  C   UNL     1      19.484   8.920  21.939  0.00  0.00    +0.123 C 
ATOM     18  C   UNL     1      17.693   6.393  19.686  0.00  0.00    +0.105 C 
ATOM     33  H   UNL     1      19.196   8.469  23.998  0.00  0.00    +0.149 HD
ENDROOT
BRANCH   5  16
ATOM     16  C   UNL     1      22.959   5.297  22.448  0.00  0.00    +0.120 C 
BRANCH  16  20
ATOM     20  C   UNL     1      23.572   3.951  22.726  0.00  0.00    -0.033 A 
ATOM     22  C   UNL     1      22.994   3.102  23.670  0.00  0.00    +0.008 A 
ATOM     23  C   UNL     1      24.719   3.552  22.039  0.00  0.00    +0.008 A 
ATOM     24  C   UNL     1      23.562   1.855  23.927  0.00  0.00    +0.046 A 
ATOM     25  C   UNL     1      25.287   2.305  22.296  0.00  0.00    +0.046 A 
ATOM     26  C   UNL     1      24.709   1.456  23.240  0.00  0.00    +0.120 A 
BRANCH  26   4
ATOM      4  O   UNL     1      25.262   0.238  23.490  0.00  0.00    -0.495 OA
ATOM     29  C   UNL     1      26.328  -0.178  22.638  0.00  0.00    +0.277 C 
ENDBRANCH  26   4
ENDBRANCH  16  20
ENDBRANCH   5  16
BRANCH  13  17
ATOM     17  C   UNL     1      17.046   8.711  21.487  0.00  0.00    +0.029 C 
BRANCH  17  19
ATOM     19  C   UNL     1      16.348   9.616  20.489  0.00  0.00    +0.097 C 
BRANCH  19  21
ATOM      3  O   UNL     1      14.650   9.290  18.796  0.00  0.00    -0.276 OA
ATOM      8  N   UNL     1      14.696   7.876  20.637  0.00  0.00    -0.311 N 
ATOM     21  C   UNL     1      15.147   8.935  19.861  0.00  0.00    +0.213 C 
ATOM     34  H   UNL     1      15.182   7.643  21.498  0.00  0.00    +0.149 HD
BRANCH   8  27
ATOM     27  C   UNL     1      13.563   7.068  20.254  0.00  0.00    +0.146 C 
BRANCH  27  28
ATOM      1  S   UNL     1      12.243   8.894  21.886  0.00  0.00    -0.100 S 
ATOM     28  C   UNL     1      12.344   7.387  21.077  0.00  0.00    +0.007 A 
ATOM     30  C   UNL     1      11.228   6.609  21.296  0.00  0.00    +0.013 A 
ATOM     31  C   UNL     1      10.279   7.257  22.138  0.00  0.00    +0.008 A 
ATOM     32  C   UNL     1      10.705   8.506  22.530  0.00  0.00    +0.045 A 
ENDBRANCH  27  28
ENDBRANCH   8  27
ENDBRANCH  19  21
ENDBRANCH  17  19
ENDBRANCH  13  17
TORSDOF 8
ENDMDL
MODEL 7
REMARK VINA RESULT:      -6.1     30.199     34.339
REMARK  Name = 45361016
REMARK  10 active torsions:
REMARK  status: ('A' for Active; 'I' for Inactive)
REMARK    1  A    between atoms: O_4  and  C_26
REMARK    2  A    between atoms: O_4  and  C_29
REMARK    3  A    between atoms: N_5  and  C_16
REMARK    4  A    between atoms: N_6  and  C_18
REMARK    5  A    between atoms: N_8  and  C_27
REMARK    6  A    between atoms: C_13  and  C_17
REMARK    7  A    between atoms: C_16  and  C_20
REMARK    8  A    between atoms: C_17  and  C_19
REMARK    9  A    between atoms: C_19  and  C_21
REMARK   10  A    between atoms: C_27  and  C_28
REMARK                            x       y       z     vdW  Elec       q    Type
REMARK                         _______ _______ _______ _____ _____    ______ ____
ROOT
ATOM      2  O   UNL     1      20.229   6.325  23.833  0.00  0.00    -0.274 OA
ATOM      5  N   UNL     1      21.116   5.357  21.474  0.00  0.00    -0.286 NA
ATOM      6  N   UNL     1      17.896   6.962  20.809  0.00  0.00    -0.296 NA
ATOM      7  N   UNL     1      19.351   8.244  22.946  0.00  0.00    -0.312 N 
ATOM      9  C   UNL     1      19.238   6.476  20.419  0.00  0.00    +0.084 C 
ATOM     10  C   UNL     1      20.412   6.651  21.429  0.00  0.00    +0.161 C 
ATOM     11  C   UNL     1      19.294   4.966  20.123  0.00  0.00    +0.036 C 
ATOM     12  C   UNL     1      20.765   4.635  20.257  0.00  0.00    +0.087 C 
ATOM     13  C   UNL     1      17.810   8.434  21.016  0.00  0.00    +0.074 C 
ATOM     14  C   UNL     1      19.992   7.023  22.848  0.00  0.00    +0.232 C 
ATOM     15  C   UNL     1      18.987   9.050  21.798  0.00  0.00    +0.123 C 
ATOM     18  C   UNL     1      16.878   6.523  19.840  0.00  0.00    +0.105 C 
ATOM     33  H   UNL     1      19.065   8.562  23.867  0.00  0.00    +0.149 HD
ENDROOT
BRANCH   5  16
ATOM     16  C   UNL     1      22.559   5.489  21.636  0.00  0.00    +0.120 C 
BRANCH  16  20
ATOM     20  C   UNL     1      23.249   4.152  21.633  0.00  0.00    -0.033 A 
ATOM     22  C   UNL     1      23.108   3.291  22.721  0.00  0.00    +0.008 A 
ATOM     23  C   UNL     1      24.030   3.773  20.542  0.00  0.00    +0.008 A 
ATOM     24  C   UNL     1      23.748   2.052  22.718  0.00  0.00    +0.046 A 
ATOM     25  C   UNL     1      24.670   2.534  20.538  0.00  0.00    +0.046 A 
ATOM     26  C   UNL     1      24.529   1.674  21.626  0.00  0.00    +0.120 A 
BRANCH  26   4
ATOM      4  O   UNL     1      25.153   0.464  21.623  0.00  0.00    -0.495 OA
ATOM     29  C   UNL     1      25.681   0.002  22.865  0.00  0.00    +0.277 C 
ENDBRANCH  26   4
ENDBRANCH  16  20
ENDBRANCH   5  16
BRANCH  13  17
ATOM     17  C   UNL     1      16.512   8.800  21.767  0.00  0.00    +0.029 C 
BRANCH  17  19
ATOM     19  C   UNL     1      15.594   9.625  20.885  0.00  0.00    +0.097 C 
BRANCH  19  21
ATOM      3  O   UNL     1      13.743   8.379  21.824  0.00  0.00    -0.276 OA
ATOM      8  N   UNL     1      13.311  10.352  20.680  0.00  0.00    -0.311 N 
ATOM     21  C   UNL     1      14.133   9.358  21.194  0.00  0.00    +0.213 C 
ATOM     34  H   UNL     1      13.725  11.137  20.185  0.00  0.00    +0.149 HD
BRANCH   8  27
ATOM     27  C   UNL     1      11.877  10.326  20.840  0.00  0.00    +0.146 C 
BRANCH  27  28
ATOM      1  S   UNL     1      11.085  10.690  23.482  0.00  0.00    -0.100 S 
ATOM     28  C   UNL     1      11.416  11.281  21.909  0.00  0.00    +0.007 A 
ATOM     30  C   UNL     1      11.204  12.639  21.812  0.00  0.00    +0.013 A 
ATOM     31  C   UNL     1      10.765  13.202  23.045  0.00  0.00    +0.008 A 
ATOM     32  C   UNL     1      10.658  12.253  24.037  0.00  0.00    +0.045 A 
ENDBRANCH  27  28
ENDBRANCH   8  27
ENDBRANCH  19  21
ENDBRANCH  17  19
ENDBRANCH  13  17
TORSDOF 8
ENDMDL
MODEL 8
REMARK VINA RESULT:      -6.1     20.134     22.503
REMARK  Name = 45361016
REMARK  10 active torsions:
REMARK  status: ('A' for Active; 'I' for Inactive)
REMARK    1  A    between atoms: O_4  and  C_26
REMARK    2  A    between atoms: O_4  and  C_29
REMARK    3  A    between atoms: N_5  and  C_16
REMARK    4  A    between atoms: N_6  and  C_18
REMARK    5  A    between atoms: N_8  and  C_27
REMARK    6  A    between atoms: C_13  and  C_17
REMARK    7  A    between atoms: C_16  and  C_20
REMARK    8  A    between atoms: C_17  and  C_19
REMARK    9  A    between atoms: C_19  and  C_21
REMARK   10  A    between atoms: C_27  and  C_28
REMARK                            x       y       z     vdW  Elec       q    Type
REMARK                         _______ _______ _______ _____ _____    ______ ____
ROOT
ATOM      2  O   UNL     1      -6.833 -10.474  13.809  0.00  0.00    -0.274 OA
ATOM      5  N   UNL     1      -4.706 -11.107  15.348  0.00  0.00    -0.286 NA
ATOM      6  N   UNL     1      -3.857 -12.081  11.925  0.00  0.00    -0.296 NA
ATOM      7  N   UNL     1      -5.588  -9.775  12.021  0.00  0.00    -0.312 N 
ATOM      9  C   UNL     1      -3.521 -11.672  13.306  0.00  0.00    +0.084 C 
ATOM     10  C   UNL     1      -4.410 -10.595  13.997  0.00  0.00    +0.161 C 
ATOM     11  C   UNL     1      -3.562 -12.824  14.327  0.00  0.00    +0.036 C 
ATOM     12  C   UNL     1      -3.696 -12.112  15.656  0.00  0.00    +0.087 C 
ATOM     13  C   UNL     1      -3.738 -10.994  10.913  0.00  0.00    +0.074 C 
ATOM     14  C   UNL     1      -5.731 -10.299  13.292  0.00  0.00    +0.232 C 
ATOM     15  C   UNL     1      -4.309  -9.632  11.355  0.00  0.00    +0.123 C 
ATOM     18  C   UNL     1      -3.058 -13.248  11.515  0.00  0.00    +0.105 C 
ATOM     33  H   UNL     1      -6.429  -9.534  11.505  0.00  0.00    +0.149 HD
ENDROOT
BRANCH   5  16
ATOM     16  C   UNL     1      -4.767 -10.061  16.361  0.00  0.00    +0.120 C 
BRANCH  16  20
ATOM     20  C   UNL     1      -5.853 -10.320  17.370  0.00  0.00    -0.033 A 
ATOM     22  C   UNL     1      -7.157  -9.892  17.118  0.00  0.00    +0.008 A 
ATOM     23  C   UNL     1      -5.557 -10.988  18.558  0.00  0.00    +0.008 A 
ATOM     24  C   UNL     1      -8.163 -10.132  18.052  0.00  0.00    +0.046 A 
ATOM     25  C   UNL     1      -6.564 -11.228  19.493  0.00  0.00    +0.046 A 
ATOM     26  C   UNL     1      -7.866 -10.800  19.240  0.00  0.00    +0.120 A 
BRANCH  26   4
ATOM      4  O   UNL     1      -8.849 -11.035  20.152  0.00  0.00    -0.495 OA
ATOM     29  C   UNL     1     -10.174 -10.646  19.794  0.00  0.00    +0.277 C 
ENDBRANCH  26   4
ENDBRANCH  16  20
ENDBRANCH   5  16
BRANCH  13  17
ATOM     17  C   UNL     1      -4.451 -11.394   9.604  0.00  0.00    +0.029 C 
BRANCH  17  19
ATOM     19  C   UNL     1      -4.644 -10.185   8.706  0.00  0.00    +0.097 C 
BRANCH  19  21
ATOM      3  O   UNL     1      -6.906 -10.977   8.369  0.00  0.00    -0.276 OA
ATOM      8  N   UNL     1      -6.219  -9.034   7.301  0.00  0.00    -0.311 N 
ATOM     21  C   UNL     1      -6.045 -10.136   8.126  0.00  0.00    +0.213 C 
ATOM     34  H   UNL     1      -5.452  -8.379   7.172  0.00  0.00    +0.149 HD
BRANCH   8  27
ATOM     27  C   UNL     1      -7.467  -8.764   6.628  0.00  0.00    +0.146 C 
BRANCH  27  28
ATOM      1  S   UNL     1      -9.815  -8.353   8.060  0.00  0.00    -0.100 S 
ATOM     28  C   UNL     1      -8.329  -7.808   7.408  0.00  0.00    +0.007 A 
ATOM     30  C   UNL     1      -8.095  -6.481   7.695  0.00  0.00    +0.013 A 
ATOM     31  C   UNL     1      -9.149  -5.905   8.461  0.00  0.00    +0.008 A 
ATOM     32  C   UNL     1     -10.148  -6.813   8.730  0.00  0.00    +0.045 A 
ENDBRANCH  27  28
ENDBRANCH   8  27
ENDBRANCH  19  21
ENDBRANCH  17  19
ENDBRANCH  13  17
TORSDOF 8
ENDMDL
MODEL 9
REMARK VINA RESULT:      -6.0     18.654     21.253
REMARK  Name = 45361016
REMARK  10 active torsions:
REMARK  status: ('A' for Active; 'I' for Inactive)
REMARK    1  A    between atoms: O_4  and  C_26
REMARK    2  A    between atoms: O_4  and  C_29
REMARK    3  A    between atoms: N_5  and  C_16
REMARK    4  A    between atoms: N_6  and  C_18
REMARK    5  A    between atoms: N_8  and  C_27
REMARK    6  A    between atoms: C_13  and  C_17
REMARK    7  A    between atoms: C_16  and  C_20
REMARK    8  A    between atoms: C_17  and  C_19
REMARK    9  A    between atoms: C_19  and  C_21
REMARK   10  A    between atoms: C_27  and  C_28
REMARK                            x       y       z     vdW  Elec       q    Type
REMARK                         _______ _______ _______ _____ _____    ______ ____
ROOT
ATOM      2  O   UNL     1      -8.141  -9.426  16.263  0.00  0.00    -0.274 OA
ATOM      5  N   UNL     1      -8.812 -11.233  18.155  0.00  0.00    -0.286 NA
ATOM      6  N   UNL     1      -5.834 -12.528  16.471  0.00  0.00    -0.296 NA
ATOM      7  N   UNL     1      -5.883  -9.645  16.567  0.00  0.00    -0.312 N 
ATOM      9  C   UNL     1      -6.759 -12.411  17.619  0.00  0.00    +0.084 C 
ATOM     10  C   UNL     1      -7.370 -11.014  17.938  0.00  0.00    +0.161 C 
ATOM     11  C   UNL     1      -8.017 -13.292  17.501  0.00  0.00    +0.036 C 
ATOM     12  C   UNL     1      -8.990 -12.646  18.465  0.00  0.00    +0.087 C 
ATOM     13  C   UNL     1      -4.574 -11.747  16.611  0.00  0.00    +0.074 C 
ATOM     14  C   UNL     1      -7.200  -9.968  16.840  0.00  0.00    +0.232 C 
ATOM     15  C   UNL     1      -4.753 -10.322  17.170  0.00  0.00    +0.123 C 
ATOM     18  C   UNL     1      -5.529 -13.941  16.186  0.00  0.00    +0.105 C 
ATOM     33  H   UNL     1      -5.700  -8.939  15.861  0.00  0.00    +0.149 HD
ENDROOT
BRANCH   5  16
ATOM     16  C   UNL     1      -9.379 -10.370  19.184  0.00  0.00    +0.120 C 
BRANCH  16  20
ATOM     20  C   UNL     1     -10.835 -10.084  18.936  0.00  0.00    -0.033 A 
ATOM     22  C   UNL     1     -11.246  -9.568  17.707  0.00  0.00    +0.008 A 
ATOM     23  C   UNL     1     -11.775 -10.334  19.936  0.00  0.00    +0.008 A 
ATOM     24  C   UNL     1     -12.596  -9.303  17.478  0.00  0.00    +0.046 A 
ATOM     25  C   UNL     1     -13.125 -10.068  19.707  0.00  0.00    +0.046 A 
ATOM     26  C   UNL     1     -13.536  -9.553  18.478  0.00  0.00    +0.120 A 
BRANCH  26   4
ATOM      4  O   UNL     1     -14.853  -9.295  18.253  0.00  0.00    -0.495 OA
ATOM     29  C   UNL     1     -15.168  -8.409  17.180  0.00  0.00    +0.277 C 
ENDBRANCH  26   4
ENDBRANCH  16  20
ENDBRANCH   5  16
BRANCH  13  17
ATOM     17  C   UNL     1      -3.858 -11.624  15.249  0.00  0.00    +0.029 C 
BRANCH  17  19
ATOM     19  C   UNL     1      -2.368 -11.414  15.441  0.00  0.00    +0.097 C 
BRANCH  19  21
ATOM      3  O   UNL     1      -1.098  -9.503  14.670  0.00  0.00    -0.276 OA
ATOM      8  N   UNL     1      -2.160 -10.857  13.111  0.00  0.00    -0.311 N 
ATOM     21  C   UNL     1      -1.796 -10.475  14.395  0.00  0.00    +0.213 C 
ATOM     34  H   UNL     1      -2.729 -11.690  12.979  0.00  0.00    +0.149 HD
BRANCH   8  27
ATOM     27  C   UNL     1      -1.741 -10.124  11.941  0.00  0.00    +0.146 C 
BRANCH  27  28
ATOM      1  S   UNL     1      -3.679 -11.560  10.556  0.00  0.00    -0.100 S 
ATOM     28  C   UNL     1      -2.800 -10.125  10.871  0.00  0.00    +0.007 A 
ATOM     30  C   UNL     1      -3.196  -9.087  10.056  0.00  0.00    +0.013 A 
ATOM     31  C   UNL     1      -4.234  -9.475   9.160  0.00  0.00    +0.008 A 
ATOM     32  C   UNL     1      -4.592 -10.795   9.326  0.00  0.00    +0.045 A 
ENDBRANCH  27  28
ENDBRANCH   8  27
ENDBRANCH  19  21
ENDBRANCH  17  19
ENDBRANCH  13  17
TORSDOF 8
ENDMDL
MODEL 10
REMARK VINA RESULT:      -6.0     18.226     21.014
REMARK  Name = 45361016
REMARK  10 active torsions:
REMARK  status: ('A' for Active; 'I' for Inactive)
REMARK    1  A    between atoms: O_4  and  C_26
REMARK    2  A    between atoms: O_4  and  C_29
REMARK    3  A    between atoms: N_5  and  C_16
REMARK    4  A    between atoms: N_6  and  C_18
REMARK    5  A    between atoms: N_8  and  C_27
REMARK    6  A    between atoms: C_13  and  C_17
REMARK    7  A    between atoms: C_16  and  C_20
REMARK    8  A    between atoms: C_17  and  C_19
REMARK    9  A    between atoms: C_19  and  C_21
REMARK   10  A    between atoms: C_27  and  C_28
REMARK                            x       y       z     vdW  Elec       q    Type
REMARK                         _______ _______ _______ _____ _____    ______ ____
ROOT
ATOM      2  O   UNL     1      -8.751 -11.293  15.724  0.00  0.00    -0.274 OA
ATOM      5  N   UNL     1      -9.089 -10.738  18.345  0.00  0.00    -0.286 NA
ATOM      6  N   UNL     1      -5.543 -11.512  17.880  0.00  0.00    -0.296 NA
ATOM      7  N   UNL     1      -6.715 -10.261  15.560  0.00  0.00    -0.312 N 
ATOM      9  C   UNL     1      -6.677 -10.873  18.584  0.00  0.00    +0.084 C 
ATOM     10  C   UNL     1      -7.833 -10.269  17.731  0.00  0.00    +0.161 C 
ATOM     11  C   UNL     1      -7.439 -11.820  19.530  0.00  0.00    +0.036 C 
ATOM     12  C   UNL     1      -8.776 -11.135  19.712  0.00  0.00    +0.087 C 
ATOM     13  C   UNL     1      -4.747 -10.587  17.027  0.00  0.00    +0.074 C 
ATOM     14  C   UNL     1      -7.831 -10.678  16.260  0.00  0.00    +0.232 C 
ATOM     15  C   UNL     1      -5.581  -9.606  16.180  0.00  0.00    +0.123 C 
ATOM     18  C   UNL     1      -4.664 -12.212  18.832  0.00  0.00    +0.105 C 
ATOM     33  H   UNL     1      -6.662 -10.480  14.570  0.00  0.00    +0.149 HD
ENDROOT
BRANCH   5  16
ATOM     16  C   UNL     1     -10.161  -9.752  18.291  0.00  0.00    +0.120 C 
BRANCH  16  20
ATOM     20  C   UNL     1     -11.446 -10.289  18.860  0.00  0.00    -0.033 A 
ATOM     22  C   UNL     1     -12.070 -11.385  18.265  0.00  0.00    +0.008 A 
ATOM     23  C   UNL     1     -12.014  -9.691  19.985  0.00  0.00    +0.008 A 
ATOM     24  C   UNL     1     -13.261 -11.882  18.792  0.00  0.00    +0.046 A 
ATOM     25  C   UNL     1     -13.206 -10.188  20.513  0.00  0.00    +0.046 A 
ATOM     26  C   UNL     1     -13.829 -11.284  19.917  0.00  0.00    +0.120 A 
BRANCH  26   4
ATOM      4  O   UNL     1     -14.991 -11.770  20.433  0.00  0.00    -0.495 OA
ATOM     29  C   UNL     1     -14.892 -12.888  21.314  0.00  0.00    +0.277 C 
ENDBRANCH  26   4
ENDBRANCH  16  20
ENDBRANCH   5  16
BRANCH  13  17
ATOM     17  C   UNL     1      -3.844 -11.383  16.061  0.00  0.00    +0.029 C 
BRANCH  17  19
ATOM     19  C   UNL     1      -2.423 -10.851  16.091  0.00  0.00    +0.097 C 
BRANCH  19  21
ATOM      3  O   UNL     1      -1.030  -9.624  14.538  0.00  0.00    -0.276 OA
ATOM      8  N   UNL     1      -2.735 -10.964  13.710  0.00  0.00    -0.311 N 
ATOM     21  C   UNL     1      -1.967 -10.397  14.717  0.00  0.00    +0.213 C 
ATOM     34  H   UNL     1      -3.482 -11.609  13.953  0.00  0.00    +0.149 HD
BRANCH   8  27
ATOM     27  C   UNL     1      -2.500 -10.688  12.313  0.00  0.00    +0.146 C 
BRANCH  27  28
ATOM      1  S   UNL     1      -3.471  -9.235  10.149  0.00  0.00    -0.100 S 
ATOM     28  C   UNL     1      -3.668  -9.983  11.677  0.00  0.00    +0.007 A 
ATOM     30  C   UNL     1      -4.949  -9.837  12.162  0.00  0.00    +0.013 A 
ATOM     31  C   UNL     1      -5.780  -9.101  11.268  0.00  0.00    +0.008 A 
ATOM     32  C   UNL     1      -5.101  -8.713  10.134  0.00  0.00    +0.045 A 
ENDBRANCH  27  28
ENDBRANCH   8  27
ENDBRANCH  19  21
ENDBRANCH  17  19
ENDBRANCH  13  17
TORSDOF 8
ENDMDL
