MODEL 1
REMARK VINA RESULT:      -6.5      0.000      0.000
REMARK  Name = 28960034
REMARK  7 active torsions:
REMARK  status: ('A' for Active; 'I' for Inactive)
REMARK    1  A    between atoms: O_2  and  C_23
REMARK    2  A    between atoms: N_5  and  C_20
REMARK    3  A    between atoms: C_8  and  C_12
REMARK    4  A    between atoms: C_9  and  C_18
REMARK    5  A    between atoms: C_12  and  C_20
REMARK    6  A    between atoms: C_14  and  C_17
REMARK    7  A    between atoms: C_18  and  C_23
REMARK                            x       y       z     vdW  Elec       q    Type
REMARK                         _______ _______ _______ _____ _____    ______ ____
ROOT
ATOM      1  O   UNL     1      -1.678  -9.893  12.077  0.00  0.00    -0.275 OA
ATOM      4  N   UNL     1      -2.910 -11.222  13.525  0.00  0.00    -0.301 N 
ATOM      8  C   UNL     1      -4.697 -11.520  15.221  0.00  0.00    +0.011 C 
ATOM      9  C   UNL     1      -3.599 -11.585  16.313  0.00  0.00    +0.006 C 
ATOM     10  C   UNL     1      -4.120 -11.977  13.870  0.00  0.00    +0.111 C 
ATOM     11  C   UNL     1      -2.331 -10.823  15.886  0.00  0.00    +0.023 C 
ATOM     13  C   UNL     1      -1.838 -11.287  14.518  0.00  0.00    +0.108 C 
ATOM     17  C   UNL     1      -2.730 -10.499  12.336  0.00  0.00    +0.219 C 
ENDROOT
BRANCH  17  14
ATOM     14  C   UNL     1      -3.904 -10.478  11.345  0.00  0.00    +0.075 C 
ATOM     15  C   UNL     1      -4.920  -9.325  11.473  0.00  0.00    +0.013 C 
ATOM     16  C   UNL     1      -3.619  -9.967   9.917  0.00  0.00    +0.013 C 
ATOM     19  C   UNL     1      -5.037  -9.360   9.934  0.00  0.00    +0.001 C 
ENDBRANCH  17  14
BRANCH   8  12
ATOM     12  C   UNL     1      -5.355 -10.142  15.080  0.00  0.00    +0.020 C 
BRANCH  12  20
ATOM     20  C   UNL     1      -6.770 -10.269  14.532  0.00  0.00    +0.085 C 
BRANCH  20   5
ATOM      5  N   UNL     1      -7.697 -10.583  15.617  0.00  0.00    -0.299 NA
ATOM      6  N   UNL     1      -9.935 -10.159  17.341  0.00  0.00    -0.313 N 
ATOM      7  N   UNL     1     -10.751 -10.320  19.557  0.00  0.00    -0.240 NA
ATOM     21  C   UNL     1      -9.066 -10.716  15.105  0.00  0.00    +0.103 C 
ATOM     22  C   UNL     1      -7.650  -9.544  16.653  0.00  0.00    +0.103 C 
ATOM     24  C   UNL     1     -10.037 -11.101  16.222  0.00  0.00    +0.122 C 
ATOM     25  C   UNL     1      -8.574  -9.891  17.823  0.00  0.00    +0.122 C 
ATOM     26  C   UNL     1     -10.990 -10.048  18.254  0.00  0.00    +0.121 A 
ATOM     27  C   UNL     1     -12.224  -9.664  17.755  0.00  0.00    +0.043 A 
ATOM     28  C   UNL     1     -13.281  -9.550  18.651  0.00  0.00    +0.005 A 
ATOM     29  C   UNL     1     -11.803 -10.199  20.397  0.00  0.00    +0.113 A 
ATOM     30  C   UNL     1     -13.075  -9.820  19.999  0.00  0.00    +0.020 A 
ENDBRANCH  20   5
ENDBRANCH  12  20
ENDBRANCH   8  12
BRANCH   9  18
ATOM     18  C   UNL     1      -4.082 -11.104  17.681  0.00  0.00    +0.124 C 
BRANCH  18  23
ATOM      3  O   UNL     1      -3.279 -12.070  19.770  0.00  0.00    -0.251 OA
ATOM     23  C   UNL     1      -3.918 -12.166  18.733  0.00  0.00    +0.305 C 
BRANCH  23   2
ATOM      2  O   UNL     1      -4.597 -13.283  18.365  0.00  0.00    -0.481 OA
ATOM     31  H   UNL     1      -5.106 -13.663  19.112  0.00  0.00    +0.295 HD
ENDBRANCH  23   2
ENDBRANCH  18  23
ENDBRANCH   9  18
TORSDOF 7
ENDMDL
MODEL 2
REMARK VINA RESULT:      -6.4     20.099     22.191
REMARK  Name = 28960034
REMARK  7 active torsions:
REMARK  status: ('A' for Active; 'I' for Inactive)
REMARK    1  A    between atoms: O_2  and  C_23
REMARK    2  A    between atoms: N_5  and  C_20
REMARK    3  A    between atoms: C_8  and  C_12
REMARK    4  A    between atoms: C_9  and  C_18
REMARK    5  A    between atoms: C_12  and  C_20
REMARK    6  A    between atoms: C_14  and  C_17
REMARK    7  A    between atoms: C_18  and  C_23
REMARK                            x       y       z     vdW  Elec       q    Type
REMARK                         _______ _______ _______ _____ _____    ______ ____
ROOT
ATOM      1  O   UNL     1      -9.817   9.349  17.469  0.00  0.00    -0.275 OA
ATOM      4  N   UNL     1     -11.832   8.479  18.219  0.00  0.00    -0.301 N 
ATOM      8  C   UNL     1     -13.645   8.326  19.907  0.00  0.00    +0.011 C 
ATOM      9  C   UNL     1     -13.044   6.976  20.376  0.00  0.00    +0.006 C 
ATOM     10  C   UNL     1     -13.280   8.577  18.433  0.00  0.00    +0.111 C 
ATOM     11  C   UNL     1     -11.534   6.898  20.085  0.00  0.00    +0.023 C 
ATOM     13  C   UNL     1     -11.234   7.205  18.620  0.00  0.00    +0.108 C 
ATOM     17  C   UNL     1     -11.036   9.486  17.652  0.00  0.00    +0.219 C 
ENDROOT
BRANCH  17  14
ATOM     14  C   UNL     1     -11.739  10.795  17.259  0.00  0.00    +0.075 C 
ATOM     15  C   UNL     1     -11.616  11.986  18.231  0.00  0.00    +0.013 C 
ATOM     16  C   UNL     1     -11.048  11.683  16.203  0.00  0.00    +0.013 C 
ATOM     19  C   UNL     1     -11.585  12.899  16.987  0.00  0.00    +0.001 C 
ENDBRANCH  17  14
BRANCH   8  12
ATOM     12  C   UNL     1     -13.233   9.525  20.769  0.00  0.00    +0.020 C 
BRANCH  12  20
ATOM     20  C   UNL     1     -14.457  10.246  21.316  0.00  0.00    +0.085 C 
BRANCH  20   5
ATOM      5  N   UNL     1     -14.207  10.678  22.690  0.00  0.00    -0.299 NA
ATOM      6  N   UNL     1     -13.245  10.427  25.368  0.00  0.00    -0.313 N 
ATOM      7  N   UNL     1     -13.692  10.860  27.652  0.00  0.00    -0.240 NA
ATOM     21  C   UNL     1     -12.766  10.705  22.969  0.00  0.00    +0.103 C 
ATOM     22  C   UNL     1     -14.883   9.787  23.642  0.00  0.00    +0.103 C 
ATOM     24  C   UNL     1     -12.488  11.208  24.386  0.00  0.00    +0.122 C 
ATOM     25  C   UNL     1     -14.676  10.261  25.082  0.00  0.00    +0.122 C 
ATOM     26  C   UNL     1     -12.836  10.411  26.707  0.00  0.00    +0.121 A 
ATOM     27  C   UNL     1     -11.565   9.931  26.976  0.00  0.00    +0.043 A 
ATOM     28  C   UNL     1     -11.145   9.909  28.302  0.00  0.00    +0.005 A 
ATOM     29  C   UNL     1     -13.249  10.823  28.929  0.00  0.00    +0.113 A 
ATOM     30  C   UNL     1     -11.996  10.362  29.302  0.00  0.00    +0.020 A 
ENDBRANCH  20   5
ENDBRANCH  12  20
ENDBRANCH   8  12
BRANCH   9  18
ATOM     18  C   UNL     1     -13.326   6.672  21.847  0.00  0.00    +0.124 C 
BRANCH  18  23
ATOM      3  O   UNL     1     -14.627   4.611  21.771  0.00  0.00    -0.251 OA
ATOM     23  C   UNL     1     -13.604   5.210  22.068  0.00  0.00    +0.305 C 
BRANCH  23   2
ATOM      2  O   UNL     1     -12.531   4.624  22.659  0.00  0.00    -0.481 OA
ATOM     31  H   UNL     1     -12.499   4.809  23.622  0.00  0.00    +0.295 HD
ENDBRANCH  23   2
ENDBRANCH  18  23
ENDBRANCH   9  18
TORSDOF 7
ENDMDL
MODEL 3
REMARK VINA RESULT:      -6.1     24.405     28.189
REMARK  Name = 28960034
REMARK  7 active torsions:
REMARK  status: ('A' for Active; 'I' for Inactive)
REMARK    1  A    between atoms: O_2  and  C_23
REMARK    2  A    between atoms: N_5  and  C_20
REMARK    3  A    between atoms: C_8  and  C_12
REMARK    4  A    between atoms: C_9  and  C_18
REMARK    5  A    between atoms: C_12  and  C_20
REMARK    6  A    between atoms: C_14  and  C_17
REMARK    7  A    between atoms: C_18  and  C_23
REMARK                            x       y       z     vdW  Elec       q    Type
REMARK                         _______ _______ _______ _____ _____    ______ ____
ROOT
ATOM      1  O   UNL     1       9.875  11.274   5.504  0.00  0.00    -0.275 OA
ATOM      4  N   UNL     1      10.718   9.397   6.573  0.00  0.00    -0.301 N 
ATOM      8  C   UNL     1      10.967   6.936   6.782  0.00  0.00    +0.011 C 
ATOM      9  C   UNL     1       9.939   6.968   7.942  0.00  0.00    +0.006 C 
ATOM     10  C   UNL     1      11.682   8.296   6.678  0.00  0.00    +0.111 C 
ATOM     11  C   UNL     1       8.983   8.167   7.818  0.00  0.00    +0.023 C 
ATOM     13  C   UNL     1       9.752   9.478   7.668  0.00  0.00    +0.108 C 
ATOM     17  C   UNL     1      10.696  10.345   5.538  0.00  0.00    +0.219 C 
ENDROOT
BRANCH  17  14
ATOM     14  C   UNL     1      11.742  10.190   4.424  0.00  0.00    +0.075 C 
ATOM     15  C   UNL     1      11.277  10.439   2.974  0.00  0.00    +0.013 C 
ATOM     16  C   UNL     1      12.742  11.347   4.222  0.00  0.00    +0.013 C 
ATOM     19  C   UNL     1      12.675  11.040   2.712  0.00  0.00    +0.001 C 
ENDBRANCH  17  14
BRANCH   8  12
ATOM     12  C   UNL     1      10.365   6.547   5.426  0.00  0.00    +0.020 C 
BRANCH  12  20
ATOM     20  C   UNL     1      11.418   6.604   4.328  0.00  0.00    +0.085 C 
BRANCH  20   5
ATOM      5  N   UNL     1      10.904   5.972   3.114  0.00  0.00    -0.299 NA
ATOM      6  N   UNL     1      11.070   4.788   0.520  0.00  0.00    -0.313 N 
ATOM      7  N   UNL     1      10.072   4.627  -1.621  0.00  0.00    -0.240 NA
ATOM     21  C   UNL     1      11.484   4.635   2.943  0.00  0.00    +0.103 C 
ATOM     22  C   UNL     1      11.200   6.800   1.937  0.00  0.00    +0.103 C 
ATOM     24  C   UNL     1      10.912   3.941   1.705  0.00  0.00    +0.122 C 
ATOM     25  C   UNL     1      10.617   6.177   0.667  0.00  0.00    +0.122 C 
ATOM     26  C   UNL     1      11.025   4.213  -0.756  0.00  0.00    +0.121 A 
ATOM     27  C   UNL     1      11.972   3.245  -1.049  0.00  0.00    +0.043 A 
ATOM     28  C   UNL     1      11.939   2.665  -2.312  0.00  0.00    +0.005 A 
ATOM     29  C   UNL     1      10.072   4.040  -2.838  0.00  0.00    +0.113 A 
ATOM     30  C   UNL     1      10.975   3.064  -3.230  0.00  0.00    +0.020 A 
ENDBRANCH  20   5
ENDBRANCH  12  20
ENDBRANCH   8  12
BRANCH   9  18
ATOM     18  C   UNL     1       9.154   5.665   8.084  0.00  0.00    +0.124 C 
BRANCH  18  23
ATOM      3  O   UNL     1       9.926   4.691  10.182  0.00  0.00    -0.251 OA
ATOM     23  C   UNL     1       9.873   4.676   8.961  0.00  0.00    +0.305 C 
BRANCH  23   2
ATOM      2  O   UNL     1      10.475   3.734   8.190  0.00  0.00    -0.481 OA
ATOM     31  H   UNL     1      11.013   3.113   8.726  0.00  0.00    +0.295 HD
ENDBRANCH  23   2
ENDBRANCH  18  23
ENDBRANCH   9  18
TORSDOF 7
ENDMDL
MODEL 4
REMARK VINA RESULT:      -6.0      5.207      7.976
REMARK  Name = 28960034
REMARK  7 active torsions:
REMARK  status: ('A' for Active; 'I' for Inactive)
REMARK    1  A    between atoms: O_2  and  C_23
REMARK    2  A    between atoms: N_5  and  C_20
REMARK    3  A    between atoms: C_8  and  C_12
REMARK    4  A    between atoms: C_9  and  C_18
REMARK    5  A    between atoms: C_12  and  C_20
REMARK    6  A    between atoms: C_14  and  C_17
REMARK    7  A    between atoms: C_18  and  C_23
REMARK                            x       y       z     vdW  Elec       q    Type
REMARK                         _______ _______ _______ _____ _____    ______ ____
ROOT
ATOM      1  O   UNL     1      -6.930 -10.546  20.072  0.00  0.00    -0.275 OA
ATOM      4  N   UNL     1      -8.831 -11.091  18.861  0.00  0.00    -0.301 N 
ATOM      8  C   UNL     1     -10.692 -10.482  17.336  0.00  0.00    +0.011 C 
ATOM      9  C   UNL     1     -11.642 -10.466  18.561  0.00  0.00    +0.006 C 
ATOM     10  C   UNL     1      -9.508 -11.428  17.604  0.00  0.00    +0.111 C 
ATOM     11  C   UNL     1     -10.880 -10.159  19.863  0.00  0.00    +0.023 C 
ATOM     13  C   UNL     1      -9.691 -11.098  20.045  0.00  0.00    +0.108 C 
ATOM     17  C   UNL     1      -7.463 -10.803  18.981  0.00  0.00    +0.219 C 
ENDROOT
BRANCH  17  14
ATOM     14  C   UNL     1      -6.630 -10.815  17.691  0.00  0.00    +0.075 C 
ATOM     15  C   UNL     1      -6.592  -9.516  16.859  0.00  0.00    +0.013 C 
ATOM     16  C   UNL     1      -5.099 -10.679  17.833  0.00  0.00    +0.013 C 
ATOM     19  C   UNL     1      -5.127  -9.867  16.520  0.00  0.00    +0.001 C 
ENDBRANCH  17  14
BRANCH   8  12
ATOM     12  C   UNL     1     -10.183  -9.096  16.924  0.00  0.00    +0.020 C 
BRANCH  12  20
ATOM     20  C   UNL     1     -10.143  -8.961  15.408  0.00  0.00    +0.085 C 
BRANCH  20   5
ATOM      5  N   UNL     1     -11.248  -8.118  14.955  0.00  0.00    -0.299 NA
ATOM      6  N   UNL     1     -12.498  -6.057  13.422  0.00  0.00    -0.313 N 
ATOM      7  N   UNL     1     -14.061  -4.279  13.448  0.00  0.00    -0.240 NA
ATOM     21  C   UNL     1     -11.476  -8.296  13.515  0.00  0.00    +0.103 C 
ATOM     22  C   UNL     1     -10.973  -6.706  15.246  0.00  0.00    +0.103 C 
ATOM     24  C   UNL     1     -12.667  -7.462  13.039  0.00  0.00    +0.122 C 
ATOM     25  C   UNL     1     -12.149  -5.819  14.828  0.00  0.00    +0.122 C 
ATOM     26  C   UNL     1     -13.213  -5.062  12.745  0.00  0.00    +0.121 A 
ATOM     27  C   UNL     1     -13.000  -4.946  11.380  0.00  0.00    +0.043 A 
ATOM     28  C   UNL     1     -13.703  -3.962  10.694  0.00  0.00    +0.005 A 
ATOM     29  C   UNL     1     -14.726  -3.334  12.747  0.00  0.00    +0.113 A 
ATOM     30  C   UNL     1     -14.584  -3.136  11.383  0.00  0.00    +0.020 A 
ENDBRANCH  20   5
ENDBRANCH  12  20
ENDBRANCH   8  12
BRANCH   9  18
ATOM     18  C   UNL     1     -12.825  -9.513  18.391  0.00  0.00    +0.124 C 
BRANCH  18  23
ATOM      3  O   UNL     1     -14.248 -10.961  17.041  0.00  0.00    -0.251 OA
ATOM     23  C   UNL     1     -13.678  -9.894  17.213  0.00  0.00    +0.305 C 
BRANCH  23   2
ATOM      2  O   UNL     1     -13.734  -8.859  16.335  0.00  0.00    -0.481 OA
ATOM     31  H   UNL     1     -13.096  -8.970  15.598  0.00  0.00    +0.295 HD
ENDBRANCH  23   2
ENDBRANCH  18  23
ENDBRANCH   9  18
TORSDOF 7
ENDMDL
MODEL 5
REMARK VINA RESULT:      -5.9      3.251      6.234
REMARK  Name = 28960034
REMARK  7 active torsions:
REMARK  status: ('A' for Active; 'I' for Inactive)
REMARK    1  A    between atoms: O_2  and  C_23
REMARK    2  A    between atoms: N_5  and  C_20
REMARK    3  A    between atoms: C_8  and  C_12
REMARK    4  A    between atoms: C_9  and  C_18
REMARK    5  A    between atoms: C_12  and  C_20
REMARK    6  A    between atoms: C_14  and  C_17
REMARK    7  A    between atoms: C_18  and  C_23
REMARK                            x       y       z     vdW  Elec       q    Type
REMARK                         _______ _______ _______ _____ _____    ______ ____
ROOT
ATOM      1  O   UNL     1      -1.906 -10.189  13.432  0.00  0.00    -0.275 OA
ATOM      4  N   UNL     1      -3.637 -11.237  14.567  0.00  0.00    -0.301 N 
ATOM      8  C   UNL     1      -5.932 -11.246  15.512  0.00  0.00    +0.011 C 
ATOM      9  C   UNL     1      -5.314 -11.041  16.919  0.00  0.00    +0.006 C 
ATOM     10  C   UNL     1      -4.918 -11.950  14.592  0.00  0.00    +0.111 C 
ATOM     11  C   UNL     1      -3.948 -10.336  16.839  0.00  0.00    +0.023 C 
ATOM     13  C   UNL     1      -3.007 -11.054  15.875  0.00  0.00    +0.108 C 
ATOM     17  C   UNL     1      -3.004 -10.768  13.406  0.00  0.00    +0.219 C 
ENDROOT
BRANCH  17  14
ATOM     14  C   UNL     1      -3.730 -10.998  12.072  0.00  0.00    +0.075 C 
ATOM     15  C   UNL     1      -3.282 -10.149  10.864  0.00  0.00    +0.013 C 
ATOM     16  C   UNL     1      -3.331 -12.241  11.250  0.00  0.00    +0.013 C 
ATOM     19  C   UNL     1      -3.567 -11.387   9.986  0.00  0.00    +0.001 C 
ENDBRANCH  17  14
BRANCH   8  12
ATOM     12  C   UNL     1      -6.435  -9.953  14.858  0.00  0.00    +0.020 C 
BRANCH  12  20
ATOM     20  C   UNL     1      -7.868 -10.114  14.369  0.00  0.00    +0.085 C 
BRANCH  20   5
ATOM      5  N   UNL     1      -7.896 -10.118  12.908  0.00  0.00    -0.299 NA
ATOM      6  N   UNL     1      -8.304  -9.015  10.304  0.00  0.00    -0.313 N 
ATOM      7  N   UNL     1      -9.134  -9.413   8.123  0.00  0.00    -0.240 NA
ATOM     21  C   UNL     1      -6.968  -9.115  12.370  0.00  0.00    +0.103 C 
ATOM     22  C   UNL     1      -9.255  -9.853  12.418  0.00  0.00    +0.103 C 
ATOM     24  C   UNL     1      -6.947  -9.147  10.841  0.00  0.00    +0.122 C 
ATOM     25  C   UNL     1      -9.310  -9.911  10.889  0.00  0.00    +0.122 C 
ATOM     26  C   UNL     1      -8.491  -8.592   8.983  0.00  0.00    +0.121 A 
ATOM     27  C   UNL     1      -7.995  -7.344   8.641  0.00  0.00    +0.043 A 
ATOM     28  C   UNL     1      -8.173  -6.910   7.332  0.00  0.00    +0.005 A 
ATOM     29  C   UNL     1      -9.287  -8.957   6.860  0.00  0.00    +0.113 A 
ATOM     30  C   UNL     1      -8.830  -7.726   6.418  0.00  0.00    +0.020 A 
ENDBRANCH  20   5
ENDBRANCH  12  20
ENDBRANCH   8  12
BRANCH   9  18
ATOM     18  C   UNL     1      -6.245 -10.307  17.883  0.00  0.00    +0.124 C 
BRANCH  18  23
ATOM      3  O   UNL     1      -6.709 -12.457  18.934  0.00  0.00    -0.251 OA
ATOM     23  C   UNL     1      -6.850 -11.244  18.892  0.00  0.00    +0.305 C 
BRANCH  23   2
ATOM      2  O   UNL     1      -7.599 -10.540  19.779  0.00  0.00    -0.481 OA
ATOM     31  H   UNL     1      -8.507 -10.380  19.444  0.00  0.00    +0.295 HD
ENDBRANCH  23   2
ENDBRANCH  18  23
ENDBRANCH   9  18
TORSDOF 7
ENDMDL
MODEL 6
REMARK VINA RESULT:      -5.9     25.939     30.353
REMARK  Name = 28960034
REMARK  7 active torsions:
REMARK  status: ('A' for Active; 'I' for Inactive)
REMARK    1  A    between atoms: O_2  and  C_23
REMARK    2  A    between atoms: N_5  and  C_20
REMARK    3  A    between atoms: C_8  and  C_12
REMARK    4  A    between atoms: C_9  and  C_18
REMARK    5  A    between atoms: C_12  and  C_20
REMARK    6  A    between atoms: C_14  and  C_17
REMARK    7  A    between atoms: C_18  and  C_23
REMARK                            x       y       z     vdW  Elec       q    Type
REMARK                         _______ _______ _______ _____ _____    ______ ____
ROOT
ATOM      1  O   UNL     1      12.791   2.973   1.941  0.00  0.00    -0.275 OA
ATOM      4  N   UNL     1      11.459   4.834   2.320  0.00  0.00    -0.301 N 
ATOM      8  C   UNL     1      11.033   7.022   3.411  0.00  0.00    +0.011 C 
ATOM      9  C   UNL     1      10.074   6.304   4.394  0.00  0.00    +0.006 C 
ATOM     10  C   UNL     1      11.109   6.239   2.088  0.00  0.00    +0.111 C 
ATOM     11  C   UNL     1      10.448   4.821   4.567  0.00  0.00    +0.023 C 
ATOM     13  C   UNL     1      10.556   4.114   3.218  0.00  0.00    +0.108 C 
ATOM     17  C   UNL     1      12.547   4.172   1.732  0.00  0.00    +0.219 C 
ENDROOT
BRANCH  17  14
ATOM     14  C   UNL     1      13.450   4.998   0.802  0.00  0.00    +0.075 C 
ATOM     15  C   UNL     1      14.860   5.355   1.315  0.00  0.00    +0.013 C 
ATOM     16  C   UNL     1      14.142   4.255  -0.360  0.00  0.00    +0.013 C 
ATOM     19  C   UNL     1      15.346   5.197  -0.142  0.00  0.00    +0.001 C 
ENDBRANCH  17  14
BRANCH   8  12
ATOM     12  C   UNL     1      12.441   7.256   3.973  0.00  0.00    +0.020 C 
BRANCH  12  20
ATOM     20  C   UNL     1      13.213   8.244   3.109  0.00  0.00    +0.085 C 
BRANCH  20   5
ATOM      5  N   UNL     1      14.450   8.633   3.784  0.00  0.00    -0.299 NA
ATOM      6  N   UNL     1      17.129   8.297   4.715  0.00  0.00    -0.313 N 
ATOM      7  N   UNL     1      18.636   8.664   6.504  0.00  0.00    -0.240 NA
ATOM     21  C   UNL     1      15.573   8.644   2.838  0.00  0.00    +0.103 C 
ATOM     22  C   UNL     1      14.741   7.718   4.894  0.00  0.00    +0.103 C 
ATOM     24  C   UNL     1      16.863   9.103   3.520  0.00  0.00    +0.122 C 
ATOM     25  C   UNL     1      16.003   8.148   5.645  0.00  0.00    +0.122 C 
ATOM     26  C   UNL     1      18.427   8.239   5.238  0.00  0.00    +0.121 A 
ATOM     27  C   UNL     1      19.422   7.744   4.411  0.00  0.00    +0.043 A 
ATOM     28  C   UNL     1      20.716   7.680   4.917  0.00  0.00    +0.005 A 
ATOM     29  C   UNL     1      19.905   8.587   6.960  0.00  0.00    +0.113 A 
ATOM     30  C   UNL     1      20.971   8.108   6.215  0.00  0.00    +0.020 A 
ENDBRANCH  20   5
ENDBRANCH  12  20
ENDBRANCH   8  12
BRANCH   9  18
ATOM     18  C   UNL     1       9.976   6.997   5.752  0.00  0.00    +0.124 C 
BRANCH  18  23
ATOM      3  O   UNL     1       8.159   7.814   7.157  0.00  0.00    -0.251 OA
ATOM     23  C   UNL     1       8.547   7.268   6.135  0.00  0.00    +0.305 C 
BRANCH  23   2
ATOM      2  O   UNL     1       7.718   6.812   5.162  0.00  0.00    -0.481 OA
ATOM     31  H   UNL     1       7.120   6.108   5.492  0.00  0.00    +0.295 HD
ENDBRANCH  23   2
ENDBRANCH  18  23
ENDBRANCH   9  18
TORSDOF 7
ENDMDL
MODEL 7
REMARK VINA RESULT:      -5.9      2.831      7.680
REMARK  Name = 28960034
REMARK  7 active torsions:
REMARK  status: ('A' for Active; 'I' for Inactive)
REMARK    1  A    between atoms: O_2  and  C_23
REMARK    2  A    between atoms: N_5  and  C_20
REMARK    3  A    between atoms: C_8  and  C_12
REMARK    4  A    between atoms: C_9  and  C_18
REMARK    5  A    between atoms: C_12  and  C_20
REMARK    6  A    between atoms: C_14  and  C_17
REMARK    7  A    between atoms: C_18  and  C_23
REMARK                            x       y       z     vdW  Elec       q    Type
REMARK                         _______ _______ _______ _____ _____    ______ ____
ROOT
ATOM      1  O   UNL     1      -7.907 -11.369  18.835  0.00  0.00    -0.275 OA
ATOM      4  N   UNL     1      -6.307 -10.335  17.512  0.00  0.00    -0.301 N 
ATOM      8  C   UNL     1      -4.838 -10.279  15.511  0.00  0.00    +0.011 C 
ATOM      9  C   UNL     1      -3.643 -10.657  16.424  0.00  0.00    +0.006 C 
ATOM     10  C   UNL     1      -5.916  -9.551  16.335  0.00  0.00    +0.111 C 
ATOM     11  C   UNL     1      -4.107 -11.432  17.670  0.00  0.00    +0.023 C 
ATOM     13  C   UNL     1      -5.209 -10.682  18.414  0.00  0.00    +0.108 C 
ATOM     17  C   UNL     1      -7.621 -10.725  17.813  0.00  0.00    +0.219 C 
ENDROOT
BRANCH  17  14
ATOM     14  C   UNL     1      -8.717 -10.324  16.815  0.00  0.00    +0.075 C 
ATOM     15  C   UNL     1     -10.047 -11.103  16.869  0.00  0.00    +0.013 C 
ATOM     16  C   UNL     1      -9.535  -9.054  17.131  0.00  0.00    +0.013 C 
ATOM     19  C   UNL     1     -10.750  -9.776  16.511  0.00  0.00    +0.001 C 
ENDBRANCH  17  14
BRANCH   8  12
ATOM     12  C   UNL     1      -5.453 -11.470  14.765  0.00  0.00    +0.020 C 
BRANCH  12  20
ATOM     20  C   UNL     1      -4.923 -11.548  13.339  0.00  0.00    +0.085 C 
BRANCH  20   5
ATOM      5  N   UNL     1      -5.793 -10.787  12.444  0.00  0.00    -0.299 NA
ATOM      6  N   UNL     1      -6.602  -9.617   9.967  0.00  0.00    -0.313 N 
ATOM      7  N   UNL     1      -7.567  -7.723   8.925  0.00  0.00    -0.240 NA
ATOM     21  C   UNL     1      -6.265 -11.633  11.341  0.00  0.00    +0.103 C 
ATOM     22  C   UNL     1      -5.085  -9.617  11.909  0.00  0.00    +0.103 C 
ATOM     24  C   UNL     1      -7.221 -10.864  10.427  0.00  0.00    +0.122 C 
ATOM     25  C   UNL     1      -6.003  -8.781  11.015  0.00  0.00    +0.122 C 
ATOM     26  C   UNL     1      -7.089  -8.983   8.818  0.00  0.00    +0.121 A 
ATOM     27  C   UNL     1      -7.049  -9.700   7.633  0.00  0.00    +0.043 A 
ATOM     28  C   UNL     1      -7.530  -9.082   6.483  0.00  0.00    +0.005 A 
ATOM     29  C   UNL     1      -8.026  -7.157   7.787  0.00  0.00    +0.113 A 
ATOM     30  C   UNL     1      -8.029  -7.787   6.553  0.00  0.00    +0.020 A 
ENDBRANCH  20   5
ENDBRANCH  12  20
ENDBRANCH   8  12
BRANCH   9  18
ATOM     18  C   UNL     1      -2.545 -11.424  15.689  0.00  0.00    +0.124 C 
BRANCH  18  23
ATOM      3  O   UNL     1      -1.536  -9.935  14.043  0.00  0.00    -0.251 OA
ATOM     23  C   UNL     1      -1.502 -10.498  15.127  0.00  0.00    +0.305 C 
BRANCH  23   2
ATOM      2  O   UNL     1      -0.483 -10.364  16.015  0.00  0.00    -0.481 OA
ATOM     31  H   UNL     1      -0.808 -10.301  16.938  0.00  0.00    +0.295 HD
ENDBRANCH  23   2
ENDBRANCH  18  23
ENDBRANCH   9  18
TORSDOF 7
ENDMDL
MODEL 8
REMARK VINA RESULT:      -5.9      2.855      8.182
REMARK  Name = 28960034
REMARK  7 active torsions:
REMARK  status: ('A' for Active; 'I' for Inactive)
REMARK    1  A    between atoms: O_2  and  C_23
REMARK    2  A    between atoms: N_5  and  C_20
REMARK    3  A    between atoms: C_8  and  C_12
REMARK    4  A    between atoms: C_9  and  C_18
REMARK    5  A    between atoms: C_12  and  C_20
REMARK    6  A    between atoms: C_14  and  C_17
REMARK    7  A    between atoms: C_18  and  C_23
REMARK                            x       y       z     vdW  Elec       q    Type
REMARK                         _______ _______ _______ _____ _____    ______ ____
ROOT
ATOM      1  O   UNL     1     -10.953 -10.903  18.033  0.00  0.00    -0.275 OA
ATOM      4  N   UNL     1      -8.721 -10.311  18.252  0.00  0.00    -0.301 N 
ATOM      8  C   UNL     1      -6.369 -10.347  17.458  0.00  0.00    +0.011 C 
ATOM      9  C   UNL     1      -6.056 -11.404  18.548  0.00  0.00    +0.006 C 
ATOM     10  C   UNL     1      -7.565  -9.482  17.896  0.00  0.00    +0.111 C 
ATOM     11  C   UNL     1      -7.308 -12.215  18.926  0.00  0.00    +0.023 C 
ATOM     13  C   UNL     1      -8.470 -11.299  19.301  0.00  0.00    +0.108 C 
ATOM     17  C   UNL     1      -9.998 -10.192  17.682  0.00  0.00    +0.219 C 
ENDROOT
BRANCH  17  14
ATOM     14  C   UNL     1     -10.178  -9.132  16.585  0.00  0.00    +0.075 C 
ATOM     15  C   UNL     1     -11.479  -9.183  15.757  0.00  0.00    +0.013 C 
ATOM     16  C   UNL     1     -10.604  -7.717  17.027  0.00  0.00    +0.013 C 
ATOM     19  C   UNL     1     -11.426  -7.640  15.723  0.00  0.00    +0.001 C 
ENDBRANCH  17  14
BRANCH   8  12
ATOM     12  C   UNL     1      -6.625 -10.942  16.067  0.00  0.00    +0.020 C 
BRANCH  12  20
ATOM     20  C   UNL     1      -5.768 -10.251  15.015  0.00  0.00    +0.085 C 
BRANCH  20   5
ATOM      5  N   UNL     1      -4.870 -11.220  14.391  0.00  0.00    -0.299 NA
ATOM      6  N   UNL     1      -3.141 -13.492  14.300  0.00  0.00    -0.313 N 
ATOM      7  N   UNL     1      -1.125 -14.378  13.432  0.00  0.00    -0.240 NA
ATOM     21  C   UNL     1      -5.419 -12.577  14.499  0.00  0.00    +0.103 C 
ATOM     22  C   UNL     1      -3.541 -11.167  15.014  0.00  0.00    +0.103 C 
ATOM     24  C   UNL     1      -4.515 -13.594  13.800  0.00  0.00    +0.122 C 
ATOM     25  C   UNL     1      -2.575 -12.137  14.330  0.00  0.00    +0.122 C 
ATOM     26  C   UNL     1      -2.261 -14.569  14.139  0.00  0.00    +0.121 A 
ATOM     27  C   UNL     1      -2.619 -15.773  14.723  0.00  0.00    +0.043 A 
ATOM     28  C   UNL     1      -1.755 -16.852  14.571  0.00  0.00    +0.005 A 
ATOM     29  C   UNL     1      -0.311 -15.450  13.305  0.00  0.00    +0.113 A 
ATOM     30  C   UNL     1      -0.577 -16.696  13.851  0.00  0.00    +0.020 A 
ENDBRANCH  20   5
ENDBRANCH  12  20
ENDBRANCH   8  12
BRANCH   9  18
ATOM     18  C   UNL     1      -4.905 -12.334  18.168  0.00  0.00    +0.124 C 
BRANCH  18  23
ATOM      3  O   UNL     1      -3.606 -12.306  20.231  0.00  0.00    -0.251 OA
ATOM     23  C   UNL     1      -3.695 -12.100  19.030  0.00  0.00    +0.305 C 
BRANCH  23   2
ATOM      2  O   UNL     1      -2.680 -11.613  18.271  0.00  0.00    -0.481 OA
ATOM     31  H   UNL     1      -2.984 -10.903  17.666  0.00  0.00    +0.295 HD
ENDBRANCH  23   2
ENDBRANCH  18  23
ENDBRANCH   9  18
TORSDOF 7
ENDMDL
MODEL 9
REMARK VINA RESULT:      -5.9      2.441      8.269
REMARK  Name = 28960034
REMARK  7 active torsions:
REMARK  status: ('A' for Active; 'I' for Inactive)
REMARK    1  A    between atoms: O_2  and  C_23
REMARK    2  A    between atoms: N_5  and  C_20
REMARK    3  A    between atoms: C_8  and  C_12
REMARK    4  A    between atoms: C_9  and  C_18
REMARK    5  A    between atoms: C_12  and  C_20
REMARK    6  A    between atoms: C_14  and  C_17
REMARK    7  A    between atoms: C_18  and  C_23
REMARK                            x       y       z     vdW  Elec       q    Type
REMARK                         _______ _______ _______ _____ _____    ______ ____
ROOT
ATOM      1  O   UNL     1      -7.890 -12.830  19.936  0.00  0.00    -0.275 OA
ATOM      4  N   UNL     1      -6.570 -11.261  18.852  0.00  0.00    -0.301 N 
ATOM      8  C   UNL     1      -5.614 -10.273  16.785  0.00  0.00    +0.011 C 
ATOM      9  C   UNL     1      -4.272 -10.975  17.114  0.00  0.00    +0.006 C 
ATOM     10  C   UNL     1      -6.406 -10.024  18.082  0.00  0.00    +0.111 C 
ATOM     11  C   UNL     1      -4.489 -12.239  17.966  0.00  0.00    +0.023 C 
ATOM     13  C   UNL     1      -5.321 -11.935  19.208  0.00  0.00    +0.108 C 
ATOM     17  C   UNL     1      -7.802 -11.790  19.265  0.00  0.00    +0.219 C 
ENDROOT
BRANCH  17  14
ATOM     14  C   UNL     1      -9.067 -11.024  18.848  0.00  0.00    +0.075 C 
ATOM     15  C   UNL     1     -10.197 -11.832  18.176  0.00  0.00    +0.013 C 
ATOM     16  C   UNL     1     -10.082 -10.671  19.955  0.00  0.00    +0.013 C 
ATOM     19  C   UNL     1     -11.190 -10.905  18.908  0.00  0.00    +0.001 C 
ENDBRANCH  17  14
BRANCH   8  12
ATOM     12  C   UNL     1      -6.480 -11.028  15.769  0.00  0.00    +0.020 C 
BRANCH  12  20
ATOM     20  C   UNL     1      -6.969 -10.093  14.671  0.00  0.00    +0.085 C 
BRANCH  20   5
ATOM      5  N   UNL     1      -6.206 -10.325  13.446  0.00  0.00    -0.299 NA
ATOM      6  N   UNL     1      -5.814 -10.586  10.629  0.00  0.00    -0.313 N 
ATOM      7  N   UNL     1      -4.727 -11.801   8.913  0.00  0.00    -0.240 NA
ATOM     21  C   UNL     1      -6.257  -9.144  12.575  0.00  0.00    +0.103 C 
ATOM     22  C   UNL     1      -6.725 -11.496  12.729  0.00  0.00    +0.103 C 
ATOM     24  C   UNL     1      -5.417  -9.352  11.314  0.00  0.00    +0.122 C 
ATOM     25  C   UNL     1      -5.899 -11.783  11.474  0.00  0.00    +0.122 C 
ATOM     26  C   UNL     1      -5.505 -10.757   9.274  0.00  0.00    +0.121 A 
ATOM     27  C   UNL     1      -6.026  -9.832   8.383  0.00  0.00    +0.043 A 
ATOM     28  C   UNL     1      -5.727  -9.990   7.034  0.00  0.00    +0.005 A 
ATOM     29  C   UNL     1      -4.459 -11.921   7.594  0.00  0.00    +0.113 A 
ATOM     30  C   UNL     1      -4.930 -11.051   6.623  0.00  0.00    +0.020 A 
ENDBRANCH  20   5
ENDBRANCH  12  20
ENDBRANCH   8  12
BRANCH   9  18
ATOM     18  C   UNL     1      -3.443 -11.298  15.872  0.00  0.00    +0.124 C 
BRANCH  18  23
ATOM      3  O   UNL     1      -1.572  -9.935  15.104  0.00  0.00    -0.251 OA
ATOM     23  C   UNL     1      -2.077 -10.672  15.938  0.00  0.00    +0.305 C 
BRANCH  23   2
ATOM      2  O   UNL     1      -1.457 -11.046  17.087  0.00  0.00    -0.481 OA
ATOM     31  H   UNL     1      -1.828 -11.880  17.448  0.00  0.00    +0.295 HD
ENDBRANCH  23   2
ENDBRANCH  18  23
ENDBRANCH   9  18
TORSDOF 7
ENDMDL
MODEL 10
REMARK VINA RESULT:      -5.8     27.050     28.254
REMARK  Name = 28960034
REMARK  7 active torsions:
REMARK  status: ('A' for Active; 'I' for Inactive)
REMARK    1  A    between atoms: O_2  and  C_23
REMARK    2  A    between atoms: N_5  and  C_20
REMARK    3  A    between atoms: C_8  and  C_12
REMARK    4  A    between atoms: C_9  and  C_18
REMARK    5  A    between atoms: C_12  and  C_20
REMARK    6  A    between atoms: C_14  and  C_17
REMARK    7  A    between atoms: C_18  and  C_23
REMARK                            x       y       z     vdW  Elec       q    Type
REMARK                         _______ _______ _______ _____ _____    ______ ____
ROOT
ATOM      1  O   UNL     1       8.664   8.671   1.319  0.00  0.00    -0.275 OA
ATOM      4  N   UNL     1       9.757   6.824   2.199  0.00  0.00    -0.301 N 
ATOM      8  C   UNL     1      11.714   5.774   3.307  0.00  0.00    +0.011 C 
ATOM      9  C   UNL     1      12.139   5.200   1.931  0.00  0.00    +0.006 C 
ATOM     10  C   UNL     1      10.192   6.001   3.332  0.00  0.00    +0.111 C 
ATOM     11  C   UNL     1      11.618   6.067   0.771  0.00  0.00    +0.023 C 
ATOM     13  C   UNL     1      10.113   6.296   0.881  0.00  0.00    +0.108 C 
ATOM     17  C   UNL     1       9.031   8.019   2.309  0.00  0.00    +0.219 C 
ENDROOT
BRANCH  17  14
ATOM     14  C   UNL     1       8.699   8.508   3.728  0.00  0.00    +0.075 C 
ATOM     15  C   UNL     1       9.309   9.852   4.176  0.00  0.00    +0.013 C 
ATOM     16  C   UNL     1       7.313   9.148   3.953  0.00  0.00    +0.013 C 
ATOM     19  C   UNL     1       8.000  10.097   4.958  0.00  0.00    +0.001 C 
ENDBRANCH  17  14
BRANCH   8  12
ATOM     12  C   UNL     1      12.451   7.061   3.700  0.00  0.00    +0.020 C 
BRANCH  12  20
ATOM     20  C   UNL     1      12.745   7.084   5.193  0.00  0.00    +0.085 C 
BRANCH  20   5
ATOM      5  N   UNL     1      11.926   8.104   5.845  0.00  0.00    -0.299 NA
ATOM      6  N   UNL     1      11.085   9.796   7.987  0.00  0.00    -0.313 N 
ATOM      7  N   UNL     1       9.231  10.731   9.125  0.00  0.00    -0.240 NA
ATOM     21  C   UNL     1      12.756   9.240   6.266  0.00  0.00    +0.103 C 
ATOM     22  C   UNL     1      11.227   7.540   7.006  0.00  0.00    +0.103 C 
ATOM     24  C   UNL     1      11.902  10.340   6.899  0.00  0.00    +0.122 C 
ATOM     25  C   UNL     1      10.321   8.584   7.664  0.00  0.00    +0.122 C 
ATOM     26  C   UNL     1      10.571  10.654   8.967  0.00  0.00    +0.121 A 
ATOM     27  C   UNL     1      11.484  11.378   9.718  0.00  0.00    +0.043 A 
ATOM     28  C   UNL     1      10.988  12.235  10.694  0.00  0.00    +0.005 A 
ATOM     29  C   UNL     1       8.787  11.574  10.083  0.00  0.00    +0.113 A 
ATOM     30  C   UNL     1       9.616  12.340  10.887  0.00  0.00    +0.020 A 
ENDBRANCH  20   5
ENDBRANCH  12  20
ENDBRANCH   8  12
BRANCH   9  18
ATOM     18  C   UNL     1      13.647   4.986   1.809  0.00  0.00    +0.124 C 
BRANCH  18  23
ATOM      3  O   UNL     1      13.269   2.632   1.301  0.00  0.00    -0.251 OA
ATOM     23  C   UNL     1      13.994   3.526   1.710  0.00  0.00    +0.305 C 
BRANCH  23   2
ATOM      2  O   UNL     1      15.264   3.327   2.150  0.00  0.00    -0.481 OA
ATOM     31  H   UNL     1      15.719   2.621   1.643  0.00  0.00    +0.295 HD
ENDBRANCH  23   2
ENDBRANCH  18  23
ENDBRANCH   9  18
TORSDOF 7
ENDMDL
