MODEL 1
REMARK VINA RESULT:      -7.5      0.000      0.000
REMARK  Name = 25314482
REMARK  7 active torsions:
REMARK  status: ('A' for Active; 'I' for Inactive)
REMARK    1  A    between atoms: O_3  and  C_9
REMARK    2  A    between atoms: N_5  and  C_8
REMARK    3  A    between atoms: N_6  and  C_10
REMARK    4  A    between atoms: N_7  and  C_24
REMARK    5  A    between atoms: C_15  and  C_19
REMARK    6  A    between atoms: C_19  and  C_20
REMARK    7  A    between atoms: C_24  and  C_28
REMARK                            x       y       z     vdW  Elec       q    Type
REMARK                         _______ _______ _______ _____ _____    ______ ____
ROOT
ATOM      1  O   UNL     1      13.395   9.348  20.833  0.00  0.00    -0.342 OA
ATOM      2  O   UNL     1      11.816   7.833  21.601  0.00  0.00    -0.347 OA
ATOM      8  C   UNL     1      13.841   6.992  20.580  0.00  0.00    +0.143 C 
ATOM      9  C   UNL     1      13.167   6.993  19.190  0.00  0.00    +0.159 C 
ATOM     10  C   UNL     1      12.734   8.399  18.718  0.00  0.00    +0.136 C 
ATOM     11  C   UNL     1      13.227   8.079  21.481  0.00  0.00    +0.270 C 
ATOM     12  C   UNL     1      12.330   9.331  19.879  0.00  0.00    +0.170 C 
ATOM     16  C   UNL     1      11.199   8.799  20.737  0.00  0.00    +0.196 C 
ENDROOT
BRANCH  10   6
ATOM      4  O   UNL     1      12.486   9.666  16.137  0.00  0.00    -0.253 OA
ATOM      6  N   UNL     1      13.792   9.013  17.942  0.00  0.00    -0.291 N 
ATOM      7  N   UNL     1      14.763  10.113  16.178  0.00  0.00    -0.300 N 
ATOM     21  C   UNL     1      13.578   9.602  16.702  0.00  0.00    +0.300 C 
ATOM     29  H   UNL     1      14.745   8.942  18.286  0.00  0.00    +0.151 HD
ATOM     31  H   UNL     1      15.620  10.005  16.712  0.00  0.00    +0.150 HD
BRANCH   7  24
ATOM     24  C   UNL     1      14.830  10.780  14.898  0.00  0.00    +0.102 C 
ATOM     28  C   UNL     1      14.568  12.265  15.032  0.00  0.00    +0.024 C 
ENDBRANCH   7  24
ENDBRANCH  10   6
BRANCH   8   5
ATOM      5  N   UNL     1      15.281   7.218  20.443  0.00  0.00    -0.293 NA
ATOM     13  C   UNL     1      15.892   6.159  19.628  0.00  0.00    +0.085 C 
ATOM     14  C   UNL     1      15.916   7.304  21.764  0.00  0.00    +0.085 C 
ATOM     15  C   UNL     1      18.115   6.542  20.773  0.00  0.00    -0.004 C 
ATOM     17  C   UNL     1      17.389   6.410  19.431  0.00  0.00    +0.019 C 
ATOM     18  C   UNL     1      17.414   7.594  21.639  0.00  0.00    +0.019 C 
BRANCH  15  19
ATOM     19  C   UNL     1      19.587   6.891  20.570  0.00  0.00    +0.038 C 
BRANCH  19  20
ATOM     20  C   UNL     1      20.492   5.838  21.147  0.00  0.00    -0.047 A 
ATOM     22  C   UNL     1      21.187   6.088  22.330  0.00  0.00    +0.003 A 
ATOM     23  C   UNL     1      20.637   4.611  20.500  0.00  0.00    +0.003 A 
ATOM     25  C   UNL     1      22.027   5.112  22.866  0.00  0.00    +0.000 A 
ATOM     26  C   UNL     1      21.476   3.635  21.036  0.00  0.00    +0.000 A 
ATOM     27  C   UNL     1      22.172   3.884  22.219  0.00  0.00    +0.000 A 
ENDBRANCH  19  20
ENDBRANCH  15  19
ENDBRANCH   8   5
BRANCH   9   3
ATOM      3  O   UNL     1      12.006   6.155  19.265  0.00  0.00    -0.388 OA
ATOM     30  H   UNL     1      11.846   5.795  18.376  0.00  0.00    +0.210 HD
ENDBRANCH   9   3
TORSDOF 6
ENDMDL
MODEL 2
REMARK VINA RESULT:      -6.9     13.163     14.905
REMARK  Name = 25314482
REMARK  7 active torsions:
REMARK  status: ('A' for Active; 'I' for Inactive)
REMARK    1  A    between atoms: O_3  and  C_9
REMARK    2  A    between atoms: N_5  and  C_8
REMARK    3  A    between atoms: N_6  and  C_10
REMARK    4  A    between atoms: N_7  and  C_24
REMARK    5  A    between atoms: C_15  and  C_19
REMARK    6  A    between atoms: C_19  and  C_20
REMARK    7  A    between atoms: C_24  and  C_28
REMARK                            x       y       z     vdW  Elec       q    Type
REMARK                         _______ _______ _______ _____ _____    ______ ____
ROOT
ATOM      1  O   UNL     1      10.703   8.545   5.525  0.00  0.00    -0.342 OA
ATOM      2  O   UNL     1       9.959   8.313   7.710  0.00  0.00    -0.347 OA
ATOM      8  C   UNL     1      12.278   7.842   7.210  0.00  0.00    +0.143 C 
ATOM      9  C   UNL     1      11.941   6.359   6.935  0.00  0.00    +0.159 C 
ATOM     10  C   UNL     1      10.966   6.160   5.754  0.00  0.00    +0.136 C 
ATOM     11  C   UNL     1      11.067   8.740   6.899  0.00  0.00    +0.270 C 
ATOM     12  C   UNL     1       9.965   7.322   5.590  0.00  0.00    +0.170 C 
ATOM     16  C   UNL     1       9.109   7.580   6.815  0.00  0.00    +0.196 C 
ENDROOT
BRANCH  10   6
ATOM      4  O   UNL     1      10.368   4.297   3.633  0.00  0.00    -0.253 OA
ATOM      6  N   UNL     1      11.705   5.973   4.523  0.00  0.00    -0.291 N 
ATOM      7  N   UNL     1      12.222   5.075   2.475  0.00  0.00    -0.300 N 
ATOM     21  C   UNL     1      11.341   5.046   3.553  0.00  0.00    +0.300 C 
ATOM     29  H   UNL     1      12.571   6.489   4.398  0.00  0.00    +0.151 HD
ATOM     31  H   UNL     1      13.005   5.721   2.501  0.00  0.00    +0.150 HD
BRANCH   7  24
ATOM     24  C   UNL     1      12.080   4.213   1.324  0.00  0.00    +0.102 C 
ATOM     28  C   UNL     1      13.200   3.197   1.251  0.00  0.00    +0.024 C 
ENDBRANCH   7  24
ENDBRANCH  10   6
BRANCH   8   5
ATOM      5  N   UNL     1      13.424   8.258   6.398  0.00  0.00    -0.293 NA
ATOM     13  C   UNL     1      14.503   7.265   6.486  0.00  0.00    +0.085 C 
ATOM     14  C   UNL     1      13.890   9.588   6.811  0.00  0.00    +0.085 C 
ATOM     15  C   UNL     1      16.210   9.056   5.955  0.00  0.00    -0.004 C 
ATOM     17  C   UNL     1      15.688   7.660   5.600  0.00  0.00    +0.019 C 
ATOM     18  C   UNL     1      15.054  10.061   5.936  0.00  0.00    +0.019 C 
BRANCH  15  19
ATOM     19  C   UNL     1      17.324   9.483   5.004  0.00  0.00    +0.038 C 
BRANCH  19  20
ATOM     20  C   UNL     1      18.613   8.768   5.303  0.00  0.00    -0.047 A 
ATOM     22  C   UNL     1      19.214   7.976   4.325  0.00  0.00    +0.003 A 
ATOM     23  C   UNL     1      19.209   8.897   6.558  0.00  0.00    +0.003 A 
ATOM     25  C   UNL     1      20.409   7.312   4.601  0.00  0.00    +0.000 A 
ATOM     26  C   UNL     1      20.404   8.233   6.833  0.00  0.00    +0.000 A 
ATOM     27  C   UNL     1      21.005   7.441   5.856  0.00  0.00    +0.000 A 
ENDBRANCH  19  20
ENDBRANCH  15  19
ENDBRANCH   8   5
BRANCH   9   3
ATOM      3  O   UNL     1      11.344   5.819   8.121  0.00  0.00    -0.388 OA
ATOM     30  H   UNL     1      11.826   6.181   8.884  0.00  0.00    +0.210 HD
ENDBRANCH   9   3
TORSDOF 6
ENDMDL
MODEL 3
REMARK VINA RESULT:      -6.7      2.671      4.285
REMARK  Name = 25314482
REMARK  7 active torsions:
REMARK  status: ('A' for Active; 'I' for Inactive)
REMARK    1  A    between atoms: O_3  and  C_9
REMARK    2  A    between atoms: N_5  and  C_8
REMARK    3  A    between atoms: N_6  and  C_10
REMARK    4  A    between atoms: N_7  and  C_24
REMARK    5  A    between atoms: C_15  and  C_19
REMARK    6  A    between atoms: C_19  and  C_20
REMARK    7  A    between atoms: C_24  and  C_28
REMARK                            x       y       z     vdW  Elec       q    Type
REMARK                         _______ _______ _______ _____ _____    ______ ____
ROOT
ATOM      1  O   UNL     1      12.550   7.351  22.182  0.00  0.00    -0.342 OA
ATOM      2  O   UNL     1      11.593   7.070  20.087  0.00  0.00    -0.347 OA
ATOM      8  C   UNL     1      13.814   8.015  20.238  0.00  0.00    +0.143 C 
ATOM      9  C   UNL     1      13.225   9.442  20.318  0.00  0.00    +0.159 C 
ATOM     10  C   UNL     1      12.333   9.670  21.558  0.00  0.00    +0.136 C 
ATOM     11  C   UNL     1      12.826   6.988  20.821  0.00  0.00    +0.270 C 
ATOM     12  C   UNL     1      11.589   8.398  22.013  0.00  0.00    +0.170 C 
ATOM     16  C   UNL     1      10.697   7.787  20.950  0.00  0.00    +0.196 C 
ENDROOT
BRANCH  10   6
ATOM      4  O   UNL     1      11.504  11.600  23.537  0.00  0.00    -0.253 OA
ATOM      6  N   UNL     1      13.125  10.193  22.652  0.00  0.00    -0.291 N 
ATOM      7  N   UNL     1      13.607  11.455  24.508  0.00  0.00    -0.300 N 
ATOM     21  C   UNL     1      12.640  11.126  23.561  0.00  0.00    +0.300 C 
ATOM     29  H   UNL     1      14.102   9.922  22.712  0.00  0.00    +0.151 HD
ATOM     31  H   UNL     1      14.522  11.019  24.443  0.00  0.00    +0.150 HD
BRANCH   7  24
ATOM     24  C   UNL     1      13.371  12.402  25.572  0.00  0.00    +0.102 C 
ATOM     28  C   UNL     1      13.824  13.794  25.186  0.00  0.00    +0.024 C 
ENDBRANCH   7  24
ENDBRANCH  10   6
BRANCH   8   5
ATOM      5  N   UNL     1      15.082   7.951  20.968  0.00  0.00    -0.293 NA
ATOM     13  C   UNL     1      15.979   9.032  20.534  0.00  0.00    +0.085 C 
ATOM     14  C   UNL     1      15.711   6.636  20.790  0.00  0.00    +0.085 C 
ATOM     15  C   UNL     1      17.988   7.652  21.212  0.00  0.00    -0.004 C 
ATOM     17  C   UNL     1      17.289   9.011  21.325  0.00  0.00    +0.019 C 
ATOM     18  C   UNL     1      17.012   6.534  21.591  0.00  0.00    +0.019 C 
BRANCH  15  19
ATOM     19  C   UNL     1      19.241   7.605  22.082  0.00  0.00    +0.038 C 
BRANCH  19  20
ATOM     20  C   UNL     1      20.078   6.392  21.785  0.00  0.00    -0.047 A 
ATOM     22  C   UNL     1      20.984   5.920  22.735  0.00  0.00    +0.003 A 
ATOM     23  C   UNL     1      19.949   5.737  20.560  0.00  0.00    +0.003 A 
ATOM     25  C   UNL     1      21.761   4.795  22.461  0.00  0.00    +0.000 A 
ATOM     26  C   UNL     1      20.725   4.611  20.286  0.00  0.00    +0.000 A 
ATOM     27  C   UNL     1      21.632   4.140  21.236  0.00  0.00    +0.000 A 
ENDBRANCH  19  20
ENDBRANCH  15  19
ENDBRANCH   8   5
BRANCH   9   3
ATOM      3  O   UNL     1      12.438   9.657  19.139  0.00  0.00    -0.388 OA
ATOM     30  H   UNL     1      12.233   8.785  18.760  0.00  0.00    +0.210 HD
ENDBRANCH   9   3
TORSDOF 6
ENDMDL
MODEL 4
REMARK VINA RESULT:      -6.7      2.300      7.295
REMARK  Name = 25314482
REMARK  7 active torsions:
REMARK  status: ('A' for Active; 'I' for Inactive)
REMARK    1  A    between atoms: O_3  and  C_9
REMARK    2  A    between atoms: N_5  and  C_8
REMARK    3  A    between atoms: N_6  and  C_10
REMARK    4  A    between atoms: N_7  and  C_24
REMARK    5  A    between atoms: C_15  and  C_19
REMARK    6  A    between atoms: C_19  and  C_20
REMARK    7  A    between atoms: C_24  and  C_28
REMARK                            x       y       z     vdW  Elec       q    Type
REMARK                         _______ _______ _______ _____ _____    ______ ____
ROOT
ATOM      1  O   UNL     1      11.551   6.954  19.810  0.00  0.00    -0.342 OA
ATOM      2  O   UNL     1      10.355   8.288  21.283  0.00  0.00    -0.347 OA
ATOM      8  C   UNL     1      12.317   9.205  20.208  0.00  0.00    +0.143 C 
ATOM      9  C   UNL     1      13.210   8.717  21.371  0.00  0.00    +0.159 C 
ATOM     10  C   UNL     1      13.216   7.182  21.538  0.00  0.00    +0.136 C 
ATOM     11  C   UNL     1      11.089   8.291  20.047  0.00  0.00    +0.270 C 
ATOM     12  C   UNL     1      11.882   6.522  21.132  0.00  0.00    +0.170 C 
ATOM     16  C   UNL     1      10.678   7.032  21.900  0.00  0.00    +0.196 C 
ENDROOT
BRANCH  10   6
ATOM      4  O   UNL     1      16.013   7.874  21.695  0.00  0.00    -0.253 OA
ATOM      6  N   UNL     1      14.302   6.601  20.776  0.00  0.00    -0.291 N 
ATOM      7  N   UNL     1      16.462   6.281  20.068  0.00  0.00    -0.300 N 
ATOM     21  C   UNL     1      15.626   7.001  20.919  0.00  0.00    +0.300 C 
ATOM     29  H   UNL     1      14.075   5.927  20.052  0.00  0.00    +0.151 HD
ATOM     31  H   UNL     1      16.051   5.584  19.454  0.00  0.00    +0.150 HD
BRANCH   7  24
ATOM     24  C   UNL     1      17.889   6.492  20.010  0.00  0.00    +0.102 C 
ATOM     28  C   UNL     1      18.624   5.220  19.645  0.00  0.00    +0.024 C 
ENDBRANCH   7  24
ENDBRANCH  10   6
BRANCH   8   5
ATOM      5  N   UNL     1      13.083   9.230  18.960  0.00  0.00    -0.293 NA
ATOM     13  C   UNL     1      14.046  10.339  18.970  0.00  0.00    +0.085 C 
ATOM     14  C   UNL     1      12.181   9.320  17.805  0.00  0.00    +0.085 C 
ATOM     15  C   UNL     1      14.012  10.408  16.442  0.00  0.00    -0.004 C 
ATOM     17  C   UNL     1      14.892  10.346  17.694  0.00  0.00    +0.019 C 
ATOM     18  C   UNL     1      12.964   9.291  16.490  0.00  0.00    +0.019 C 
BRANCH  15  19
ATOM     19  C   UNL     1      14.855  10.314  15.173  0.00  0.00    +0.038 C 
BRANCH  19  20
ATOM     20  C   UNL     1      15.462  11.641  14.810  0.00  0.00    -0.047 A 
ATOM     22  C   UNL     1      16.843  11.820  14.885  0.00  0.00    +0.003 A 
ATOM     23  C   UNL     1      14.644  12.693  14.399  0.00  0.00    +0.003 A 
ATOM     25  C   UNL     1      17.407  13.051  14.548  0.00  0.00    +0.000 A 
ATOM     26  C   UNL     1      15.208  13.924  14.062  0.00  0.00    +0.000 A 
ATOM     27  C   UNL     1      16.589  14.103  14.137  0.00  0.00    +0.000 A 
ENDBRANCH  19  20
ENDBRANCH  15  19
ENDBRANCH   8   5
BRANCH   9   3
ATOM      3  O   UNL     1      12.717   9.310  22.580  0.00  0.00    -0.388 OA
ATOM     30  H   UNL     1      13.117   8.832  23.326  0.00  0.00    +0.210 HD
ENDBRANCH   9   3
TORSDOF 6
ENDMDL
MODEL 5
REMARK VINA RESULT:      -6.3     13.819     17.591
REMARK  Name = 25314482
REMARK  7 active torsions:
REMARK  status: ('A' for Active; 'I' for Inactive)
REMARK    1  A    between atoms: O_3  and  C_9
REMARK    2  A    between atoms: N_5  and  C_8
REMARK    3  A    between atoms: N_6  and  C_10
REMARK    4  A    between atoms: N_7  and  C_24
REMARK    5  A    between atoms: C_15  and  C_19
REMARK    6  A    between atoms: C_19  and  C_20
REMARK    7  A    between atoms: C_24  and  C_28
REMARK                            x       y       z     vdW  Elec       q    Type
REMARK                         _______ _______ _______ _____ _____    ______ ____
ROOT
ATOM      1  O   UNL     1      10.435   5.731   6.905  0.00  0.00    -0.342 OA
ATOM      2  O   UNL     1       8.464   6.906   6.563  0.00  0.00    -0.347 OA
ATOM      8  C   UNL     1      10.054   6.738   4.747  0.00  0.00    +0.143 C 
ATOM      9  C   UNL     1      10.751   8.037   5.208  0.00  0.00    +0.159 C 
ATOM     10  C   UNL     1      11.364   7.937   6.623  0.00  0.00    +0.136 C 
ATOM     11  C   UNL     1       9.408   6.016   5.944  0.00  0.00    +0.270 C 
ATOM     12  C   UNL     1      10.580   6.995   7.559  0.00  0.00    +0.170 C 
ATOM     16  C   UNL     1       9.124   7.378   7.747  0.00  0.00    +0.196 C 
ENDROOT
BRANCH  10   6
ATOM      4  O   UNL     1      13.685   9.612   6.256  0.00  0.00    -0.253 OA
ATOM      6  N   UNL     1      12.744   7.508   6.539  0.00  0.00    -0.291 N 
ATOM      7  N   UNL     1      15.019   7.714   6.315  0.00  0.00    -0.300 N 
ATOM     21  C   UNL     1      13.803   8.391   6.360  0.00  0.00    +0.300 C 
ATOM     29  H   UNL     1      12.939   6.512   6.535  0.00  0.00    +0.151 HD
ATOM     31  H   UNL     1      15.018   6.702   6.400  0.00  0.00    +0.150 HD
BRANCH   7  24
ATOM     24  C   UNL     1      16.284   8.387   6.136  0.00  0.00    +0.102 C 
ATOM     28  C   UNL     1      16.802   8.230   4.722  0.00  0.00    +0.024 C 
ENDBRANCH   7  24
ENDBRANCH  10   6
BRANCH   8   5
ATOM      5  N   UNL     1      11.019   5.851   4.096  0.00  0.00    -0.293 NA
ATOM     13  C   UNL     1      11.786   6.583   3.079  0.00  0.00    +0.085 C 
ATOM     14  C   UNL     1      10.337   4.689   3.512  0.00  0.00    +0.085 C 
ATOM     15  C   UNL     1      12.198   4.429   1.819  0.00  0.00    -0.004 C 
ATOM     17  C   UNL     1      12.836   5.682   2.426  0.00  0.00    +0.019 C 
ATOM     18  C   UNL     1      11.339   3.723   2.874  0.00  0.00    +0.019 C 
BRANCH  15  19
ATOM     19  C   UNL     1      13.261   3.488   1.258  0.00  0.00    +0.038 C 
BRANCH  19  20
ATOM     20  C   UNL     1      13.417   3.651  -0.228  0.00  0.00    -0.047 A 
ATOM     22  C   UNL     1      14.523   4.327  -0.743  0.00  0.00    +0.003 A 
ATOM     23  C   UNL     1      12.457   3.125  -1.094  0.00  0.00    +0.003 A 
ATOM     25  C   UNL     1      14.669   4.479  -2.121  0.00  0.00    +0.000 A 
ATOM     26  C   UNL     1      12.604   3.277  -2.472  0.00  0.00    +0.000 A 
ATOM     27  C   UNL     1      13.709   3.954  -2.987  0.00  0.00    +0.000 A 
ENDBRANCH  19  20
ENDBRANCH  15  19
ENDBRANCH   8   5
BRANCH   9   3
ATOM      3  O   UNL     1       9.772   9.085   5.204  0.00  0.00    -0.388 OA
ATOM     30  H   UNL     1       8.924   8.693   4.935  0.00  0.00    +0.210 HD
ENDBRANCH   9   3
TORSDOF 6
ENDMDL
MODEL 6
REMARK VINA RESULT:      -6.3     27.025     29.182
REMARK  Name = 25314482
REMARK  7 active torsions:
REMARK  status: ('A' for Active; 'I' for Inactive)
REMARK    1  A    between atoms: O_3  and  C_9
REMARK    2  A    between atoms: N_5  and  C_8
REMARK    3  A    between atoms: N_6  and  C_10
REMARK    4  A    between atoms: N_7  and  C_24
REMARK    5  A    between atoms: C_15  and  C_19
REMARK    6  A    between atoms: C_19  and  C_20
REMARK    7  A    between atoms: C_24  and  C_28
REMARK                            x       y       z     vdW  Elec       q    Type
REMARK                         _______ _______ _______ _____ _____    ______ ____
ROOT
ATOM      1  O   UNL     1      -4.763 -10.282  18.131  0.00  0.00    -0.342 OA
ATOM      2  O   UNL     1      -4.458 -12.372  19.088  0.00  0.00    -0.347 OA
ATOM      8  C   UNL     1      -4.577 -12.198  16.679  0.00  0.00    +0.143 C 
ATOM      9  C   UNL     1      -6.108 -12.402  16.718  0.00  0.00    +0.159 C 
ATOM     10  C   UNL     1      -6.856 -11.292  17.489  0.00  0.00    +0.136 C 
ATOM     11  C   UNL     1      -4.085 -11.537  17.980  0.00  0.00    +0.270 C 
ATOM     12  C   UNL     1      -6.030 -10.696  18.648  0.00  0.00    +0.170 C 
ATOM     16  C   UNL     1      -5.587 -11.714  19.682  0.00  0.00    +0.196 C 
ENDROOT
BRANCH  10   6
ATOM      4  O   UNL     1      -9.530 -10.299  17.055  0.00  0.00    -0.253 OA
ATOM      6  N   UNL     1      -7.258 -10.238  16.582  0.00  0.00    -0.291 N 
ATOM      7  N   UNL     1      -8.682  -8.798  15.502  0.00  0.00    -0.300 N 
ATOM     21  C   UNL     1      -8.577  -9.824  16.437  0.00  0.00    +0.300 C 
ATOM     29  H   UNL     1      -6.555  -9.836  15.969  0.00  0.00    +0.151 HD
ATOM     31  H   UNL     1      -7.840  -8.476  15.033  0.00  0.00    +0.150 HD
BRANCH   7  24
ATOM     24  C   UNL     1      -9.941  -8.179  15.155  0.00  0.00    +0.102 C 
ATOM     28  C   UNL     1     -10.182  -6.922  15.964  0.00  0.00    +0.024 C 
ENDBRANCH   7  24
ENDBRANCH  10   6
BRANCH   8   5
ATOM      5  N   UNL     1      -4.207 -11.368  15.531  0.00  0.00    -0.293 NA
ATOM     13  C   UNL     1      -5.041 -11.699  14.368  0.00  0.00    +0.085 C 
ATOM     14  C   UNL     1      -2.780 -11.525  15.222  0.00  0.00    +0.085 C 
ATOM     15  C   UNL     1      -3.217 -10.891  12.813  0.00  0.00    -0.004 C 
ATOM     17  C   UNL     1      -4.703 -10.802  13.174  0.00  0.00    +0.019 C 
ATOM     18  C   UNL     1      -2.364 -10.622  14.058  0.00  0.00    +0.019 C 
BRANCH  15  19
ATOM     19  C   UNL     1      -2.866  -9.921  11.688  0.00  0.00    +0.038 C 
BRANCH  19  20
ATOM     20  C   UNL     1      -3.598 -10.256  10.418  0.00  0.00    -0.047 A 
ATOM     22  C   UNL     1      -4.149  -9.237   9.641  0.00  0.00    +0.003 A 
ATOM     23  C   UNL     1      -3.727 -11.586  10.016  0.00  0.00    +0.003 A 
ATOM     25  C   UNL     1      -4.829  -9.547   8.463  0.00  0.00    +0.000 A 
ATOM     26  C   UNL     1      -4.407 -11.896   8.838  0.00  0.00    +0.000 A 
ATOM     27  C   UNL     1      -4.958 -10.877   8.061  0.00  0.00    +0.000 A 
ENDBRANCH  19  20
ENDBRANCH  15  19
ENDBRANCH   8   5
BRANCH   9   3
ATOM      3  O   UNL     1      -6.367 -13.660  17.355  0.00  0.00    -0.388 OA
ATOM     30  H   UNL     1      -6.663 -14.281  16.669  0.00  0.00    +0.210 HD
ENDBRANCH   9   3
TORSDOF 6
ENDMDL
MODEL 7
REMARK VINA RESULT:      -6.0     27.979     31.335
REMARK  Name = 25314482
REMARK  7 active torsions:
REMARK  status: ('A' for Active; 'I' for Inactive)
REMARK    1  A    between atoms: O_3  and  C_9
REMARK    2  A    between atoms: N_5  and  C_8
REMARK    3  A    between atoms: N_6  and  C_10
REMARK    4  A    between atoms: N_7  and  C_24
REMARK    5  A    between atoms: C_15  and  C_19
REMARK    6  A    between atoms: C_19  and  C_20
REMARK    7  A    between atoms: C_24  and  C_28
REMARK                            x       y       z     vdW  Elec       q    Type
REMARK                         _______ _______ _______ _____ _____    ______ ____
ROOT
ATOM      1  O   UNL     1     -15.818   4.543  24.522  0.00  0.00    -0.342 OA
ATOM      2  O   UNL     1     -17.254   3.208  23.282  0.00  0.00    -0.347 OA
ATOM      8  C   UNL     1     -16.209   5.108  22.211  0.00  0.00    +0.143 C 
ATOM      9  C   UNL     1     -17.395   6.014  22.613  0.00  0.00    +0.159 C 
ATOM     10  C   UNL     1     -17.577   6.146  24.141  0.00  0.00    +0.136 C 
ATOM     11  C   UNL     1     -16.033   3.965  23.227  0.00  0.00    +0.270 C 
ATOM     12  C   UNL     1     -17.151   4.881  24.914  0.00  0.00    +0.170 C 
ATOM     16  C   UNL     1     -17.889   3.623  24.501  0.00  0.00    +0.196 C 
ENDROOT
BRANCH  10   6
ATOM      4  O   UNL     1     -18.502   8.120  26.031  0.00  0.00    -0.253 OA
ATOM      6  N   UNL     1     -16.843   7.293  24.634  0.00  0.00    -0.291 N 
ATOM      7  N   UNL     1     -16.456   9.200  25.851  0.00  0.00    -0.300 N 
ATOM     21  C   UNL     1     -17.373   8.196  25.549  0.00  0.00    +0.300 C 
ATOM     29  H   UNL     1     -15.929   7.487  24.236  0.00  0.00    +0.151 HD
ATOM     31  H   UNL     1     -15.548   9.186  25.395  0.00  0.00    +0.150 HD
BRANCH   7  24
ATOM     24  C   UNL     1     -16.745  10.272  26.774  0.00  0.00    +0.102 C 
ATOM     28  C   UNL     1     -16.307   9.925  28.182  0.00  0.00    +0.024 C 
ENDBRANCH   7  24
ENDBRANCH  10   6
BRANCH   8   5
ATOM      5  N   UNL     1     -14.977   5.895  22.133  0.00  0.00    -0.293 NA
ATOM     13  C   UNL     1     -15.114   6.967  21.137  0.00  0.00    +0.085 C 
ATOM     14  C   UNL     1     -13.832   5.028  21.825  0.00  0.00    +0.085 C 
ATOM     15  C   UNL     1     -12.608   6.986  20.794  0.00  0.00    -0.004 C 
ATOM     17  C   UNL     1     -13.852   7.832  21.081  0.00  0.00    +0.019 C 
ATOM     18  C   UNL     1     -12.527   5.827  21.794  0.00  0.00    +0.019 C 
BRANCH  15  19
ATOM     19  C   UNL     1     -11.342   7.838  20.839  0.00  0.00    +0.038 C 
BRANCH  19  20
ATOM     20  C   UNL     1     -10.981   8.366  19.478  0.00  0.00    -0.047 A 
ATOM     22  C   UNL     1     -10.419   9.637  19.350  0.00  0.00    +0.003 A 
ATOM     23  C   UNL     1     -11.207   7.587  18.343  0.00  0.00    +0.003 A 
ATOM     25  C   UNL     1     -10.083  10.128  18.088  0.00  0.00    +0.000 A 
ATOM     26  C   UNL     1     -10.872   8.078  17.082  0.00  0.00    +0.000 A 
ATOM     27  C   UNL     1     -10.310   9.348  16.953  0.00  0.00    +0.000 A 
ENDBRANCH  19  20
ENDBRANCH  15  19
ENDBRANCH   8   5
BRANCH   9   3
ATOM      3  O   UNL     1     -18.588   5.448  22.054  0.00  0.00    -0.388 OA
ATOM     30  H   UNL     1     -18.660   4.536  22.381  0.00  0.00    +0.210 HD
ENDBRANCH   9   3
TORSDOF 6
ENDMDL
MODEL 8
REMARK VINA RESULT:      -5.8     26.240     29.264
REMARK  Name = 25314482
REMARK  7 active torsions:
REMARK  status: ('A' for Active; 'I' for Inactive)
REMARK    1  A    between atoms: O_3  and  C_9
REMARK    2  A    between atoms: N_5  and  C_8
REMARK    3  A    between atoms: N_6  and  C_10
REMARK    4  A    between atoms: N_7  and  C_24
REMARK    5  A    between atoms: C_15  and  C_19
REMARK    6  A    between atoms: C_19  and  C_20
REMARK    7  A    between atoms: C_24  and  C_28
REMARK                            x       y       z     vdW  Elec       q    Type
REMARK                         _______ _______ _______ _____ _____    ______ ____
ROOT
ATOM      1  O   UNL     1      -2.360  -9.622  14.921  0.00  0.00    -0.342 OA
ATOM      2  O   UNL     1      -0.898 -11.400  15.208  0.00  0.00    -0.347 OA
ATOM      8  C   UNL     1      -2.620 -11.565  13.517  0.00  0.00    +0.143 C 
ATOM      9  C   UNL     1      -3.593 -12.197  14.538  0.00  0.00    +0.159 C 
ATOM     10  C   UNL     1      -3.930 -11.266  15.724  0.00  0.00    +0.136 C 
ATOM     11  C   UNL     1      -1.619 -10.636  14.227  0.00  0.00    +0.270 C 
ATOM     12  C   UNL     1      -2.772 -10.319  16.100  0.00  0.00    +0.170 C 
ATOM     16  C   UNL     1      -1.483 -11.030  16.466  0.00  0.00    +0.196 C 
ENDROOT
BRANCH  10   6
ATOM      4  O   UNL     1      -6.045 -10.561  17.556  0.00  0.00    -0.253 OA
ATOM      6  N   UNL     1      -5.118 -10.493  15.428  0.00  0.00    -0.291 N 
ATOM      7  N   UNL     1      -7.122  -9.447  15.829  0.00  0.00    -0.300 N 
ATOM     21  C   UNL     1      -6.089 -10.202  16.380  0.00  0.00    +0.300 C 
ATOM     29  H   UNL     1      -5.287 -10.217  14.466  0.00  0.00    +0.151 HD
ATOM     31  H   UNL     1      -7.077  -9.204  14.844  0.00  0.00    +0.150 HD
BRANCH   7  24
ATOM     24  C   UNL     1      -8.263  -9.004  16.596  0.00  0.00    +0.102 C 
ATOM     28  C   UNL     1      -9.459  -9.908  16.382  0.00  0.00    +0.024 C 
ENDBRANCH   7  24
ENDBRANCH  10   6
BRANCH   8   5
ATOM      5  N   UNL     1      -3.367 -10.811  12.509  0.00  0.00    -0.293 NA
ATOM     13  C   UNL     1      -4.469 -11.622  11.973  0.00  0.00    +0.085 C 
ATOM     14  C   UNL     1      -2.471 -10.359  11.437  0.00  0.00    +0.085 C 
ATOM     15  C   UNL     1      -4.414 -10.296   9.819  0.00  0.00    -0.004 C 
ATOM     17  C   UNL     1      -5.293 -10.828  10.955  0.00  0.00    +0.019 C 
ATOM     18  C   UNL     1      -3.227  -9.522  10.402  0.00  0.00    +0.019 C 
BRANCH  15  19
ATOM     19  C   UNL     1      -5.222  -9.423   8.863  0.00  0.00    +0.038 C 
BRANCH  19  20
ATOM     20  C   UNL     1      -5.381 -10.075   7.517  0.00  0.00    -0.047 A 
ATOM     22  C   UNL     1      -6.302  -9.568   6.601  0.00  0.00    +0.003 A 
ATOM     23  C   UNL     1      -4.607 -11.187   7.183  0.00  0.00    +0.003 A 
ATOM     25  C   UNL     1      -6.451 -10.171   5.353  0.00  0.00    +0.000 A 
ATOM     26  C   UNL     1      -4.756 -11.790   5.935  0.00  0.00    +0.000 A 
ATOM     27  C   UNL     1      -5.677 -11.283   5.019  0.00  0.00    +0.000 A 
ENDBRANCH  19  20
ENDBRANCH  15  19
ENDBRANCH   8   5
BRANCH   9   3
ATOM      3  O   UNL     1      -2.979 -13.388  15.049  0.00  0.00    -0.388 OA
ATOM     30  H   UNL     1      -2.351 -13.705  14.378  0.00  0.00    +0.210 HD
ENDBRANCH   9   3
TORSDOF 6
ENDMDL
MODEL 9
REMARK VINA RESULT:      -5.7     32.920     34.735
REMARK  Name = 25314482
REMARK  7 active torsions:
REMARK  status: ('A' for Active; 'I' for Inactive)
REMARK    1  A    between atoms: O_3  and  C_9
REMARK    2  A    between atoms: N_5  and  C_8
REMARK    3  A    between atoms: N_6  and  C_10
REMARK    4  A    between atoms: N_7  and  C_24
REMARK    5  A    between atoms: C_15  and  C_19
REMARK    6  A    between atoms: C_19  and  C_20
REMARK    7  A    between atoms: C_24  and  C_28
REMARK                            x       y       z     vdW  Elec       q    Type
REMARK                         _______ _______ _______ _____ _____    ______ ____
ROOT
ATOM      1  O   UNL     1      -4.393 -13.110  -1.341  0.00  0.00    -0.342 OA
ATOM      2  O   UNL     1      -5.618 -15.080  -1.392  0.00  0.00    -0.347 OA
ATOM      8  C   UNL     1      -3.210 -15.207  -1.211  0.00  0.00    +0.143 C 
ATOM      9  C   UNL     1      -3.074 -15.249  -2.750  0.00  0.00    +0.159 C 
ATOM     10  C   UNL     1      -3.610 -13.980  -3.448  0.00  0.00    +0.136 C 
ATOM     11  C   UNL     1      -4.477 -14.436  -0.800  0.00  0.00    +0.270 C 
ATOM     12  C   UNL     1      -4.788 -13.325  -2.699  0.00  0.00    +0.170 C 
ATOM     16  C   UNL     1      -5.981 -14.240  -2.499  0.00  0.00    +0.196 C 
ENDROOT
BRANCH  10   6
ATOM      4  O   UNL     1      -1.521 -14.035  -5.439  0.00  0.00    -0.253 OA
ATOM      6  N   UNL     1      -2.542 -13.017  -3.619  0.00  0.00    -0.291 N 
ATOM      7  N   UNL     1      -0.670 -12.068  -4.549  0.00  0.00    -0.300 N 
ATOM     21  C   UNL     1      -1.574 -13.125  -4.611  0.00  0.00    +0.300 C 
ATOM     29  H   UNL     1      -2.452 -12.271  -2.936  0.00  0.00    +0.151 HD
ATOM     31  H   UNL     1      -0.788 -11.367  -3.823  0.00  0.00    +0.150 HD
BRANCH   7  24
ATOM     24  C   UNL     1       0.440 -11.931  -5.463  0.00  0.00    +0.102 C 
ATOM     28  C   UNL     1       1.489 -10.981  -4.924  0.00  0.00    +0.024 C 
ENDBRANCH   7  24
ENDBRANCH  10   6
BRANCH   8   5
ATOM      5  N   UNL     1      -2.031 -14.574  -0.618  0.00  0.00    -0.293 NA
ATOM     13  C   UNL     1      -0.818 -14.953  -1.356  0.00  0.00    +0.085 C 
ATOM     14  C   UNL     1      -1.919 -14.926   0.803  0.00  0.00    +0.085 C 
ATOM     15  C   UNL     1       0.581 -14.554   0.713  0.00  0.00    -0.004 C 
ATOM     17  C   UNL     1       0.418 -14.256  -0.780  0.00  0.00    +0.019 C 
ATOM     18  C   UNL     1      -0.721 -14.227   1.452  0.00  0.00    +0.019 C 
BRANCH  15  19
ATOM     19  C   UNL     1       1.756 -13.778   1.302  0.00  0.00    +0.038 C 
BRANCH  19  20
ATOM     20  C   UNL     1       3.075 -14.333   0.842  0.00  0.00    -0.047 A 
ATOM     22  C   UNL     1       3.797 -13.679  -0.156  0.00  0.00    +0.003 A 
ATOM     23  C   UNL     1       3.577 -15.503   1.412  0.00  0.00    +0.003 A 
ATOM     25  C   UNL     1       5.021 -14.193  -0.584  0.00  0.00    +0.000 A 
ATOM     26  C   UNL     1       4.801 -16.018   0.984  0.00  0.00    +0.000 A 
ATOM     27  C   UNL     1       5.523 -15.363  -0.014  0.00  0.00    +0.000 A 
ENDBRANCH  19  20
ENDBRANCH  15  19
ENDBRANCH   8   5
BRANCH   9   3
ATOM      3  O   UNL     1      -3.815 -16.382  -3.224  0.00  0.00    -0.388 OA
ATOM     30  H   UNL     1      -4.371 -16.081  -3.962  0.00  0.00    +0.210 HD
ENDBRANCH   9   3
TORSDOF 6
ENDMDL
MODEL 10
REMARK VINA RESULT:      -5.7     14.268     18.251
REMARK  Name = 25314482
REMARK  7 active torsions:
REMARK  status: ('A' for Active; 'I' for Inactive)
REMARK    1  A    between atoms: O_3  and  C_9
REMARK    2  A    between atoms: N_5  and  C_8
REMARK    3  A    between atoms: N_6  and  C_10
REMARK    4  A    between atoms: N_7  and  C_24
REMARK    5  A    between atoms: C_15  and  C_19
REMARK    6  A    between atoms: C_19  and  C_20
REMARK    7  A    between atoms: C_24  and  C_28
REMARK                            x       y       z     vdW  Elec       q    Type
REMARK                         _______ _______ _______ _____ _____    ______ ____
ROOT
ATOM      1  O   UNL     1      11.276   6.246   6.562  0.00  0.00    -0.342 OA
ATOM      2  O   UNL     1       9.237   5.506   7.386  0.00  0.00    -0.347 OA
ATOM      8  C   UNL     1       9.458   5.917   5.013  0.00  0.00    +0.143 C 
ATOM      9  C   UNL     1       9.005   7.383   5.202  0.00  0.00    +0.159 C 
ATOM     10  C   UNL     1       9.955   8.208   6.098  0.00  0.00    +0.136 C 
ATOM     11  C   UNL     1      10.154   5.397   6.284  0.00  0.00    +0.270 C 
ATOM     12  C   UNL     1      10.644   7.366   7.190  0.00  0.00    +0.170 C 
ATOM     16  C   UNL     1       9.684   6.654   8.123  0.00  0.00    +0.196 C 
ENDROOT
BRANCH  10   6
ATOM      4  O   UNL     1      11.215  10.749   6.627  0.00  0.00    -0.253 OA
ATOM      6  N   UNL     1      10.954   8.872   5.286  0.00  0.00    -0.291 N 
ATOM      7  N   UNL     1      12.441  10.509   4.671  0.00  0.00    -0.300 N 
ATOM     21  C   UNL     1      11.508  10.102   5.622  0.00  0.00    +0.300 C 
ATOM     29  H   UNL     1      11.205   8.456   4.395  0.00  0.00    +0.151 HD
ATOM     31  H   UNL     1      12.610   9.912   3.867  0.00  0.00    +0.150 HD
BRANCH   7  24
ATOM     24  C   UNL     1      13.169  11.752   4.771  0.00  0.00    +0.102 C 
ATOM     28  C   UNL     1      14.513  11.555   5.440  0.00  0.00    +0.024 C 
ENDBRANCH   7  24
ENDBRANCH  10   6
BRANCH   8   5
ATOM      5  N   UNL     1      10.370   5.815   3.872  0.00  0.00    -0.293 NA
ATOM     13  C   UNL     1       9.809   6.503   2.701  0.00  0.00    +0.085 C 
ATOM     14  C   UNL     1      10.660   4.407   3.571  0.00  0.00    +0.085 C 
ATOM     15  C   UNL     1      11.147   5.007   1.163  0.00  0.00    -0.004 C 
ATOM     17  C   UNL     1      10.774   6.450   1.515  0.00  0.00    +0.019 C 
ATOM     18  C   UNL     1      11.655   4.283   2.414  0.00  0.00    +0.019 C 
BRANCH  15  19
ATOM     19  C   UNL     1      12.187   4.965   0.046  0.00  0.00    +0.038 C 
BRANCH  19  20
ATOM     20  C   UNL     1      11.727   4.118  -1.108  0.00  0.00    -0.047 A 
ATOM     22  C   UNL     1      12.380   2.919  -1.397  0.00  0.00    +0.003 A 
ATOM     23  C   UNL     1      10.649   4.529  -1.891  0.00  0.00    +0.003 A 
ATOM     25  C   UNL     1      11.955   2.132  -2.466  0.00  0.00    +0.000 A 
ATOM     26  C   UNL     1      10.224   3.742  -2.961  0.00  0.00    +0.000 A 
ATOM     27  C   UNL     1      10.877   2.543  -3.250  0.00  0.00    +0.000 A 
ENDBRANCH  19  20
ENDBRANCH  15  19
ENDBRANCH   8   5
BRANCH   9   3
ATOM      3  O   UNL     1       7.704   7.364   5.804  0.00  0.00    -0.388 OA
ATOM     30  H   UNL     1       7.150   6.755   5.288  0.00  0.00    +0.210 HD
ENDBRANCH   9   3
TORSDOF 6
ENDMDL
