MODEL 1
REMARK VINA RESULT:      -6.8      0.000      0.000
REMARK  Name = 75537072
REMARK  3 active torsions:
REMARK  status: ('A' for Active; 'I' for Inactive)
REMARK    1  A    between atoms: N_3  and  C_9
REMARK    2  A    between atoms: N_5  and  C_18
REMARK    3  A    between atoms: C_18  and  C_19
REMARK                            x       y       z     vdW  Elec       q    Type
REMARK                         _______ _______ _______ _____ _____    ______ ____
ROOT
ATOM      2  O   UNL     1      10.928   6.909  20.831  0.00  0.00    -0.252 OA
ATOM      3  N   UNL     1      11.956  11.229  23.291  0.00  0.00    -0.296 NA
ATOM      4  N   UNL     1      11.852   8.780  21.912  0.00  0.00    -0.278 N 
ATOM      5  N   UNL     1      12.778   8.101  19.981  0.00  0.00    -0.278 N 
ATOM      7  C   UNL     1      13.013   9.630  21.747  0.00  0.00    +0.109 C 
ATOM      8  C   UNL     1      12.639  11.091  21.989  0.00  0.00    +0.108 C 
ATOM     10  C   UNL     1      10.723  10.417  23.326  0.00  0.00    +0.104 C 
ATOM     11  C   UNL     1      13.494   9.316  20.332  0.00  0.00    +0.133 C 
ATOM     12  C   UNL     1      11.021   8.934  23.088  0.00  0.00    +0.125 C 
ATOM     15  C   UNL     1      11.750   7.812  20.902  0.00  0.00    +0.306 C 
ENDROOT
BRANCH   3   9
ATOM      1  O   UNL     1       9.680  14.713  23.844  0.00  0.00    -0.380 OA
ATOM      9  C   UNL     1      11.648  12.631  23.560  0.00  0.00    +0.061 C 
ATOM     13  C   UNL     1      10.779  12.773  24.813  0.00  0.00    +0.047 C 
ATOM     14  C   UNL     1      10.940  13.263  22.357  0.00  0.00    +0.047 C 
ATOM     16  C   UNL     1      10.357  14.226  25.003  0.00  0.00    +0.161 C 
ATOM     17  C   UNL     1      10.510  14.688  22.684  0.00  0.00    +0.161 C 
ENDBRANCH   3   9
BRANCH   5  18
ATOM     18  C   UNL     1      13.026   7.394  18.744  0.00  0.00    +0.164 C 
BRANCH  18  19
ATOM      6  N   UNL     1      11.110   7.930  17.350  0.00  0.00    -0.258 NA
ATOM     19  C   UNL     1      12.434   8.105  17.562  0.00  0.00    +0.059 A 
ATOM     20  C   UNL     1      13.251   8.886  16.761  0.00  0.00    +0.025 A 
ATOM     21  C   UNL     1      12.673   9.531  15.674  0.00  0.00    +0.003 A 
ATOM     22  C   UNL     1      10.584   8.573  16.283  0.00  0.00    +0.111 A 
ATOM     23  C   UNL     1      11.314   9.378  15.424  0.00  0.00    +0.020 A 
ENDBRANCH  18  19
ENDBRANCH   5  18
TORSDOF 3
ENDMDL
MODEL 2
REMARK VINA RESULT:      -6.6      4.866      7.681
REMARK  Name = 75537072
REMARK  3 active torsions:
REMARK  status: ('A' for Active; 'I' for Inactive)
REMARK    1  A    between atoms: N_3  and  C_9
REMARK    2  A    between atoms: N_5  and  C_18
REMARK    3  A    between atoms: C_18  and  C_19
REMARK                            x       y       z     vdW  Elec       q    Type
REMARK                         _______ _______ _______ _____ _____    ______ ____
ROOT
ATOM      2  O   UNL     1      12.260   6.949  17.733  0.00  0.00    -0.252 OA
ATOM      3  N   UNL     1      14.004  11.378  15.971  0.00  0.00    -0.296 NA
ATOM      4  N   UNL     1      13.055   9.130  17.369  0.00  0.00    -0.278 N 
ATOM      5  N   UNL     1      13.901   7.963  19.091  0.00  0.00    -0.278 N 
ATOM      7  C   UNL     1      13.921  10.068  18.053  0.00  0.00    +0.109 C 
ATOM      8  C   UNL     1      14.821  10.788  17.050  0.00  0.00    +0.108 C 
ATOM     10  C   UNL     1      13.244  10.334  15.255  0.00  0.00    +0.104 C 
ATOM     11  C   UNL     1      14.658   9.203  19.073  0.00  0.00    +0.133 C 
ATOM     12  C   UNL     1      12.317   9.566  16.202  0.00  0.00    +0.125 C 
ATOM     15  C   UNL     1      12.977   7.895  18.029  0.00  0.00    +0.306 C 
ENDROOT
BRANCH   3   9
ATOM      1  O   UNL     1      16.367  12.174  12.593  0.00  0.00    -0.380 OA
ATOM      9  C   UNL     1      14.850  12.121  15.039  0.00  0.00    +0.061 C 
ATOM     13  C   UNL     1      14.185  12.232  13.664  0.00  0.00    +0.047 C 
ATOM     14  C   UNL     1      16.218  11.446  14.907  0.00  0.00    +0.047 C 
ATOM     16  C   UNL     1      15.134  12.891  12.669  0.00  0.00    +0.161 C 
ATOM     17  C   UNL     1      17.054  12.149  13.843  0.00  0.00    +0.161 C 
ENDBRANCH   3   9
BRANCH   5  18
ATOM     18  C   UNL     1      14.204   6.893  20.017  0.00  0.00    +0.164 C 
BRANCH  18  19
ATOM      6  N   UNL     1      16.186   6.036  18.904  0.00  0.00    -0.258 NA
ATOM     19  C   UNL     1      15.668   6.564  20.036  0.00  0.00    +0.059 A 
ATOM     20  C   UNL     1      16.403   6.808  21.185  0.00  0.00    +0.025 A 
ATOM     21  C   UNL     1      17.756   6.492  21.171  0.00  0.00    +0.003 A 
ATOM     22  C   UNL     1      17.505   5.742  18.928  0.00  0.00    +0.111 A 
ATOM     23  C   UNL     1      18.327   5.949  20.025  0.00  0.00    +0.020 A 
ENDBRANCH  18  19
ENDBRANCH   5  18
TORSDOF 3
ENDMDL
MODEL 3
REMARK VINA RESULT:      -6.3      6.180      8.927
REMARK  Name = 75537072
REMARK  3 active torsions:
REMARK  status: ('A' for Active; 'I' for Inactive)
REMARK    1  A    between atoms: N_3  and  C_9
REMARK    2  A    between atoms: N_5  and  C_18
REMARK    3  A    between atoms: C_18  and  C_19
REMARK                            x       y       z     vdW  Elec       q    Type
REMARK                         _______ _______ _______ _____ _____    ______ ____
ROOT
ATOM      2  O   UNL     1      15.748   9.625  20.408  0.00  0.00    -0.252 OA
ATOM      3  N   UNL     1      19.662   6.465  21.082  0.00  0.00    -0.296 NA
ATOM      4  N   UNL     1      17.226   7.842  20.803  0.00  0.00    -0.278 N 
ATOM      5  N   UNL     1      15.427   7.467  19.512  0.00  0.00    -0.278 N 
ATOM      7  C   UNL     1      17.264   6.420  20.531  0.00  0.00    +0.109 C 
ATOM      8  C   UNL     1      18.667   6.000  20.096  0.00  0.00    +0.108 C 
ATOM     10  C   UNL     1      19.631   7.936  21.208  0.00  0.00    +0.104 C 
ATOM     11  C   UNL     1      16.178   6.224  19.476  0.00  0.00    +0.133 C 
ATOM     12  C   UNL     1      18.248   8.432  21.642  0.00  0.00    +0.125 C 
ATOM     15  C   UNL     1      16.089   8.459  20.263  0.00  0.00    +0.306 C 
ENDROOT
BRANCH   3   9
ATOM      1  O   UNL     1      23.735   5.518  21.457  0.00  0.00    -0.380 OA
ATOM      9  C   UNL     1      21.001   6.016  20.707  0.00  0.00    +0.061 C 
ATOM     13  C   UNL     1      21.417   4.787  21.521  0.00  0.00    +0.047 C 
ATOM     14  C   UNL     1      22.017   7.145  20.904  0.00  0.00    +0.047 C 
ATOM     16  C   UNL     1      22.863   4.414  21.213  0.00  0.00    +0.161 C 
ATOM     17  C   UNL     1      23.430   6.640  20.630  0.00  0.00    +0.161 C 
ENDBRANCH   3   9
BRANCH   5  18
ATOM     18  C   UNL     1      14.226   7.660  18.730  0.00  0.00    +0.164 C 
BRANCH  18  19
ATOM      6  N   UNL     1      12.821   6.616  20.415  0.00  0.00    -0.258 NA
ATOM     19  C   UNL     1      12.993   7.670  19.586  0.00  0.00    +0.059 A 
ATOM     20  C   UNL     1      12.108   8.732  19.489  0.00  0.00    +0.025 A 
ATOM     21  C   UNL     1      10.976   8.712  20.295  0.00  0.00    +0.003 A 
ATOM     22  C   UNL     1      11.708   6.631  21.183  0.00  0.00    +0.111 A 
ATOM     23  C   UNL     1      10.765   7.646  21.162  0.00  0.00    +0.020 A 
ENDBRANCH  18  19
ENDBRANCH   5  18
TORSDOF 3
ENDMDL
MODEL 4
REMARK VINA RESULT:      -5.9     26.524     27.664
REMARK  Name = 75537072
REMARK  3 active torsions:
REMARK  status: ('A' for Active; 'I' for Inactive)
REMARK    1  A    between atoms: N_3  and  C_9
REMARK    2  A    between atoms: N_5  and  C_18
REMARK    3  A    between atoms: C_18  and  C_19
REMARK                            x       y       z     vdW  Elec       q    Type
REMARK                         _______ _______ _______ _____ _____    ______ ____
ROOT
ATOM      2  O   UNL     1      -3.431 -14.193  14.338  0.00  0.00    -0.252 OA
ATOM      3  N   UNL     1      -5.807 -11.127  17.612  0.00  0.00    -0.296 NA
ATOM      4  N   UNL     1      -4.100 -12.603  15.933  0.00  0.00    -0.278 N 
ATOM      5  N   UNL     1      -2.632 -11.974  14.354  0.00  0.00    -0.278 N 
ATOM      7  C   UNL     1      -3.728 -11.253  16.300  0.00  0.00    +0.109 C 
ATOM      8  C   UNL     1      -4.973 -10.425  16.615  0.00  0.00    +0.108 C 
ATOM     10  C   UNL     1      -6.235 -12.446  17.105  0.00  0.00    +0.104 C 
ATOM     11  C   UNL     1      -2.917 -10.762  15.103  0.00  0.00    +0.133 C 
ATOM     12  C   UNL     1      -5.033 -13.333  16.765  0.00  0.00    +0.125 C 
ATOM     15  C   UNL     1      -3.390 -13.068  14.817  0.00  0.00    +0.306 C 
ENDROOT
BRANCH   3   9
ATOM      1  O   UNL     1      -9.744  -9.672  17.546  0.00  0.00    -0.380 OA
ATOM      9  C   UNL     1      -6.970 -10.317  17.965  0.00  0.00    +0.061 C 
ATOM     13  C   UNL     1      -8.106 -11.192  18.504  0.00  0.00    +0.047 C 
ATOM     14  C   UNL     1      -7.453  -9.519  16.750  0.00  0.00    +0.047 C 
ATOM     16  C   UNL     1      -9.355 -10.350  18.741  0.00  0.00    +0.161 C 
ATOM     17  C   UNL     1      -8.739  -8.771  17.086  0.00  0.00    +0.161 C 
ENDBRANCH   3   9
BRANCH   5  18
ATOM     18  C   UNL     1      -1.781 -11.971  13.185  0.00  0.00    +0.164 C 
BRANCH  18  19
ATOM      6  N   UNL     1      -3.477 -11.533  11.502  0.00  0.00    -0.258 NA
ATOM     19  C   UNL     1      -2.335 -11.109  12.088  0.00  0.00    +0.059 A 
ATOM     20  C   UNL     1      -1.667  -9.948  11.734  0.00  0.00    +0.025 A 
ATOM     21  C   UNL     1      -2.206  -9.172  10.715  0.00  0.00    +0.003 A 
ATOM     22  C   UNL     1      -3.971 -10.753  10.515  0.00  0.00    +0.111 A 
ATOM     23  C   UNL     1      -3.380  -9.574  10.088  0.00  0.00    +0.020 A 
ENDBRANCH  18  19
ENDBRANCH   5  18
TORSDOF 3
ENDMDL
MODEL 5
REMARK VINA RESULT:      -5.8     14.877     19.154
REMARK  Name = 75537072
REMARK  3 active torsions:
REMARK  status: ('A' for Active; 'I' for Inactive)
REMARK    1  A    between atoms: N_3  and  C_9
REMARK    2  A    between atoms: N_5  and  C_18
REMARK    3  A    between atoms: C_18  and  C_19
REMARK                            x       y       z     vdW  Elec       q    Type
REMARK                         _______ _______ _______ _____ _____    ______ ____
ROOT
ATOM      2  O   UNL     1      12.953   6.560   0.893  0.00  0.00    -0.252 OA
ATOM      3  N   UNL     1       9.457   5.836   4.502  0.00  0.00    -0.296 NA
ATOM      4  N   UNL     1      11.201   5.862   2.296  0.00  0.00    -0.278 N 
ATOM      5  N   UNL     1      12.567   4.298   1.440  0.00  0.00    -0.278 N 
ATOM      7  C   UNL     1      10.621   4.604   2.717  0.00  0.00    +0.109 C 
ATOM      8  C   UNL     1      10.282   4.648   4.207  0.00  0.00    +0.108 C 
ATOM     10  C   UNL     1      10.174   7.077   4.146  0.00  0.00    +0.104 C 
ATOM     11  C   UNL     1      11.676   3.571   2.329  0.00  0.00    +0.133 C 
ATOM     12  C   UNL     1      10.549   7.102   2.662  0.00  0.00    +0.125 C 
ATOM     15  C   UNL     1      12.318   5.685   1.467  0.00  0.00    +0.306 C 
ENDROOT
BRANCH   3   9
ATOM      1  O   UNL     1       9.803   6.345   8.654  0.00  0.00    -0.380 OA
ATOM      9  C   UNL     1       9.077   5.855   5.912  0.00  0.00    +0.061 C 
ATOM     13  C   UNL     1       9.187   7.269   6.492  0.00  0.00    +0.047 C 
ATOM     14  C   UNL     1       9.954   4.890   6.714  0.00  0.00    +0.047 C 
ATOM     16  C   UNL     1       8.917   7.248   7.992  0.00  0.00    +0.161 C 
ATOM     17  C   UNL     1       9.640   5.001   8.203  0.00  0.00    +0.161 C 
ENDBRANCH   3   9
BRANCH   5  18
ATOM     18  C   UNL     1      13.660   3.649   0.751  0.00  0.00    +0.164 C 
BRANCH  18  19
ATOM      6  N   UNL     1      14.255   4.352  -1.497  0.00  0.00    -0.258 NA
ATOM     19  C   UNL     1      13.437   3.595  -0.732  0.00  0.00    +0.059 A 
ATOM     20  C   UNL     1      12.427   2.792  -1.238  0.00  0.00    +0.025 A 
ATOM     21  C   UNL     1      12.246   2.764  -2.615  0.00  0.00    +0.003 A 
ATOM     22  C   UNL     1      14.049   4.299  -2.832  0.00  0.00    +0.111 A 
ATOM     23  C   UNL     1      13.068   3.528  -3.436  0.00  0.00    +0.020 A 
ENDBRANCH  18  19
ENDBRANCH   5  18
TORSDOF 3
ENDMDL
MODEL 6
REMARK VINA RESULT:      -5.8     25.980     28.280
REMARK  Name = 75537072
REMARK  3 active torsions:
REMARK  status: ('A' for Active; 'I' for Inactive)
REMARK    1  A    between atoms: N_3  and  C_9
REMARK    2  A    between atoms: N_5  and  C_18
REMARK    3  A    between atoms: C_18  and  C_19
REMARK                            x       y       z     vdW  Elec       q    Type
REMARK                         _______ _______ _______ _____ _____    ______ ____
ROOT
ATOM      2  O   UNL     1      -5.252  -9.617   7.687  0.00  0.00    -0.252 OA
ATOM      3  N   UNL     1      -3.607  -9.968  12.477  0.00  0.00    -0.296 NA
ATOM      4  N   UNL     1      -4.765  -9.405   9.976  0.00  0.00    -0.278 N 
ATOM      5  N   UNL     1      -6.905  -9.210   9.320  0.00  0.00    -0.278 N 
ATOM      7  C   UNL     1      -5.483  -9.041  11.180  0.00  0.00    +0.109 C 
ATOM      8  C   UNL     1      -5.077  -9.954  12.337  0.00  0.00    +0.108 C 
ATOM     10  C   UNL     1      -2.966 -10.462  11.241  0.00  0.00    +0.104 C 
ATOM     11  C   UNL     1      -6.950  -9.138  10.771  0.00  0.00    +0.133 C 
ATOM     12  C   UNL     1      -3.331  -9.592  10.034  0.00  0.00    +0.125 C 
ATOM     15  C   UNL     1      -5.595  -9.430   8.847  0.00  0.00    +0.306 C 
ENDROOT
BRANCH   3   9
ATOM      1  O   UNL     1      -2.506 -10.965  16.403  0.00  0.00    -0.380 OA
ATOM      9  C   UNL     1      -3.211 -10.790  13.618  0.00  0.00    +0.061 C 
ATOM     13  C   UNL     1      -4.257 -10.719  14.735  0.00  0.00    +0.047 C 
ATOM     14  C   UNL     1      -1.846 -10.344  14.149  0.00  0.00    +0.047 C 
ATOM     16  C   UNL     1      -3.767 -11.473  15.967  0.00  0.00    +0.161 C 
ATOM     17  C   UNL     1      -1.490 -11.118  15.413  0.00  0.00    +0.161 C 
ENDBRANCH   3   9
BRANCH   5  18
ATOM     18  C   UNL     1      -8.105  -9.204   8.514  0.00  0.00    +0.164 C 
BRANCH  18  19
ATOM      6  N   UNL     1     -10.087  -7.975   9.194  0.00  0.00    -0.258 NA
ATOM     19  C   UNL     1      -8.858  -7.911   8.635  0.00  0.00    +0.059 A 
ATOM     20  C   UNL     1      -8.273  -6.740   8.180  0.00  0.00    +0.025 A 
ATOM     21  C   UNL     1      -8.995  -5.560   8.307  0.00  0.00    +0.003 A 
ATOM     22  C   UNL     1     -10.760  -6.807   9.300  0.00  0.00    +0.111 A 
ATOM     23  C   UNL     1     -10.263  -5.584   8.877  0.00  0.00    +0.020 A 
ENDBRANCH  18  19
ENDBRANCH   5  18
TORSDOF 3
ENDMDL
MODEL 7
REMARK VINA RESULT:      -5.8     25.701     28.059
REMARK  Name = 75537072
REMARK  3 active torsions:
REMARK  status: ('A' for Active; 'I' for Inactive)
REMARK    1  A    between atoms: N_3  and  C_9
REMARK    2  A    between atoms: N_5  and  C_18
REMARK    3  A    between atoms: C_18  and  C_19
REMARK                            x       y       z     vdW  Elec       q    Type
REMARK                         _______ _______ _______ _____ _____    ______ ____
ROOT
ATOM      2  O   UNL     1      -1.083  -9.429  14.730  0.00  0.00    -0.252 OA
ATOM      3  N   UNL     1      -3.575 -11.232  10.692  0.00  0.00    -0.296 NA
ATOM      4  N   UNL     1      -2.184 -10.679  13.073  0.00  0.00    -0.278 N 
ATOM      5  N   UNL     1      -2.654 -11.118  15.225  0.00  0.00    -0.278 N 
ATOM      7  C   UNL     1      -3.066 -11.826  13.026  0.00  0.00    +0.109 C 
ATOM      8  C   UNL     1      -4.169 -11.605  11.991  0.00  0.00    +0.108 C 
ATOM     10  C   UNL     1      -2.787  -9.988  10.812  0.00  0.00    +0.104 C 
ATOM     11  C   UNL     1      -3.556 -11.966  14.465  0.00  0.00    +0.133 C 
ATOM     12  C   UNL     1      -1.659 -10.136  11.838  0.00  0.00    +0.125 C 
ATOM     15  C   UNL     1      -1.870 -10.300  14.386  0.00  0.00    +0.306 C 
ENDROOT
BRANCH   3   9
ATOM      1  O   UNL     1      -6.870  -9.599   8.668  0.00  0.00    -0.380 OA
ATOM      9  C   UNL     1      -4.617 -11.077   9.680  0.00  0.00    +0.061 C 
ATOM     13  C   UNL     1      -4.458  -9.753   8.925  0.00  0.00    +0.047 C 
ATOM     14  C   UNL     1      -6.003 -11.149  10.327  0.00  0.00    +0.047 C 
ATOM     16  C   UNL     1      -5.626  -9.547   7.968  0.00  0.00    +0.161 C 
ATOM     17  C   UNL     1      -7.086 -10.864   9.291  0.00  0.00    +0.161 C 
ENDBRANCH   3   9
BRANCH   5  18
ATOM     18  C   UNL     1      -2.701 -11.047  16.669  0.00  0.00    +0.164 C 
BRANCH  18  19
ATOM      6  N   UNL     1      -4.849  -9.922  16.501  0.00  0.00    -0.258 NA
ATOM     19  C   UNL     1      -4.096 -10.821  17.175  0.00  0.00    +0.059 A 
ATOM     20  C   UNL     1      -4.538 -11.526  18.283  0.00  0.00    +0.025 A 
ATOM     21  C   UNL     1      -5.834 -11.295  18.727  0.00  0.00    +0.003 A 
ATOM     22  C   UNL     1      -6.104  -9.724  16.963  0.00  0.00    +0.111 A 
ATOM     23  C   UNL     1      -6.640 -10.380  18.060  0.00  0.00    +0.020 A 
ENDBRANCH  18  19
ENDBRANCH   5  18
TORSDOF 3
ENDMDL
MODEL 8
REMARK VINA RESULT:      -5.7      5.913      8.197
REMARK  Name = 75537072
REMARK  3 active torsions:
REMARK  status: ('A' for Active; 'I' for Inactive)
REMARK    1  A    between atoms: N_3  and  C_9
REMARK    2  A    between atoms: N_5  and  C_18
REMARK    3  A    between atoms: C_18  and  C_19
REMARK                            x       y       z     vdW  Elec       q    Type
REMARK                         _______ _______ _______ _____ _____    ______ ____
ROOT
ATOM      2  O   UNL     1      18.750   9.934  22.095  0.00  0.00    -0.252 OA
ATOM      3  N   UNL     1      14.640   8.040  19.796  0.00  0.00    -0.296 NA
ATOM      4  N   UNL     1      17.155   8.770  20.821  0.00  0.00    -0.278 N 
ATOM      5  N   UNL     1      18.757   7.587  21.859  0.00  0.00    -0.278 N 
ATOM      7  C   UNL     1      16.947   7.408  20.374  0.00  0.00    +0.109 C 
ATOM      8  C   UNL     1      15.470   7.033  20.485  0.00  0.00    +0.108 C 
ATOM     10  C   UNL     1      14.831   9.377  20.392  0.00  0.00    +0.104 C 
ATOM     11  C   UNL     1      17.886   6.591  21.258  0.00  0.00    +0.133 C 
ATOM     12  C   UNL     1      16.294   9.821  20.318  0.00  0.00    +0.125 C 
ATOM     15  C   UNL     1      18.282   8.897  21.645  0.00  0.00    +0.306 C 
ENDROOT
BRANCH   3   9
ATOM      1  O   UNL     1      10.683   7.798  21.177  0.00  0.00    -0.380 OA
ATOM      9  C   UNL     1      13.230   7.658  19.844  0.00  0.00    +0.061 C 
ATOM     13  C   UNL     1      12.324   8.891  19.755  0.00  0.00    +0.047 C 
ATOM     14  C   UNL     1      12.932   6.880  21.128  0.00  0.00    +0.047 C 
ATOM     16  C   UNL     1      10.865   8.489  19.940  0.00  0.00    +0.161 C 
ATOM     17  C   UNL     1      11.439   6.590  21.237  0.00  0.00    +0.161 C 
ENDBRANCH   3   9
BRANCH   5  18
ATOM     18  C   UNL     1      19.878   7.221  22.696  0.00  0.00    +0.164 C 
BRANCH  18  19
ATOM      6  N   UNL     1      21.662   7.280  21.048  0.00  0.00    -0.258 NA
ATOM     19  C   UNL     1      20.956   6.524  21.918  0.00  0.00    +0.059 A 
ATOM     20  C   UNL     1      21.174   5.171  22.123  0.00  0.00    +0.025 A 
ATOM     21  C   UNL     1      22.179   4.555  21.388  0.00  0.00    +0.003 A 
ATOM     22  C   UNL     1      22.631   6.647  20.351  0.00  0.00    +0.111 A 
ATOM     23  C   UNL     1      22.928   5.299  20.483  0.00  0.00    +0.020 A 
ENDBRANCH  18  19
ENDBRANCH   5  18
TORSDOF 3
ENDMDL
MODEL 9
REMARK VINA RESULT:      -5.5      8.202     10.280
REMARK  Name = 75537072
REMARK  3 active torsions:
REMARK  status: ('A' for Active; 'I' for Inactive)
REMARK    1  A    between atoms: N_3  and  C_9
REMARK    2  A    between atoms: N_5  and  C_18
REMARK    3  A    between atoms: C_18  and  C_19
REMARK                            x       y       z     vdW  Elec       q    Type
REMARK                         _______ _______ _______ _____ _____    ______ ____
ROOT
ATOM      2  O   UNL     1      21.876   7.510  23.214  0.00  0.00    -0.252 OA
ATOM      3  N   UNL     1      17.635   7.934  20.457  0.00  0.00    -0.296 NA
ATOM      4  N   UNL     1      20.151   7.455  21.620  0.00  0.00    -0.278 N 
ATOM      5  N   UNL     1      21.278   5.557  22.035  0.00  0.00    -0.278 N 
ATOM      7  C   UNL     1      19.629   6.505  20.660  0.00  0.00    +0.109 C 
ATOM      8  C   UNL     1      18.101   6.546  20.648  0.00  0.00    +0.108 C 
ATOM     10  C   UNL     1      18.121   8.807  21.545  0.00  0.00    +0.104 C 
ATOM     11  C   UNL     1      20.232   5.174  21.102  0.00  0.00    +0.133 C 
ATOM     12  C   UNL     1      19.650   8.813  21.618  0.00  0.00    +0.125 C 
ATOM     15  C   UNL     1      21.191   6.918  22.392  0.00  0.00    +0.306 C 
ENDROOT
BRANCH   3   9
ATOM      1  O   UNL     1      13.655   6.612  20.638  0.00  0.00    -0.380 OA
ATOM      9  C   UNL     1      16.177   7.977  20.384  0.00  0.00    +0.061 C 
ATOM     13  C   UNL     1      15.549   7.659  21.745  0.00  0.00    +0.047 C 
ATOM     14  C   UNL     1      15.666   6.992  19.329  0.00  0.00    +0.047 C 
ATOM     16  C   UNL     1      14.031   7.577  21.621  0.00  0.00    +0.161 C 
ATOM     17  C   UNL     1      14.142   6.947  19.339  0.00  0.00    +0.161 C 
ENDBRANCH   3   9
BRANCH   5  18
ATOM     18  C   UNL     1      22.181   4.587  22.615  0.00  0.00    +0.164 C 
BRANCH  18  19
ATOM      6  N   UNL     1      23.704   4.859  20.741  0.00  0.00    -0.258 NA
ATOM     19  C   UNL     1      23.104   3.994  21.590  0.00  0.00    +0.059 A 
ATOM     20  C   UNL     1      23.293   2.622  21.562  0.00  0.00    +0.025 A 
ATOM     21  C   UNL     1      24.154   2.104  20.602  0.00  0.00    +0.003 A 
ATOM     22  C   UNL     1      24.534   4.318  19.821  0.00  0.00    +0.111 A 
ATOM     23  C   UNL     1      24.791   2.961  19.711  0.00  0.00    +0.020 A 
ENDBRANCH  18  19
ENDBRANCH   5  18
TORSDOF 3
ENDMDL
MODEL 10
REMARK VINA RESULT:      -5.5     27.959     29.620
REMARK  Name = 75537072
REMARK  3 active torsions:
REMARK  status: ('A' for Active; 'I' for Inactive)
REMARK    1  A    between atoms: N_3  and  C_9
REMARK    2  A    between atoms: N_5  and  C_18
REMARK    3  A    between atoms: C_18  and  C_19
REMARK                            x       y       z     vdW  Elec       q    Type
REMARK                         _______ _______ _______ _____ _____    ______ ____
ROOT
ATOM      2  O   UNL     1     -12.302  -8.437  13.385  0.00  0.00    -0.252 OA
ATOM      3  N   UNL     1      -8.423  -8.922  16.622  0.00  0.00    -0.296 NA
ATOM      4  N   UNL     1     -10.487  -8.193  14.857  0.00  0.00    -0.278 N 
ATOM      5  N   UNL     1     -12.234  -6.798  15.080  0.00  0.00    -0.278 N 
ATOM      7  C   UNL     1     -10.075  -7.255  15.881  0.00  0.00    +0.109 C 
ATOM      8  C   UNL     1      -9.484  -8.001  17.076  0.00  0.00    +0.108 C 
ATOM     10  C   UNL     1      -8.961  -9.914  15.669  0.00  0.00    +0.104 C 
ATOM     11  C   UNL     1     -11.346  -6.465  16.181  0.00  0.00    +0.133 C 
ATOM     12  C   UNL     1      -9.574  -9.236  14.440  0.00  0.00    +0.125 C 
ATOM     15  C   UNL     1     -11.743  -7.878  14.319  0.00  0.00    +0.306 C 
ENDROOT
BRANCH   3   9
ATOM      1  O   UNL     1      -6.769 -12.011  18.934  0.00  0.00    -0.380 OA
ATOM      9  C   UNL     1      -7.809  -9.596  17.764  0.00  0.00    +0.061 C 
ATOM     13  C   UNL     1      -6.433 -10.159  17.395  0.00  0.00    +0.047 C 
ATOM     14  C   UNL     1      -8.717 -10.719  18.272  0.00  0.00    +0.047 C 
ATOM     16  C   UNL     1      -5.867 -10.972  18.554  0.00  0.00    +0.161 C 
ATOM     17  C   UNL     1      -8.023 -11.501  19.382  0.00  0.00    +0.161 C 
ENDBRANCH   3   9
BRANCH   5  18
ATOM     18  C   UNL     1     -13.526  -6.169  14.919  0.00  0.00    +0.164 C 
BRANCH  18  19
ATOM      6  N   UNL     1     -14.731  -4.782  13.330  0.00  0.00    -0.258 NA
ATOM     19  C   UNL     1     -13.524  -5.156  13.811  0.00  0.00    +0.059 A 
ATOM     20  C   UNL     1     -12.317  -4.664  13.344  0.00  0.00    +0.025 A 
ATOM     21  C   UNL     1     -12.349  -3.727  12.318  0.00  0.00    +0.003 A 
ATOM     22  C   UNL     1     -14.723  -3.870  12.332  0.00  0.00    +0.111 A 
ATOM     23  C   UNL     1     -13.571  -3.316  11.797  0.00  0.00    +0.020 A 
ENDBRANCH  18  19
ENDBRANCH   5  18
TORSDOF 3
ENDMDL
