MODEL 1
REMARK VINA RESULT:      -8.9      0.000      0.000
REMARK  Name = 51136829
REMARK  6 active torsions:
REMARK  status: ('A' for Active; 'I' for Inactive)
REMARK    1  A    between atoms: N_6  and  C_16
REMARK    2  A    between atoms: C_12  and  C_17
REMARK    3  A    between atoms: C_16  and  C_18
REMARK    4  A    between atoms: C_23  and  C_27
REMARK    5  A    between atoms: C_29  and  C_35
REMARK    6  A    between atoms: C_32  and  C_36
REMARK                            x       y       z     vdW  Elec       q    Type
REMARK                         _______ _______ _______ _____ _____    ______ ____
ROOT
ATOM      4  O   UNL     1      14.439   6.378  20.133  0.00  0.00    -0.336 OA
ATOM      9  N   UNL     1      15.927   7.844  19.324  0.00  0.00    -0.190 NA
ATOM     10  N   UNL     1      15.559   6.301  20.972  0.00  0.00    -0.056 NA
ATOM     17  C   UNL     1      14.740   7.308  19.190  0.00  0.00    +0.245 A 
ATOM     23  C   UNL     1      16.392   7.195  20.429  0.00  0.00    +0.202 A 
ENDROOT
BRANCH  23  27
ATOM      5  O   UNL     1      23.885   1.776  20.866  0.00  0.00    -0.276 OA
ATOM      7  N   UNL     1      20.978   5.904  21.164  0.00  0.00    -0.312 N 
ATOM      8  N   UNL     1      23.065   3.946  20.730  0.00  0.00    -0.299 N 
ATOM     11  N   UNL     1      20.237   7.980  22.012  0.00  0.00    -0.240 NA
ATOM     19  C   UNL     1      22.381   6.319  21.075  0.00  0.00    +0.125 C 
ATOM     20  C   UNL     1      20.674   4.472  21.105  0.00  0.00    +0.125 C 
ATOM     21  C   UNL     1      23.190   5.321  20.244  0.00  0.00    +0.126 C 
ATOM     22  C   UNL     1      21.884   3.645  21.535  0.00  0.00    +0.126 C 
ATOM     24  C   UNL     1      19.962   6.841  21.338  0.00  0.00    +0.122 A 
ATOM     27  C   UNL     1      17.696   7.461  20.968  0.00  0.00    +0.027 A 
ATOM     28  C   UNL     1      18.721   6.537  20.801  0.00  0.00    +0.055 A 
ATOM     29  C   UNL     1      23.988   2.934  20.458  0.00  0.00    +0.213 C 
ATOM     33  C   UNL     1      17.939   8.645  21.655  0.00  0.00    +0.031 A 
ATOM     34  C   UNL     1      19.215   8.855  22.153  0.00  0.00    +0.113 A 
ATOM     35  C   UNL     1      25.174   3.325  19.612  0.00  0.00    +0.109 C 
ENDBRANCH  23  27
BRANCH  17  12
ATOM      6  N   UNL     1      12.782   8.696  18.528  0.00  0.00    -0.287 NA
ATOM     12  C   UNL     1      13.675   7.582  18.149  0.00  0.00    +0.146 C 
ATOM     13  C   UNL     1      14.266   8.000  16.790  0.00  0.00    +0.030 C 
ATOM     14  C   UNL     1      13.603   9.329  16.459  0.00  0.00    +0.017 C 
ATOM     15  C   UNL     1      12.328   9.305  17.277  0.00  0.00    +0.085 C 
BRANCH   6  16
ATOM     16  C   UNL     1      11.669   8.278  19.370  0.00  0.00    +0.120 C 
BRANCH  16  18
ATOM     18  C   UNL     1      11.558   9.123  20.611  0.00  0.00    -0.033 A 
ATOM     25  C   UNL     1      10.804   8.675  21.696  0.00  0.00    +0.005 A 
ATOM     26  C   UNL     1      12.208  10.356  20.677  0.00  0.00    +0.005 A 
ATOM     30  C   UNL     1      10.702   9.457  22.845  0.00  0.00    +0.012 A 
ATOM     31  C   UNL     1      12.106  11.139  21.826  0.00  0.00    +0.012 A 
ATOM     32  C   UNL     1      11.352  10.689  22.911  0.00  0.00    +0.055 A 
BRANCH  32  36
ATOM      1  F   UNL     1      11.017  10.801  25.277  0.00  0.00    -0.166 F 
ATOM      2  F   UNL     1      10.227  12.431  24.074  0.00  0.00    -0.166 F 
ATOM      3  F   UNL     1      12.368  12.256  24.405  0.00  0.00    -0.166 F 
ATOM     36  C   UNL     1      11.245  11.525  24.142  0.00  0.00    +0.417 C 
ENDBRANCH  32  36
ENDBRANCH  16  18
ENDBRANCH   6  16
ENDBRANCH  17  12
TORSDOF 5
ENDMDL
MODEL 2
REMARK VINA RESULT:      -7.9     27.222     31.047
REMARK  Name = 51136829
REMARK  6 active torsions:
REMARK  status: ('A' for Active; 'I' for Inactive)
REMARK    1  A    between atoms: N_6  and  C_16
REMARK    2  A    between atoms: C_12  and  C_17
REMARK    3  A    between atoms: C_16  and  C_18
REMARK    4  A    between atoms: C_23  and  C_27
REMARK    5  A    between atoms: C_29  and  C_35
REMARK    6  A    between atoms: C_32  and  C_36
REMARK                            x       y       z     vdW  Elec       q    Type
REMARK                         _______ _______ _______ _____ _____    ______ ____
ROOT
ATOM      4  O   UNL     1      -4.146 -13.258  15.509  0.00  0.00    -0.336 OA
ATOM      9  N   UNL     1      -4.439 -11.281  16.522  0.00  0.00    -0.190 NA
ATOM     10  N   UNL     1      -5.333 -13.369  16.244  0.00  0.00    -0.056 NA
ATOM     17  C   UNL     1      -3.684 -11.999  15.728  0.00  0.00    +0.245 A 
ATOM     23  C   UNL     1      -5.438 -12.164  16.813  0.00  0.00    +0.202 A 
ENDROOT
BRANCH  23  27
ATOM      5  O   UNL     1     -12.133  -5.867  15.714  0.00  0.00    -0.276 OA
ATOM      7  N   UNL     1      -9.503  -9.718  17.670  0.00  0.00    -0.312 N 
ATOM      8  N   UNL     1     -11.513  -7.893  16.668  0.00  0.00    -0.299 N 
ATOM     11  N   UNL     1      -8.651 -11.127  19.363  0.00  0.00    -0.240 NA
ATOM     19  C   UNL     1     -10.886  -9.799  18.148  0.00  0.00    +0.125 C 
ATOM     20  C   UNL     1      -9.154  -8.644  16.736  0.00  0.00    +0.125 C 
ATOM     21  C   UNL     1     -11.855  -9.249  17.100  0.00  0.00    +0.126 C 
ATOM     22  C   UNL     1     -10.128  -7.475  16.870  0.00  0.00    +0.126 C 
ATOM     24  C   UNL     1      -8.534 -10.613  18.118  0.00  0.00    +0.122 A 
ATOM     27  C   UNL     1      -6.527 -11.811  17.679  0.00  0.00    +0.027 A 
ATOM     28  C   UNL     1      -7.502 -10.920  17.246  0.00  0.00    +0.055 A 
ATOM     29  C   UNL     1     -12.419  -7.009  16.078  0.00  0.00    +0.213 C 
ATOM     33  C   UNL     1      -6.612 -12.361  18.953  0.00  0.00    +0.031 A 
ATOM     34  C   UNL     1      -7.683 -11.989  19.750  0.00  0.00    +0.113 A 
ATOM     35  C   UNL     1     -13.827  -7.521  15.897  0.00  0.00    +0.109 C 
ENDBRANCH  23  27
BRANCH  17  12
ATOM      6  N   UNL     1      -2.607 -10.707  13.894  0.00  0.00    -0.287 NA
ATOM     12  C   UNL     1      -2.393 -11.623  15.032  0.00  0.00    +0.146 C 
ATOM     13  C   UNL     1      -1.415 -10.876  15.957  0.00  0.00    +0.030 C 
ATOM     14  C   UNL     1      -1.090  -9.579  15.228  0.00  0.00    +0.017 C 
ATOM     15  C   UNL     1      -1.391  -9.900  13.779  0.00  0.00    +0.085 C 
BRANCH   6  16
ATOM     16  C   UNL     1      -2.925 -11.399  12.652  0.00  0.00    +0.120 C 
BRANCH  16  18
ATOM     18  C   UNL     1      -3.837 -10.585  11.774  0.00  0.00    -0.033 A 
ATOM     25  C   UNL     1      -3.436 -10.235  10.485  0.00  0.00    +0.005 A 
ATOM     26  C   UNL     1      -5.084 -10.179  12.249  0.00  0.00    +0.005 A 
ATOM     30  C   UNL     1      -4.281  -9.481   9.671  0.00  0.00    +0.012 A 
ATOM     31  C   UNL     1      -5.930  -9.425  11.436  0.00  0.00    +0.012 A 
ATOM     32  C   UNL     1      -5.528  -9.076  10.146  0.00  0.00    +0.055 A 
BRANCH  32  36
ATOM      1  F   UNL     1      -6.547  -8.761   8.005  0.00  0.00    -0.166 F 
ATOM      2  F   UNL     1      -6.016  -6.981   9.135  0.00  0.00    -0.166 F 
ATOM      3  F   UNL     1      -7.714  -8.194   9.743  0.00  0.00    -0.166 F 
ATOM     36  C   UNL     1      -6.433  -8.273   9.275  0.00  0.00    +0.417 C 
ENDBRANCH  32  36
ENDBRANCH  16  18
ENDBRANCH   6  16
ENDBRANCH  17  12
TORSDOF 5
ENDMDL
MODEL 3
REMARK VINA RESULT:      -7.9     29.552     32.091
REMARK  Name = 51136829
REMARK  6 active torsions:
REMARK  status: ('A' for Active; 'I' for Inactive)
REMARK    1  A    between atoms: N_6  and  C_16
REMARK    2  A    between atoms: C_12  and  C_17
REMARK    3  A    between atoms: C_16  and  C_18
REMARK    4  A    between atoms: C_23  and  C_27
REMARK    5  A    between atoms: C_29  and  C_35
REMARK    6  A    between atoms: C_32  and  C_36
REMARK                            x       y       z     vdW  Elec       q    Type
REMARK                         _______ _______ _______ _____ _____    ______ ____
ROOT
ATOM      4  O   UNL     1     -14.680  10.391  32.082  0.00  0.00    -0.336 OA
ATOM      9  N   UNL     1     -12.949   8.971  32.173  0.00  0.00    -0.190 NA
ATOM     10  N   UNL     1     -15.155   9.237  32.718  0.00  0.00    -0.056 NA
ATOM     17  C   UNL     1     -13.374  10.150  31.794  0.00  0.00    +0.245 A 
ATOM     23  C   UNL     1     -14.077   8.447  32.734  0.00  0.00    +0.202 A 
ENDROOT
BRANCH  23  27
ATOM      5  O   UNL     1     -15.943   0.279  28.799  0.00  0.00    -0.276 OA
ATOM      7  N   UNL     1     -14.457   3.666  32.248  0.00  0.00    -0.312 N 
ATOM      8  N   UNL     1     -14.782   1.410  30.465  0.00  0.00    -0.299 N 
ATOM     11  N   UNL     1     -14.122   4.561  34.408  0.00  0.00    -0.240 NA
ATOM     19  C   UNL     1     -13.867   2.366  32.577  0.00  0.00    +0.125 C 
ATOM     20  C   UNL     1     -15.275   3.769  31.037  0.00  0.00    +0.125 C 
ATOM     21  C   UNL     1     -13.596   1.556  31.309  0.00  0.00    +0.126 C 
ATOM     22  C   UNL     1     -15.838   2.403  30.648  0.00  0.00    +0.126 C 
ATOM     24  C   UNL     1     -14.277   4.768  33.081  0.00  0.00    +0.122 A 
ATOM     27  C   UNL     1     -14.094   7.129  33.302  0.00  0.00    +0.027 A 
ATOM     28  C   UNL     1     -14.270   6.019  32.485  0.00  0.00    +0.055 A 
ATOM     29  C   UNL     1     -14.945   0.403  29.510  0.00  0.00    +0.213 C 
ATOM     33  C   UNL     1     -13.930   6.958  34.673  0.00  0.00    +0.031 A 
ATOM     34  C   UNL     1     -13.953   5.665  35.171  0.00  0.00    +0.113 A 
ATOM     35  C   UNL     1     -13.805  -0.576  29.376  0.00  0.00    +0.109 C 
ENDBRANCH  23  27
BRANCH  17  12
ATOM      6  N   UNL     1     -11.182  11.272  31.427  0.00  0.00    -0.287 NA
ATOM     12  C   UNL     1     -12.621  11.263  31.094  0.00  0.00    +0.146 C 
ATOM     13  C   UNL     1     -12.667  11.137  29.560  0.00  0.00    +0.030 C 
ATOM     14  C   UNL     1     -11.210  11.145  29.117  0.00  0.00    +0.017 C 
ATOM     15  C   UNL     1     -10.493  11.828  30.262  0.00  0.00    +0.085 C 
BRANCH   6  16
ATOM     16  C   UNL     1     -10.881  12.010  32.647  0.00  0.00    +0.120 C 
BRANCH  16  18
ATOM     18  C   UNL     1     -10.387  11.102  33.743  0.00  0.00    -0.033 A 
ATOM     25  C   UNL     1     -11.263  10.670  34.738  0.00  0.00    +0.005 A 
ATOM     26  C   UNL     1      -9.053  10.694  33.762  0.00  0.00    +0.005 A 
ATOM     30  C   UNL     1     -10.806   9.829  35.752  0.00  0.00    +0.012 A 
ATOM     31  C   UNL     1      -8.595   9.853  34.777  0.00  0.00    +0.012 A 
ATOM     32  C   UNL     1      -9.472   9.421  35.772  0.00  0.00    +0.055 A 
BRANCH  32  36
ATOM      1  F   UNL     1      -9.807   7.456  37.096  0.00  0.00    -0.166 F 
ATOM      2  F   UNL     1      -8.855   9.160  38.053  0.00  0.00    -0.166 F 
ATOM      3  F   UNL     1      -7.759   7.971  36.600  0.00  0.00    -0.166 F 
ATOM     36  C   UNL     1      -8.984   8.519  36.855  0.00  0.00    +0.417 C 
ENDBRANCH  32  36
ENDBRANCH  16  18
ENDBRANCH   6  16
ENDBRANCH  17  12
TORSDOF 5
ENDMDL
MODEL 4
REMARK VINA RESULT:      -7.9     29.081     31.863
REMARK  Name = 51136829
REMARK  6 active torsions:
REMARK  status: ('A' for Active; 'I' for Inactive)
REMARK    1  A    between atoms: N_6  and  C_16
REMARK    2  A    between atoms: C_12  and  C_17
REMARK    3  A    between atoms: C_16  and  C_18
REMARK    4  A    between atoms: C_23  and  C_27
REMARK    5  A    between atoms: C_29  and  C_35
REMARK    6  A    between atoms: C_32  and  C_36
REMARK                            x       y       z     vdW  Elec       q    Type
REMARK                         _______ _______ _______ _____ _____    ______ ____
ROOT
ATOM      4  O   UNL     1     -13.334  10.292  32.750  0.00  0.00    -0.336 OA
ATOM      9  N   UNL     1     -12.134   8.423  32.465  0.00  0.00    -0.190 NA
ATOM     10  N   UNL     1     -14.043   9.272  33.398  0.00  0.00    -0.056 NA
ATOM     17  C   UNL     1     -12.225   9.707  32.228  0.00  0.00    +0.245 A 
ATOM     23  C   UNL     1     -13.271   8.201  33.185  0.00  0.00    +0.202 A 
ENDROOT
BRANCH  23  27
ATOM      5  O   UNL     1     -15.867   0.585  28.608  0.00  0.00    -0.276 OA
ATOM      7  N   UNL     1     -14.394   3.578  32.410  0.00  0.00    -0.312 N 
ATOM      8  N   UNL     1     -14.814   1.454  30.489  0.00  0.00    -0.299 N 
ATOM     11  N   UNL     1     -14.265   4.353  34.637  0.00  0.00    -0.240 NA
ATOM     19  C   UNL     1     -14.102   2.186  32.763  0.00  0.00    +0.125 C 
ATOM     20  C   UNL     1     -14.975   3.851  31.092  0.00  0.00    +0.125 C 
ATOM     21  C   UNL     1     -13.773   1.367  31.514  0.00  0.00    +0.126 C 
ATOM     22  C   UNL     1     -15.696   2.617  30.554  0.00  0.00    +0.126 C 
ATOM     24  C   UNL     1     -14.163   4.612  33.314  0.00  0.00    +0.122 A 
ATOM     27  C   UNL     1     -13.610   6.896  33.678  0.00  0.00    +0.027 A 
ATOM     28  C   UNL     1     -13.842   5.853  32.789  0.00  0.00    +0.055 A 
ATOM     29  C   UNL     1     -14.992   0.513  29.472  0.00  0.00    +0.213 C 
ATOM     33  C   UNL     1     -13.704   6.670  35.047  0.00  0.00    +0.031 A 
ATOM     34  C   UNL     1     -14.032   5.392  35.471  0.00  0.00    +0.113 A 
ATOM     35  C   UNL     1     -14.034  -0.652  29.470  0.00  0.00    +0.109 C 
ENDBRANCH  23  27
BRANCH  17  12
ATOM      6  N   UNL     1     -11.746  10.901  30.097  0.00  0.00    -0.287 NA
ATOM     12  C   UNL     1     -11.278  10.612  31.467  0.00  0.00    +0.146 C 
ATOM     13  C   UNL     1     -11.120  11.994  32.127  0.00  0.00    +0.030 C 
ATOM     14  C   UNL     1     -11.462  12.998  31.034  0.00  0.00    +0.017 C 
ATOM     15  C   UNL     1     -11.225  12.225  29.754  0.00  0.00    +0.085 C 
BRANCH   6  16
ATOM     16  C   UNL     1     -11.349   9.887  29.129  0.00  0.00    +0.120 C 
BRANCH  16  18
ATOM     18  C   UNL     1     -11.738  10.270  27.725  0.00  0.00    -0.033 A 
ATOM     25  C   UNL     1     -13.083  10.413  27.388  0.00  0.00    +0.005 A 
ATOM     26  C   UNL     1     -10.752  10.481  26.762  0.00  0.00    +0.005 A 
ATOM     30  C   UNL     1     -13.443  10.768  26.089  0.00  0.00    +0.012 A 
ATOM     31  C   UNL     1     -11.111  10.837  25.462  0.00  0.00    +0.012 A 
ATOM     32  C   UNL     1     -12.457  10.980  25.125  0.00  0.00    +0.055 A 
BRANCH  32  36
ATOM      1  F   UNL     1     -13.257  12.659  23.620  0.00  0.00    -0.166 F 
ATOM      2  F   UNL     1     -13.865  10.605  23.247  0.00  0.00    -0.166 F 
ATOM      3  F   UNL     1     -11.826  11.232  22.832  0.00  0.00    -0.166 F 
ATOM     36  C   UNL     1     -12.841  11.363  23.736  0.00  0.00    +0.417 C 
ENDBRANCH  32  36
ENDBRANCH  16  18
ENDBRANCH   6  16
ENDBRANCH  17  12
TORSDOF 5
ENDMDL
MODEL 5
REMARK VINA RESULT:      -7.8      5.448      8.712
REMARK  Name = 51136829
REMARK  6 active torsions:
REMARK  status: ('A' for Active; 'I' for Inactive)
REMARK    1  A    between atoms: N_6  and  C_16
REMARK    2  A    between atoms: C_12  and  C_17
REMARK    3  A    between atoms: C_16  and  C_18
REMARK    4  A    between atoms: C_23  and  C_27
REMARK    5  A    between atoms: C_29  and  C_35
REMARK    6  A    between atoms: C_32  and  C_36
REMARK                            x       y       z     vdW  Elec       q    Type
REMARK                         _______ _______ _______ _____ _____    ______ ____
ROOT
ATOM      4  O   UNL     1      13.304  10.669  19.906  0.00  0.00    -0.336 OA
ATOM      9  N   UNL     1      13.317  10.518  17.671  0.00  0.00    -0.190 NA
ATOM     10  N   UNL     1      13.876  11.859  19.438  0.00  0.00    -0.056 NA
ATOM     17  C   UNL     1      13.005   9.936  18.802  0.00  0.00    +0.245 A 
ATOM     23  C   UNL     1      13.849  11.694  18.112  0.00  0.00    +0.202 A 
ENDROOT
BRANCH  23  27
ATOM      5  O   UNL     1      20.940  11.314  12.173  0.00  0.00    -0.276 OA
ATOM      7  N   UNL     1      16.802  13.010  14.537  0.00  0.00    -0.312 N 
ATOM      8  N   UNL     1      18.860  12.232  12.656  0.00  0.00    -0.299 N 
ATOM     11  N   UNL     1      15.312  14.614  15.423  0.00  0.00    -0.240 NA
ATOM     19  C   UNL     1      16.903  13.667  13.230  0.00  0.00    +0.125 C 
ATOM     20  C   UNL     1      17.814  12.011  14.890  0.00  0.00    +0.125 C 
ATOM     21  C   UNL     1      17.563  12.740  12.207  0.00  0.00    +0.126 C 
ATOM     22  C   UNL     1      19.099  12.240  14.097  0.00  0.00    +0.126 C 
ATOM     24  C   UNL     1      15.795  13.351  15.436  0.00  0.00    +0.122 A 
ATOM     27  C   UNL     1      14.346  12.685  17.201  0.00  0.00    +0.027 A 
ATOM     28  C   UNL     1      15.350  12.360  16.296  0.00  0.00    +0.055 A 
ATOM     29  C   UNL     1      19.847  11.743  11.798  0.00  0.00    +0.213 C 
ATOM     33  C   UNL     1      13.824  13.974  17.218  0.00  0.00    +0.031 A 
ATOM     34  C   UNL     1      14.337  14.894  16.317  0.00  0.00    +0.113 A 
ATOM     35  C   UNL     1      19.517  11.760  10.326  0.00  0.00    +0.109 C 
ENDBRANCH  23  27
BRANCH  17  12
ATOM      6  N   UNL     1      13.239   7.668  19.800  0.00  0.00    -0.287 NA
ATOM     12  C   UNL     1      12.364   8.585  19.041  0.00  0.00    +0.146 C 
ATOM     13  C   UNL     1      11.075   8.678  19.878  0.00  0.00    +0.030 C 
ATOM     14  C   UNL     1      11.295   7.736  21.054  0.00  0.00    +0.017 C 
ATOM     15  C   UNL     1      12.352   6.776  20.547  0.00  0.00    +0.085 C 
BRANCH   6  16
ATOM     16  C   UNL     1      14.170   6.933  18.955  0.00  0.00    +0.120 C 
BRANCH  16  18
ATOM     18  C   UNL     1      15.555   6.899  19.545  0.00  0.00    -0.033 A 
ATOM     25  C   UNL     1      16.522   6.049  19.008  0.00  0.00    +0.005 A 
ATOM     26  C   UNL     1      15.872   7.717  20.630  0.00  0.00    +0.005 A 
ATOM     30  C   UNL     1      17.804   6.017  19.554  0.00  0.00    +0.012 A 
ATOM     31  C   UNL     1      17.154   7.686  21.177  0.00  0.00    +0.012 A 
ATOM     32  C   UNL     1      18.121   6.835  20.639  0.00  0.00    +0.055 A 
BRANCH  32  36
ATOM      1  F   UNL     1      20.239   7.909  20.927  0.00  0.00    -0.166 F 
ATOM      2  F   UNL     1      20.226   5.740  20.780  0.00  0.00    -0.166 F 
ATOM      3  F   UNL     1      19.507   6.717  22.584  0.00  0.00    -0.166 F 
ATOM     36  C   UNL     1      19.493   6.804  21.221  0.00  0.00    +0.417 C 
ENDBRANCH  32  36
ENDBRANCH  16  18
ENDBRANCH   6  16
ENDBRANCH  17  12
TORSDOF 5
ENDMDL
MODEL 6
REMARK VINA RESULT:      -7.8      3.712      5.438
REMARK  Name = 51136829
REMARK  6 active torsions:
REMARK  status: ('A' for Active; 'I' for Inactive)
REMARK    1  A    between atoms: N_6  and  C_16
REMARK    2  A    between atoms: C_12  and  C_17
REMARK    3  A    between atoms: C_16  and  C_18
REMARK    4  A    between atoms: C_23  and  C_27
REMARK    5  A    between atoms: C_29  and  C_35
REMARK    6  A    between atoms: C_32  and  C_36
REMARK                            x       y       z     vdW  Elec       q    Type
REMARK                         _______ _______ _______ _____ _____    ______ ____
ROOT
ATOM      4  O   UNL     1      13.511  11.397  19.349  0.00  0.00    -0.336 OA
ATOM      9  N   UNL     1      14.552  10.587  21.159  0.00  0.00    -0.190 NA
ATOM     10  N   UNL     1      14.865  11.723  19.198  0.00  0.00    -0.056 NA
ATOM     17  C   UNL     1      13.414  10.731  20.529  0.00  0.00    +0.245 A 
ATOM     23  C   UNL     1      15.413  11.211  20.305  0.00  0.00    +0.202 A 
ENDROOT
BRANCH  23  27
ATOM      5  O   UNL     1      21.426   4.707  22.994  0.00  0.00    -0.276 OA
ATOM      7  N   UNL     1      19.639   9.152  21.372  0.00  0.00    -0.312 N 
ATOM      8  N   UNL     1      21.113   6.709  21.854  0.00  0.00    -0.299 N 
ATOM     11  N   UNL     1      19.552  11.500  21.132  0.00  0.00    -0.240 NA
ATOM     19  C   UNL     1      21.061   9.061  21.030  0.00  0.00    +0.125 C 
ATOM     20  C   UNL     1      19.010   8.004  22.031  0.00  0.00    +0.125 C 
ATOM     21  C   UNL     1      21.461   7.611  20.755  0.00  0.00    +0.126 C 
ATOM     22  C   UNL     1      20.056   7.159  22.756  0.00  0.00    +0.126 C 
ATOM     24  C   UNL     1      18.910  10.310  21.112  0.00  0.00    +0.122 A 
ATOM     27  C   UNL     1      16.817  11.309  20.587  0.00  0.00    +0.027 A 
ATOM     28  C   UNL     1      17.558  10.163  20.847  0.00  0.00    +0.055 A 
ATOM     29  C   UNL     1      21.718   5.468  22.069  0.00  0.00    +0.213 C 
ATOM     33  C   UNL     1      17.441  12.552  20.599  0.00  0.00    +0.031 A 
ATOM     34  C   UNL     1      18.799  12.593  20.875  0.00  0.00    +0.113 A 
ATOM     35  C   UNL     1      22.794   5.074  21.088  0.00  0.00    +0.109 C 
ENDBRANCH  23  27
BRANCH  17  12
ATOM      6  N   UNL     1      12.042   8.929  21.562  0.00  0.00    -0.287 NA
ATOM     12  C   UNL     1      12.030  10.262  20.928  0.00  0.00    +0.146 C 
ATOM     13  C   UNL     1      11.367  11.184  21.968  0.00  0.00    +0.030 C 
ATOM     14  C   UNL     1      10.987  10.270  23.125  0.00  0.00    +0.017 C 
ATOM     15  C   UNL     1      10.906   8.900  22.484  0.00  0.00    +0.085 C 
BRANCH   6  16
ATOM     16  C   UNL     1      11.996   7.836  20.600  0.00  0.00    +0.120 C 
BRANCH  16  18
ATOM     18  C   UNL     1      13.374   7.364  20.220  0.00  0.00    -0.033 A 
ATOM     25  C   UNL     1      14.266   6.947  21.208  0.00  0.00    +0.005 A 
ATOM     26  C   UNL     1      13.761   7.344  18.880  0.00  0.00    +0.005 A 
ATOM     30  C   UNL     1      15.542   6.510  20.857  0.00  0.00    +0.012 A 
ATOM     31  C   UNL     1      15.038   6.907  18.528  0.00  0.00    +0.012 A 
ATOM     32  C   UNL     1      15.929   6.489  19.517  0.00  0.00    +0.055 A 
BRANCH  32  36
ATOM      1  F   UNL     1      18.268   6.955  19.333  0.00  0.00    -0.166 F 
ATOM      2  F   UNL     1      17.381   5.663  17.826  0.00  0.00    -0.166 F 
ATOM      3  F   UNL     1      17.706   4.923  19.844  0.00  0.00    -0.166 F 
ATOM     36  C   UNL     1      17.293   6.019  19.141  0.00  0.00    +0.417 C 
ENDBRANCH  32  36
ENDBRANCH  16  18
ENDBRANCH   6  16
ENDBRANCH  17  12
TORSDOF 5
ENDMDL
MODEL 7
REMARK VINA RESULT:      -7.8      4.168      6.074
REMARK  Name = 51136829
REMARK  6 active torsions:
REMARK  status: ('A' for Active; 'I' for Inactive)
REMARK    1  A    between atoms: N_6  and  C_16
REMARK    2  A    between atoms: C_12  and  C_17
REMARK    3  A    between atoms: C_16  and  C_18
REMARK    4  A    between atoms: C_23  and  C_27
REMARK    5  A    between atoms: C_29  and  C_35
REMARK    6  A    between atoms: C_32  and  C_36
REMARK                            x       y       z     vdW  Elec       q    Type
REMARK                         _______ _______ _______ _____ _____    ______ ____
ROOT
ATOM      4  O   UNL     1      13.859  10.984  18.837  0.00  0.00    -0.336 OA
ATOM      9  N   UNL     1      15.210  10.056  20.365  0.00  0.00    -0.190 NA
ATOM     10  N   UNL     1      15.033  11.748  18.835  0.00  0.00    -0.056 NA
ATOM     17  C   UNL     1      14.046  10.010  19.766  0.00  0.00    +0.245 A 
ATOM     23  C   UNL     1      15.779  11.139  19.761  0.00  0.00    +0.202 A 
ENDROOT
BRANCH  23  27
ATOM      5  O   UNL     1      22.511   6.840  24.442  0.00  0.00    -0.276 OA
ATOM      7  N   UNL     1      20.151  10.308  21.615  0.00  0.00    -0.312 N 
ATOM      8  N   UNL     1      21.977   8.406  22.809  0.00  0.00    -0.299 N 
ATOM     11  N   UNL     1      19.668  12.462  20.777  0.00  0.00    -0.240 NA
ATOM     19  C   UNL     1      21.597  10.434  21.409  0.00  0.00    +0.125 C 
ATOM     20  C   UNL     1      19.668   9.244  22.500  0.00  0.00    +0.125 C 
ATOM     21  C   UNL     1      22.284   9.074  21.544  0.00  0.00    +0.126 C 
ATOM     22  C   UNL     1      20.755   8.828  23.489  0.00  0.00    +0.126 C 
ATOM     24  C   UNL     1      19.260  11.195  21.016  0.00  0.00    +0.122 A 
ATOM     27  C   UNL     1      17.098  11.588  20.107  0.00  0.00    +0.027 A 
ATOM     28  C   UNL     1      17.999  10.714  20.703  0.00  0.00    +0.055 A 
ATOM     29  C   UNL     1      22.767   7.404  23.376  0.00  0.00    +0.213 C 
ATOM     33  C   UNL     1      17.480  12.900  19.845  0.00  0.00    +0.031 A 
ATOM     34  C   UNL     1      18.764  13.284  20.197  0.00  0.00    +0.113 A 
ATOM     35  C   UNL     1      24.007   7.019  22.607  0.00  0.00    +0.109 C 
ENDBRANCH  23  27
BRANCH  17  12
ATOM      6  N   UNL     1      13.321   7.806  20.668  0.00  0.00    -0.287 NA
ATOM     12  C   UNL     1      12.904   9.035  19.962  0.00  0.00    +0.146 C 
ATOM     13  C   UNL     1      11.769   9.616  20.824  0.00  0.00    +0.030 C 
ATOM     14  C   UNL     1      11.577   8.616  21.956  0.00  0.00    +0.017 C 
ATOM     15  C   UNL     1      12.143   7.328  21.394  0.00  0.00    +0.085 C 
BRANCH   6  16
ATOM     16  C   UNL     1      13.866   6.790  19.778  0.00  0.00    +0.120 C 
BRANCH  16  18
ATOM     18  C   UNL     1      15.341   6.583  20.001  0.00  0.00    -0.033 A 
ATOM     25  C   UNL     1      16.161   6.203  18.939  0.00  0.00    +0.005 A 
ATOM     26  C   UNL     1      15.887   6.769  21.271  0.00  0.00    +0.005 A 
ATOM     30  C   UNL     1      17.526   6.012  19.146  0.00  0.00    +0.012 A 
ATOM     31  C   UNL     1      17.253   6.578  21.479  0.00  0.00    +0.012 A 
ATOM     32  C   UNL     1      18.073   6.199  20.415  0.00  0.00    +0.055 A 
BRANCH  32  36
ATOM      1  F   UNL     1      19.888   5.951  21.953  0.00  0.00    -0.166 F 
ATOM      2  F   UNL     1      20.289   6.994  20.089  0.00  0.00    -0.166 F 
ATOM      3  F   UNL     1      20.013   4.838  20.096  0.00  0.00    -0.166 F 
ATOM     36  C   UNL     1      19.534   5.998  20.636  0.00  0.00    +0.417 C 
ENDBRANCH  32  36
ENDBRANCH  16  18
ENDBRANCH   6  16
ENDBRANCH  17  12
TORSDOF 5
ENDMDL
MODEL 8
REMARK VINA RESULT:      -7.8      5.565      9.720
REMARK  Name = 51136829
REMARK  6 active torsions:
REMARK  status: ('A' for Active; 'I' for Inactive)
REMARK    1  A    between atoms: N_6  and  C_16
REMARK    2  A    between atoms: C_12  and  C_17
REMARK    3  A    between atoms: C_16  and  C_18
REMARK    4  A    between atoms: C_23  and  C_27
REMARK    5  A    between atoms: C_29  and  C_35
REMARK    6  A    between atoms: C_32  and  C_36
REMARK                            x       y       z     vdW  Elec       q    Type
REMARK                         _______ _______ _______ _____ _____    ______ ____
ROOT
ATOM      4  O   UNL     1      12.068  11.159  20.516  0.00  0.00    -0.336 OA
ATOM      9  N   UNL     1      11.545  10.368  22.545  0.00  0.00    -0.190 NA
ATOM     10  N   UNL     1      12.067  12.265  21.376  0.00  0.00    -0.056 NA
ATOM     17  C   UNL     1      11.750  10.084  21.284  0.00  0.00    +0.245 A 
ATOM     23  C   UNL     1      11.751  11.717  22.554  0.00  0.00    +0.202 A 
ENDROOT
BRANCH  23  27
ATOM      5  O   UNL     1      17.624  12.676  29.645  0.00  0.00    -0.276 OA
ATOM      7  N   UNL     1      13.627  13.447  26.644  0.00  0.00    -0.312 N 
ATOM      8  N   UNL     1      15.933  13.648  28.381  0.00  0.00    -0.299 N 
ATOM     11  N   UNL     1      11.396  14.001  26.098  0.00  0.00    -0.240 NA
ATOM     19  C   UNL     1      13.835  14.640  27.470  0.00  0.00    +0.125 C 
ATOM     20  C   UNL     1      14.572  12.336  26.781  0.00  0.00    +0.125 C 
ATOM     21  C   UNL     1      15.320  14.833  27.779  0.00  0.00    +0.126 C 
ATOM     22  C   UNL     1      15.256  12.374  28.146  0.00  0.00    +0.126 C 
ATOM     24  C   UNL     1      12.540  13.354  25.778  0.00  0.00    +0.122 A 
ATOM     27  C   UNL     1      11.630  12.491  23.757  0.00  0.00    +0.027 A 
ATOM     28  C   UNL     1      12.706  12.595  24.631  0.00  0.00    +0.055 A 
ATOM     29  C   UNL     1      17.106  13.673  29.138  0.00  0.00    +0.213 C 
ATOM     33  C   UNL     1      10.437  13.141  24.051  0.00  0.00    +0.031 A 
ATOM     34  C   UNL     1      10.372  13.876  25.225  0.00  0.00    +0.113 A 
ATOM     35  C   UNL     1      17.748  15.025  29.326  0.00  0.00    +0.109 C 
ENDBRANCH  23  27
BRANCH  17  12
ATOM      6  N   UNL     1      12.955   7.996  20.666  0.00  0.00    -0.287 NA
ATOM     12  C   UNL     1      11.686   8.746  20.578  0.00  0.00    +0.146 C 
ATOM     13  C   UNL     1      10.631   7.804  21.187  0.00  0.00    +0.030 C 
ATOM     14  C   UNL     1      11.388   6.529  21.532  0.00  0.00    +0.017 C 
ATOM     15  C   UNL     1      12.599   6.577  20.622  0.00  0.00    +0.085 C 
BRANCH   6  16
ATOM     16  C   UNL     1      13.906   8.355  19.623  0.00  0.00    +0.120 C 
BRANCH  16  18
ATOM     18  C   UNL     1      15.275   7.790  19.895  0.00  0.00    -0.033 A 
ATOM     25  C   UNL     1      16.057   8.320  20.922  0.00  0.00    +0.005 A 
ATOM     26  C   UNL     1      15.762   6.737  19.121  0.00  0.00    +0.005 A 
ATOM     30  C   UNL     1      17.325   7.797  21.174  0.00  0.00    +0.012 A 
ATOM     31  C   UNL     1      17.030   6.213  19.373  0.00  0.00    +0.012 A 
ATOM     32  C   UNL     1      17.811   6.743  20.401  0.00  0.00    +0.055 A 
BRANCH  32  36
ATOM      1  F   UNL     1      20.185   6.947  20.185  0.00  0.00    -0.166 F 
ATOM      2  F   UNL     1      19.341   4.945  20.123  0.00  0.00    -0.166 F 
ATOM      3  F   UNL     1      19.438   6.030  22.003  0.00  0.00    -0.166 F 
ATOM     36  C   UNL     1      19.166   6.181  20.673  0.00  0.00    +0.417 C 
ENDBRANCH  32  36
ENDBRANCH  16  18
ENDBRANCH   6  16
ENDBRANCH  17  12
TORSDOF 5
ENDMDL
MODEL 9
REMARK VINA RESULT:      -7.7     28.352     30.738
REMARK  Name = 51136829
REMARK  6 active torsions:
REMARK  status: ('A' for Active; 'I' for Inactive)
REMARK    1  A    between atoms: N_6  and  C_16
REMARK    2  A    between atoms: C_12  and  C_17
REMARK    3  A    between atoms: C_16  and  C_18
REMARK    4  A    between atoms: C_23  and  C_27
REMARK    5  A    between atoms: C_29  and  C_35
REMARK    6  A    between atoms: C_32  and  C_36
REMARK                            x       y       z     vdW  Elec       q    Type
REMARK                         _______ _______ _______ _____ _____    ______ ____
ROOT
ATOM      4  O   UNL     1      -6.118  -8.281   8.656  0.00  0.00    -0.336 OA
ATOM      9  N   UNL     1      -5.692 -10.410   9.204  0.00  0.00    -0.190 NA
ATOM     10  N   UNL     1      -5.282  -8.234   9.779  0.00  0.00    -0.056 NA
ATOM     17  C   UNL     1      -6.310  -9.598   8.385  0.00  0.00    +0.245 A 
ATOM     23  C   UNL     1      -5.075  -9.528  10.042  0.00  0.00    +0.202 A 
ENDROOT
BRANCH  23  27
ATOM      5  O   UNL     1      -7.068 -10.281  19.051  0.00  0.00    -0.276 OA
ATOM      7  N   UNL     1      -4.556 -10.723  14.684  0.00  0.00    -0.312 N 
ATOM      8  N   UNL     1      -5.806 -11.078  17.270  0.00  0.00    -0.299 N 
ATOM     11  N   UNL     1      -2.670 -10.841  13.267  0.00  0.00    -0.240 NA
ATOM     19  C   UNL     1      -4.046 -11.722  15.626  0.00  0.00    +0.125 C 
ATOM     20  C   UNL     1      -5.660  -9.862  15.117  0.00  0.00    +0.125 C 
ATOM     21  C   UNL     1      -5.151 -12.187  16.575  0.00  0.00    +0.126 C 
ATOM     22  C   UNL     1      -5.702  -9.763  16.641  0.00  0.00    +0.126 C 
ATOM     24  C   UNL     1      -3.985 -10.567  13.423  0.00  0.00    +0.122 A 
ATOM     27  C   UNL     1      -4.259  -9.972  11.137  0.00  0.00    +0.027 A 
ATOM     28  C   UNL     1      -4.814 -10.134  12.400  0.00  0.00    +0.055 A 
ATOM     29  C   UNL     1      -6.516 -11.213  18.465  0.00  0.00    +0.213 C 
ATOM     33  C   UNL     1      -2.910 -10.245  10.935  0.00  0.00    +0.031 A 
ATOM     34  C   UNL     1      -2.166 -10.672  12.024  0.00  0.00    +0.113 A 
ATOM     35  C   UNL     1      -6.585 -12.605  19.044  0.00  0.00    +0.109 C 
ENDBRANCH  23  27
BRANCH  17  12
ATOM      6  N   UNL     1      -8.207  -8.881   6.942  0.00  0.00    -0.287 NA
ATOM     12  C   UNL     1      -7.191  -9.921   7.195  0.00  0.00    +0.146 C 
ATOM     13  C   UNL     1      -6.398 -10.023   5.880  0.00  0.00    +0.030 C 
ATOM     14  C   UNL     1      -7.079  -9.048   4.929  0.00  0.00    +0.017 C 
ATOM     15  C   UNL     1      -8.473  -8.905   5.503  0.00  0.00    +0.085 C 
BRANCH   6  16
ATOM     16  C   UNL     1      -9.421  -9.061   7.727  0.00  0.00    +0.120 C 
BRANCH  16  18
ATOM     18  C   UNL     1      -9.949  -7.752   8.252  0.00  0.00    -0.033 A 
ATOM     25  C   UNL     1      -9.245  -6.571   8.016  0.00  0.00    +0.005 A 
ATOM     26  C   UNL     1     -11.141  -7.720   8.976  0.00  0.00    +0.005 A 
ATOM     30  C   UNL     1      -9.734  -5.359   8.502  0.00  0.00    +0.012 A 
ATOM     31  C   UNL     1     -11.630  -6.508   9.462  0.00  0.00    +0.012 A 
ATOM     32  C   UNL     1     -10.926  -5.327   9.224  0.00  0.00    +0.055 A 
BRANCH  32  36
ATOM      1  F   UNL     1     -11.782  -4.061  11.065  0.00  0.00    -0.166 F 
ATOM      2  F   UNL     1     -12.580  -3.624   9.091  0.00  0.00    -0.166 F 
ATOM      3  F   UNL     1     -10.567  -2.996   9.619  0.00  0.00    -0.166 F 
ATOM     36  C   UNL     1     -11.451  -4.030   9.741  0.00  0.00    +0.417 C 
ENDBRANCH  32  36
ENDBRANCH  16  18
ENDBRANCH   6  16
ENDBRANCH  17  12
TORSDOF 5
ENDMDL
MODEL 10
REMARK VINA RESULT:      -7.7     28.226     31.122
REMARK  Name = 51136829
REMARK  6 active torsions:
REMARK  status: ('A' for Active; 'I' for Inactive)
REMARK    1  A    between atoms: N_6  and  C_16
REMARK    2  A    between atoms: C_12  and  C_17
REMARK    3  A    between atoms: C_16  and  C_18
REMARK    4  A    between atoms: C_23  and  C_27
REMARK    5  A    between atoms: C_29  and  C_35
REMARK    6  A    between atoms: C_32  and  C_36
REMARK                            x       y       z     vdW  Elec       q    Type
REMARK                         _______ _______ _______ _____ _____    ______ ____
ROOT
ATOM      4  O   UNL     1      -2.467 -10.050  11.147  0.00  0.00    -0.336 OA
ATOM      9  N   UNL     1      -4.232 -11.298  10.561  0.00  0.00    -0.190 NA
ATOM     10  N   UNL     1      -3.099  -9.364  10.103  0.00  0.00    -0.056 NA
ATOM     17  C   UNL     1      -3.197 -11.177  11.353  0.00  0.00    +0.245 A 
ATOM     23  C   UNL     1      -4.131 -10.162   9.811  0.00  0.00    +0.202 A 
ENDROOT
BRANCH  23  27
ATOM      5  O   UNL     1     -12.349  -5.930  10.302  0.00  0.00    -0.276 OA
ATOM      7  N   UNL     1      -8.198  -8.042   8.329  0.00  0.00    -0.312 N 
ATOM      8  N   UNL     1     -10.478  -6.391   9.002  0.00  0.00    -0.299 N 
ATOM     11  N   UNL     1      -6.916  -9.253   6.759  0.00  0.00    -0.240 NA
ATOM     19  C   UNL     1      -8.812  -7.173   7.321  0.00  0.00    +0.125 C 
ATOM     20  C   UNL     1      -8.817  -8.107   9.656  0.00  0.00    +0.125 C 
ATOM     21  C   UNL     1      -9.511  -5.984   7.982  0.00  0.00    +0.126 C 
ATOM     22  C   UNL     1     -10.292  -7.718   9.584  0.00  0.00    +0.126 C 
ATOM     24  C   UNL     1      -7.079  -8.814   8.027  0.00  0.00    +0.122 A 
ATOM     27  C   UNL     1      -5.077  -9.855   8.776  0.00  0.00    +0.027 A 
ATOM     28  C   UNL     1      -6.197  -9.084   9.061  0.00  0.00    +0.055 A 
ATOM     29  C   UNL     1     -11.534  -5.589   9.443  0.00  0.00    +0.213 C 
ATOM     33  C   UNL     1      -4.873 -10.325   7.483  0.00  0.00    +0.031 A 
ATOM     34  C   UNL     1      -5.814 -10.000   6.519  0.00  0.00    +0.113 A 
ATOM     35  C   UNL     1     -11.651  -4.230   8.799  0.00  0.00    +0.109 C 
ENDBRANCH  23  27
BRANCH  17  12
ATOM      6  N   UNL     1      -3.553 -12.033  13.663  0.00  0.00    -0.287 NA
ATOM     12  C   UNL     1      -2.714 -12.104  12.449  0.00  0.00    +0.146 C 
ATOM     13  C   UNL     1      -2.751 -13.586  12.034  0.00  0.00    +0.030 C 
ATOM     14  C   UNL     1      -3.582 -14.279  13.105  0.00  0.00    +0.017 C 
ATOM     15  C   UNL     1      -3.473 -13.351  14.296  0.00  0.00    +0.085 C 
BRANCH   6  16
ATOM     16  C   UNL     1      -3.160 -10.964  14.571  0.00  0.00    +0.120 C 
BRANCH  16  18
ATOM     18  C   UNL     1      -4.059 -10.894  15.777  0.00  0.00    -0.033 A 
ATOM     25  C   UNL     1      -5.391 -10.508  15.632  0.00  0.00    +0.005 A 
ATOM     26  C   UNL     1      -3.559 -11.214  17.039  0.00  0.00    +0.005 A 
ATOM     30  C   UNL     1      -6.224 -10.444  16.749  0.00  0.00    +0.012 A 
ATOM     31  C   UNL     1      -4.391 -11.150  18.157  0.00  0.00    +0.012 A 
ATOM     32  C   UNL     1      -5.724 -10.765  18.011  0.00  0.00    +0.055 A 
BRANCH  32  36
ATOM      1  F   UNL     1      -7.887 -10.295  18.918  0.00  0.00    -0.166 F 
ATOM      2  F   UNL     1      -6.160  -9.830  20.153  0.00  0.00    -0.166 F 
ATOM      3  F   UNL     1      -6.758 -11.897  19.847  0.00  0.00    -0.166 F 
ATOM     36  C   UNL     1      -6.615 -10.700  19.205  0.00  0.00    +0.417 C 
ENDBRANCH  32  36
ENDBRANCH  16  18
ENDBRANCH   6  16
ENDBRANCH  17  12
TORSDOF 5
ENDMDL
