MODEL 1
REMARK VINA RESULT:      -7.9      0.000      0.000
REMARK  Name = 28960653
REMARK  6 active torsions:
REMARK  status: ('A' for Active; 'I' for Inactive)
REMARK    1  A    between atoms: N_6  and  C_18
REMARK    2  A    between atoms: N_7  and  C_13
REMARK    3  A    between atoms: N_9  and  C_21
REMARK    4  A    between atoms: C_14  and  C_17
REMARK    5  A    between atoms: C_20  and  C_22
REMARK    6  A    between atoms: C_25  and  C_29
REMARK                            x       y       z     vdW  Elec       q    Type
REMARK                         _______ _______ _______ _____ _____    ______ ____
ROOT
ATOM      6  N   UNL     1      13.505   8.993  18.759  0.00  0.00    -0.293 NA
ATOM     13  C   UNL     1      14.608   6.965  19.085  0.00  0.00    +0.090 C 
ATOM     14  C   UNL     1      12.496   8.146  19.423  0.00  0.00    +0.147 C 
ATOM     15  C   UNL     1      13.253   6.852  19.784  0.00  0.00    +0.052 C 
ATOM     16  C   UNL     1      14.407   8.071  18.061  0.00  0.00    +0.107 C 
ATOM     18  C   UNL     1      12.923   9.976  17.853  0.00  0.00    +0.105 C 
ENDROOT
BRANCH  13   7
ATOM      5  O   UNL     1      17.347   6.140  18.940  0.00  0.00    -0.253 OA
ATOM      7  N   UNL     1      15.660   7.298  20.016  0.00  0.00    -0.295 N 
ATOM      9  N   UNL     1      17.770   7.328  20.920  0.00  0.00    -0.269 N 
ATOM     19  C   UNL     1      16.978   6.851  19.872  0.00  0.00    +0.304 C 
ATOM     32  H   UNL     1      15.417   7.820  20.853  0.00  0.00    +0.151 HD
ATOM     33  H   UNL     1      17.307   7.909  21.614  0.00  0.00    +0.156 HD
BRANCH   9  21
ATOM     21  C   UNL     1      19.149   7.104  21.137  0.00  0.00    +0.035 A 
ATOM     23  C   UNL     1      19.658   5.804  21.112  0.00  0.00    +0.035 A 
ATOM     24  C   UNL     1      20.002   8.182  21.375  0.00  0.00    +0.023 A 
ATOM     25  C   UNL     1      21.018   5.584  21.325  0.00  0.00    +0.057 A 
ATOM     27  C   UNL     1      21.363   7.961  21.588  0.00  0.00    +0.002 A 
ATOM     28  C   UNL     1      21.871   6.662  21.564  0.00  0.00    +0.012 A 
BRANCH  25  29
ATOM      1  F   UNL     1      20.722   3.313  20.684  0.00  0.00    -0.166 F 
ATOM      2  F   UNL     1      22.754   4.086  20.641  0.00  0.00    -0.166 F 
ATOM      3  F   UNL     1      21.792   3.675  22.541  0.00  0.00    -0.166 F 
ATOM     29  C   UNL     1      21.562   4.196  21.299  0.00  0.00    +0.417 C 
ENDBRANCH  25  29
ENDBRANCH   9  21
ENDBRANCH  13   7
BRANCH  14  17
ATOM      4  O   UNL     1      10.994   8.034  21.347  0.00  0.00    -0.336 OA
ATOM      8  N   UNL     1      12.008  10.015  21.091  0.00  0.00    -0.189 NA
ATOM     10  N   UNL     1      10.536   8.844  22.394  0.00  0.00    -0.054 NA
ATOM     17  C   UNL     1      11.856   8.800  20.628  0.00  0.00    +0.245 A 
ATOM     20  C   UNL     1      11.178   9.996  22.174  0.00  0.00    +0.222 A 
BRANCH  20  22
ATOM     11  N   UNL     1      10.966  12.343  22.409  0.00  0.00    -0.249 NA
ATOM     12  N   UNL     1      10.764  12.086  25.194  0.00  0.00    -0.260 NA
ATOM     22  C   UNL     1      11.016  11.143  23.020  0.00  0.00    +0.129 A 
ATOM     26  C   UNL     1      10.917  11.017  24.388  0.00  0.00    +0.142 A 
ATOM     30  C   UNL     1      10.815  13.413  23.215  0.00  0.00    +0.131 A 
ATOM     31  C   UNL     1      10.715  13.286  24.583  0.00  0.00    +0.130 A 
ENDBRANCH  20  22
ENDBRANCH  14  17
TORSDOF 5
ENDMDL
MODEL 2
REMARK VINA RESULT:      -7.4     24.661     28.188
REMARK  Name = 28960653
REMARK  6 active torsions:
REMARK  status: ('A' for Active; 'I' for Inactive)
REMARK    1  A    between atoms: N_6  and  C_18
REMARK    2  A    between atoms: N_7  and  C_13
REMARK    3  A    between atoms: N_9  and  C_21
REMARK    4  A    between atoms: C_14  and  C_17
REMARK    5  A    between atoms: C_20  and  C_22
REMARK    6  A    between atoms: C_25  and  C_29
REMARK                            x       y       z     vdW  Elec       q    Type
REMARK                         _______ _______ _______ _____ _____    ______ ____
ROOT
ATOM      6  N   UNL     1       8.022   7.339  -4.468  0.00  0.00    -0.293 NA
ATOM     13  C   UNL     1       5.724   7.073  -4.178  0.00  0.00    +0.090 C 
ATOM     14  C   UNL     1       7.874   7.105  -3.019  0.00  0.00    +0.147 C 
ATOM     15  C   UNL     1       6.380   6.775  -2.830  0.00  0.00    +0.052 C 
ATOM     16  C   UNL     1       6.751   7.922  -4.912  0.00  0.00    +0.107 C 
ATOM     18  C   UNL     1       9.157   8.193  -4.799  0.00  0.00    +0.105 C 
ENDROOT
BRANCH  13   7
ATOM      5  O   UNL     1       3.131   5.963  -4.676  0.00  0.00    -0.253 OA
ATOM      7  N   UNL     1       5.429   5.861  -4.905  0.00  0.00    -0.295 N 
ATOM      9  N   UNL     1       4.152   4.197  -5.837  0.00  0.00    -0.269 N 
ATOM     19  C   UNL     1       4.128   5.386  -5.103  0.00  0.00    +0.304 C 
ATOM     32  H   UNL     1       6.205   5.289  -5.225  0.00  0.00    +0.151 HD
ATOM     33  H   UNL     1       5.067   3.852  -6.117  0.00  0.00    +0.156 HD
BRANCH   9  21
ATOM     21  C   UNL     1       3.052   3.407  -6.246  0.00  0.00    +0.035 A 
ATOM     23  C   UNL     1       2.589   2.378  -5.425  0.00  0.00    +0.035 A 
ATOM     24  C   UNL     1       2.430   3.657  -7.469  0.00  0.00    +0.023 A 
ATOM     25  C   UNL     1       1.504   1.600  -5.828  0.00  0.00    +0.057 A 
ATOM     27  C   UNL     1       1.344   2.879  -7.871  0.00  0.00    +0.002 A 
ATOM     28  C   UNL     1       0.882   1.850  -7.051  0.00  0.00    +0.012 A 
BRANCH  25  29
ATOM      1  F   UNL     1       0.232  -0.399  -5.623  0.00  0.00    -0.166 F 
ATOM      2  F   UNL     1       2.008  -0.237  -4.379  0.00  0.00    -0.166 F 
ATOM      3  F   UNL     1       0.245   0.935  -3.906  0.00  0.00    -0.166 F 
ATOM     29  C   UNL     1       1.009   0.500  -4.951  0.00  0.00    +0.417 C 
ENDBRANCH  25  29
ENDBRANCH   9  21
ENDBRANCH  13   7
BRANCH  14  17
ATOM      4  O   UNL     1       8.878   4.888  -3.238  0.00  0.00    -0.336 OA
ATOM      8  N   UNL     1       9.500   5.995  -1.393  0.00  0.00    -0.189 NA
ATOM     10  N   UNL     1       9.758   4.040  -2.554  0.00  0.00    -0.054 NA
ATOM     17  C   UNL     1       8.781   6.016  -2.488  0.00  0.00    +0.245 A 
ATOM     20  C   UNL     1      10.081   4.763  -1.477  0.00  0.00    +0.222 A 
BRANCH  20  22
ATOM     11  N   UNL     1      10.590   4.429   0.812  0.00  0.00    -0.249 NA
ATOM     12  N   UNL     1      13.046   3.256   0.135  0.00  0.00    -0.260 NA
ATOM     22  C   UNL     1      10.983   4.285  -0.469  0.00  0.00    +0.129 A 
ATOM     26  C   UNL     1      12.189   3.709  -0.802  0.00  0.00    +0.142 A 
ATOM     30  C   UNL     1      11.448   3.977   1.749  0.00  0.00    +0.131 A 
ATOM     31  C   UNL     1      12.653   3.400   1.416  0.00  0.00    +0.130 A 
ENDBRANCH  20  22
ENDBRANCH  14  17
TORSDOF 5
ENDMDL
MODEL 3
REMARK VINA RESULT:      -7.4     17.598     21.238
REMARK  Name = 28960653
REMARK  6 active torsions:
REMARK  status: ('A' for Active; 'I' for Inactive)
REMARK    1  A    between atoms: N_6  and  C_18
REMARK    2  A    between atoms: N_7  and  C_13
REMARK    3  A    between atoms: N_9  and  C_21
REMARK    4  A    between atoms: C_14  and  C_17
REMARK    5  A    between atoms: C_20  and  C_22
REMARK    6  A    between atoms: C_25  and  C_29
REMARK                            x       y       z     vdW  Elec       q    Type
REMARK                         _______ _______ _______ _____ _____    ______ ____
ROOT
ATOM      6  N   UNL     1      13.199   7.083   0.506  0.00  0.00    -0.293 NA
ATOM     13  C   UNL     1      13.848   6.471   2.659  0.00  0.00    +0.090 C 
ATOM     14  C   UNL     1      13.983   5.850   0.300  0.00  0.00    +0.147 C 
ATOM     15  C   UNL     1      14.292   5.347   1.724  0.00  0.00    +0.052 C 
ATOM     16  C   UNL     1      13.706   7.679   1.746  0.00  0.00    +0.107 C 
ATOM     18  C   UNL     1      13.283   8.010  -0.617  0.00  0.00    +0.105 C 
ENDROOT
BRANCH  13   7
ATOM      5  O   UNL     1      12.917   7.511   5.161  0.00  0.00    -0.253 OA
ATOM      7  N   UNL     1      12.600   6.158   3.313  0.00  0.00    -0.295 N 
ATOM      9  N   UNL     1      10.968   6.224   4.925  0.00  0.00    -0.269 N 
ATOM     19  C   UNL     1      12.220   6.711   4.540  0.00  0.00    +0.304 C 
ATOM     32  H   UNL     1      12.003   5.448   2.899  0.00  0.00    +0.151 HD
ATOM     33  H   UNL     1      10.521   5.565   4.294  0.00  0.00    +0.156 HD
BRANCH   9  21
ATOM     21  C   UNL     1      10.237   6.538   6.095  0.00  0.00    +0.035 A 
ATOM     23  C   UNL     1      10.160   5.615   7.139  0.00  0.00    +0.035 A 
ATOM     24  C   UNL     1       9.593   7.770   6.205  0.00  0.00    +0.023 A 
ATOM     25  C   UNL     1       9.440   5.925   8.292  0.00  0.00    +0.057 A 
ATOM     27  C   UNL     1       8.873   8.080   7.359  0.00  0.00    +0.002 A 
ATOM     28  C   UNL     1       8.796   7.158   8.402  0.00  0.00    +0.012 A 
BRANCH  25  29
ATOM      1  F   UNL     1       9.290   3.649   8.966  0.00  0.00    -0.166 F 
ATOM      2  F   UNL     1      10.428   4.980  10.255  0.00  0.00    -0.166 F 
ATOM      3  F   UNL     1       8.263   5.110  10.208  0.00  0.00    -0.166 F 
ATOM     29  C   UNL     1       9.357   4.939   9.408  0.00  0.00    +0.417 C 
ENDBRANCH  25  29
ENDBRANCH   9  21
ENDBRANCH  13   7
BRANCH  14  17
ATOM      4  O   UNL     1      13.402   3.520  -0.149  0.00  0.00    -0.336 OA
ATOM      8  N   UNL     1      12.531   4.978  -1.609  0.00  0.00    -0.189 NA
ATOM     10  N   UNL     1      12.667   2.759  -1.066  0.00  0.00    -0.054 NA
ATOM     17  C   UNL     1      13.270   4.814  -0.540  0.00  0.00    +0.245 A 
ATOM     20  C   UNL     1      12.184   3.689  -1.896  0.00  0.00    +0.222 A 
BRANCH  20  22
ATOM     11  N   UNL     1      10.257   2.619  -2.764  0.00  0.00    -0.249 NA
ATOM     12  N   UNL     1      10.887   3.499  -5.352  0.00  0.00    -0.260 NA
ATOM     22  C   UNL     1      11.351   3.365  -3.018  0.00  0.00    +0.129 A 
ATOM     26  C   UNL     1      11.660   3.797  -4.289  0.00  0.00    +0.142 A 
ATOM     30  C   UNL     1       9.484   2.321  -3.827  0.00  0.00    +0.131 A 
ATOM     31  C   UNL     1       9.793   2.753  -5.098  0.00  0.00    +0.130 A 
ENDBRANCH  20  22
ENDBRANCH  14  17
TORSDOF 5
ENDMDL
MODEL 4
REMARK VINA RESULT:      -7.4     28.242     32.026
REMARK  Name = 28960653
REMARK  6 active torsions:
REMARK  status: ('A' for Active; 'I' for Inactive)
REMARK    1  A    between atoms: N_6  and  C_18
REMARK    2  A    between atoms: N_7  and  C_13
REMARK    3  A    between atoms: N_9  and  C_21
REMARK    4  A    between atoms: C_14  and  C_17
REMARK    5  A    between atoms: C_20  and  C_22
REMARK    6  A    between atoms: C_25  and  C_29
REMARK                            x       y       z     vdW  Elec       q    Type
REMARK                         _______ _______ _______ _____ _____    ______ ____
ROOT
ATOM      6  N   UNL     1     -17.044   3.802  23.707  0.00  0.00    -0.293 NA
ATOM     13  C   UNL     1     -17.444   4.695  25.823  0.00  0.00    +0.090 C 
ATOM     14  C   UNL     1     -16.842   5.251  23.521  0.00  0.00    +0.147 C 
ATOM     15  C   UNL     1     -16.953   5.843  24.941  0.00  0.00    +0.052 C 
ATOM     16  C   UNL     1     -17.972   3.667  24.834  0.00  0.00    +0.107 C 
ATOM     18  C   UNL     1     -17.540   3.133  22.510  0.00  0.00    +0.105 C 
ENDROOT
BRANCH  13   7
ATOM      5  O   UNL     1     -17.728   3.053  28.153  0.00  0.00    -0.253 OA
ATOM      7  N   UNL     1     -16.378   4.149  26.629  0.00  0.00    -0.295 N 
ATOM      9  N   UNL     1     -15.389   2.973  28.333  0.00  0.00    -0.269 N 
ATOM     19  C   UNL     1     -16.604   3.354  27.757  0.00  0.00    +0.304 C 
ATOM     32  H   UNL     1     -15.423   4.415  26.409  0.00  0.00    +0.151 HD
ATOM     33  H   UNL     1     -14.543   3.309  27.878  0.00  0.00    +0.156 HD
BRANCH   9  21
ATOM     21  C   UNL     1     -15.186   2.171  29.480  0.00  0.00    +0.035 A 
ATOM     23  C   UNL     1     -15.072   2.767  30.737  0.00  0.00    +0.035 A 
ATOM     24  C   UNL     1     -15.099   0.785  29.355  0.00  0.00    +0.023 A 
ATOM     25  C   UNL     1     -14.873   1.975  31.868  0.00  0.00    +0.057 A 
ATOM     27  C   UNL     1     -14.901  -0.007  30.487  0.00  0.00    +0.002 A 
ATOM     28  C   UNL     1     -14.786   0.589  31.743  0.00  0.00    +0.012 A 
BRANCH  25  29
ATOM      1  F   UNL     1     -14.523   1.703  34.205  0.00  0.00    -0.166 F 
ATOM      2  F   UNL     1     -13.730   3.515  33.300  0.00  0.00    -0.166 F 
ATOM      3  F   UNL     1     -15.868   3.299  33.594  0.00  0.00    -0.166 F 
ATOM     29  C   UNL     1     -14.751   2.611  33.211  0.00  0.00    +0.417 C 
ENDBRANCH  25  29
ENDBRANCH   9  21
ENDBRANCH  13   7
BRANCH  14  17
ATOM      4  O   UNL     1     -14.605   4.606  22.780  0.00  0.00    -0.336 OA
ATOM      8  N   UNL     1     -15.147   6.728  22.312  0.00  0.00    -0.189 NA
ATOM     10  N   UNL     1     -13.495   5.156  22.127  0.00  0.00    -0.054 NA
ATOM     17  C   UNL     1     -15.531   5.597  22.848  0.00  0.00    +0.245 A 
ATOM     20  C   UNL     1     -13.891   6.409  21.883  0.00  0.00    +0.222 A 
BRANCH  20  22
ATOM     11  N   UNL     1     -13.477   8.646  21.224  0.00  0.00    -0.249 NA
ATOM     12  N   UNL     1     -11.100   7.872  19.952  0.00  0.00    -0.260 NA
ATOM     22  C   UNL     1     -13.058   7.365  21.212  0.00  0.00    +0.129 A 
ATOM     26  C   UNL     1     -11.891   6.985  20.587  0.00  0.00    +0.142 A 
ATOM     30  C   UNL     1     -12.685   9.533  20.588  0.00  0.00    +0.131 A 
ATOM     31  C   UNL     1     -11.518   9.153  19.964  0.00  0.00    +0.130 A 
ENDBRANCH  20  22
ENDBRANCH  14  17
TORSDOF 5
ENDMDL
MODEL 5
REMARK VINA RESULT:      -7.3     28.155     29.797
REMARK  Name = 28960653
REMARK  6 active torsions:
REMARK  status: ('A' for Active; 'I' for Inactive)
REMARK    1  A    between atoms: N_6  and  C_18
REMARK    2  A    between atoms: N_7  and  C_13
REMARK    3  A    between atoms: N_9  and  C_21
REMARK    4  A    between atoms: C_14  and  C_17
REMARK    5  A    between atoms: C_20  and  C_22
REMARK    6  A    between atoms: C_25  and  C_29
REMARK                            x       y       z     vdW  Elec       q    Type
REMARK                         _______ _______ _______ _____ _____    ______ ____
ROOT
ATOM      6  N   UNL     1      -7.555 -12.346  18.500  0.00  0.00    -0.293 NA
ATOM     13  C   UNL     1      -5.473 -11.495  17.891  0.00  0.00    +0.090 C 
ATOM     14  C   UNL     1      -7.590 -10.952  18.983  0.00  0.00    +0.147 C 
ATOM     15  C   UNL     1      -6.282 -10.328  18.456  0.00  0.00    +0.052 C 
ATOM     16  C   UNL     1      -6.140 -12.729  18.478  0.00  0.00    +0.107 C 
ATOM     18  C   UNL     1      -8.353 -13.255  19.314  0.00  0.00    +0.105 C 
ENDROOT
BRANCH  13   7
ATOM      5  O   UNL     1      -3.512 -10.394  16.116  0.00  0.00    -0.253 OA
ATOM      7  N   UNL     1      -5.507 -11.516  16.448  0.00  0.00    -0.295 N 
ATOM      9  N   UNL     1      -4.806 -11.122  14.298  0.00  0.00    -0.269 N 
ATOM     19  C   UNL     1      -4.504 -10.952  15.652  0.00  0.00    +0.304 C 
ATOM     32  H   UNL     1      -6.331 -11.892  15.990  0.00  0.00    +0.151 HD
ATOM     33  H   UNL     1      -5.672 -11.609  14.081  0.00  0.00    +0.156 HD
BRANCH   9  21
ATOM     21  C   UNL     1      -4.050 -10.698  13.180  0.00  0.00    +0.035 A 
ATOM     23  C   UNL     1      -4.672 -10.011  12.137  0.00  0.00    +0.035 A 
ATOM     24  C   UNL     1      -2.683 -10.967  13.120  0.00  0.00    +0.023 A 
ATOM     25  C   UNL     1      -3.926  -9.593  11.035  0.00  0.00    +0.057 A 
ATOM     27  C   UNL     1      -1.937 -10.548  12.018  0.00  0.00    +0.002 A 
ATOM     28  C   UNL     1      -2.559  -9.862  10.975  0.00  0.00    +0.012 A 
BRANCH  25  29
ATOM      1  F   UNL     1      -3.750  -8.625   8.870  0.00  0.00    -0.166 F 
ATOM      2  F   UNL     1      -5.663  -9.520   9.390  0.00  0.00    -0.166 F 
ATOM      3  F   UNL     1      -5.072  -7.633  10.283  0.00  0.00    -0.166 F 
ATOM     29  C   UNL     1      -4.590  -8.859   9.920  0.00  0.00    +0.417 C 
ENDBRANCH  25  29
ENDBRANCH   9  21
ENDBRANCH  13   7
BRANCH  14  17
ATOM      4  O   UNL     1      -9.972 -10.457  19.206  0.00  0.00    -0.336 OA
ATOM      8  N   UNL     1      -8.942  -9.293  17.593  0.00  0.00    -0.189 NA
ATOM     10  N   UNL     1     -10.953  -9.643  18.626  0.00  0.00    -0.054 NA
ATOM     17  C   UNL     1      -8.818 -10.189  18.540  0.00  0.00    +0.245 A 
ATOM     20  C   UNL     1     -10.269  -8.988  17.683  0.00  0.00    +0.222 A 
BRANCH  20  22
ATOM     11  N   UNL     1     -10.066  -7.098  16.269  0.00  0.00    -0.249 NA
ATOM     12  N   UNL     1     -12.823  -7.137  15.756  0.00  0.00    -0.260 NA
ATOM     22  C   UNL     1     -10.881  -8.021  16.818  0.00  0.00    +0.129 A 
ATOM     26  C   UNL     1     -12.235  -8.040  16.566  0.00  0.00    +0.142 A 
ATOM     30  C   UNL     1     -10.654  -6.195  15.460  0.00  0.00    +0.131 A 
ATOM     31  C   UNL     1     -12.008  -6.214  15.207  0.00  0.00    +0.130 A 
ENDBRANCH  20  22
ENDBRANCH  14  17
TORSDOF 5
ENDMDL
MODEL 6
REMARK VINA RESULT:      -7.2     18.566     21.923
REMARK  Name = 28960653
REMARK  6 active torsions:
REMARK  status: ('A' for Active; 'I' for Inactive)
REMARK    1  A    between atoms: N_6  and  C_18
REMARK    2  A    between atoms: N_7  and  C_13
REMARK    3  A    between atoms: N_9  and  C_21
REMARK    4  A    between atoms: C_14  and  C_17
REMARK    5  A    between atoms: C_20  and  C_22
REMARK    6  A    between atoms: C_25  and  C_29
REMARK                            x       y       z     vdW  Elec       q    Type
REMARK                         _______ _______ _______ _____ _____    ______ ____
ROOT
ATOM      6  N   UNL     1      13.752   4.364  -0.820  0.00  0.00    -0.293 NA
ATOM     13  C   UNL     1      13.548   3.640   1.386  0.00  0.00    +0.090 C 
ATOM     14  C   UNL     1      12.766   3.270  -0.898  0.00  0.00    +0.147 C 
ATOM     15  C   UNL     1      12.504   2.880   0.570  0.00  0.00    +0.052 C 
ATOM     16  C   UNL     1      14.579   4.076   0.356  0.00  0.00    +0.107 C 
ATOM     18  C   UNL     1      14.555   4.501  -2.029  0.00  0.00    +0.105 C 
ENDROOT
BRANCH  13   7
ATOM      5  O   UNL     1      11.240   3.629   3.083  0.00  0.00    -0.253 OA
ATOM      7  N   UNL     1      12.970   4.776   2.064  0.00  0.00    -0.295 N 
ATOM      9  N   UNL     1      11.507   5.940   3.395  0.00  0.00    -0.269 N 
ATOM     19  C   UNL     1      11.835   4.685   2.877  0.00  0.00    +0.304 C 
ATOM     32  H   UNL     1      13.361   5.696   1.883  0.00  0.00    +0.151 HD
ATOM     33  H   UNL     1      12.107   6.716   3.126  0.00  0.00    +0.156 HD
BRANCH   9  21
ATOM     21  C   UNL     1      10.436   6.270   4.258  0.00  0.00    +0.035 A 
ATOM     23  C   UNL     1      10.508   5.952   5.615  0.00  0.00    +0.035 A 
ATOM     24  C   UNL     1       9.306   6.914   3.752  0.00  0.00    +0.023 A 
ATOM     25  C   UNL     1       9.451   6.278   6.464  0.00  0.00    +0.057 A 
ATOM     27  C   UNL     1       8.250   7.241   4.602  0.00  0.00    +0.002 A 
ATOM     28  C   UNL     1       8.322   6.922   5.958  0.00  0.00    +0.012 A 
BRANCH  25  29
ATOM      1  F   UNL     1      10.753   6.204   8.453  0.00  0.00    -0.166 F 
ATOM      2  F   UNL     1       8.633   6.624   8.686  0.00  0.00    -0.166 F 
ATOM      3  F   UNL     1       9.288   4.620   8.180  0.00  0.00    -0.166 F 
ATOM     29  C   UNL     1       9.527   5.938   7.914  0.00  0.00    +0.417 C 
ENDBRANCH  25  29
ENDBRANCH   9  21
ENDBRANCH  13   7
BRANCH  14  17
ATOM      4  O   UNL     1      10.849   2.647  -2.280  0.00  0.00    -0.336 OA
ATOM      8  N   UNL     1      10.924   4.821  -1.746  0.00  0.00    -0.189 NA
ATOM     10  N   UNL     1       9.727   3.233  -2.878  0.00  0.00    -0.054 NA
ATOM     17  C   UNL     1      11.499   3.650  -1.634  0.00  0.00    +0.245 A 
ATOM     20  C   UNL     1       9.841   4.515  -2.518  0.00  0.00    +0.222 A 
BRANCH  20  22
ATOM     11  N   UNL     1       8.800   6.607  -2.126  0.00  0.00    -0.249 NA
ATOM     12  N   UNL     1       7.208   6.287  -4.413  0.00  0.00    -0.260 NA
ATOM     22  C   UNL     1       8.889   5.514  -2.910  0.00  0.00    +0.129 A 
ATOM     26  C   UNL     1       8.107   5.357  -4.033  0.00  0.00    +0.142 A 
ATOM     30  C   UNL     1       7.900   7.537  -2.506  0.00  0.00    +0.131 A 
ATOM     31  C   UNL     1       7.119   7.380  -3.629  0.00  0.00    +0.130 A 
ENDBRANCH  20  22
ENDBRANCH  14  17
TORSDOF 5
ENDMDL
MODEL 7
REMARK VINA RESULT:      -7.2     28.360     30.803
REMARK  Name = 28960653
REMARK  6 active torsions:
REMARK  status: ('A' for Active; 'I' for Inactive)
REMARK    1  A    between atoms: N_6  and  C_18
REMARK    2  A    between atoms: N_7  and  C_13
REMARK    3  A    between atoms: N_9  and  C_21
REMARK    4  A    between atoms: C_14  and  C_17
REMARK    5  A    between atoms: C_20  and  C_22
REMARK    6  A    between atoms: C_25  and  C_29
REMARK                            x       y       z     vdW  Elec       q    Type
REMARK                         _______ _______ _______ _____ _____    ______ ____
ROOT
ATOM      6  N   UNL     1     -11.774 -10.126  16.022  0.00  0.00    -0.293 NA
ATOM     13  C   UNL     1     -11.251 -10.177  18.293  0.00  0.00    +0.090 C 
ATOM     14  C   UNL     1     -12.624  -9.069  16.603  0.00  0.00    +0.147 C 
ATOM     15  C   UNL     1     -12.182  -8.984  18.078  0.00  0.00    +0.052 C 
ATOM     16  C   UNL     1     -11.528 -11.084  17.104  0.00  0.00    +0.107 C 
ATOM     18  C   UNL     1     -12.370 -10.764  14.854  0.00  0.00    +0.105 C 
ENDROOT
BRANCH  13   7
ATOM      5  O   UNL     1      -8.961 -11.898  18.287  0.00  0.00    -0.253 OA
ATOM      7  N   UNL     1      -9.866  -9.771  18.331  0.00  0.00    -0.295 N 
ATOM      9  N   UNL     1      -7.583  -9.999  18.369  0.00  0.00    -0.269 N 
ATOM     19  C   UNL     1      -8.802 -10.680  18.325  0.00  0.00    +0.304 C 
ATOM     32  H   UNL     1      -9.655  -8.783  18.439  0.00  0.00    +0.151 HD
ATOM     33  H   UNL     1      -7.627  -8.984  18.398  0.00  0.00    +0.156 HD
BRANCH   9  21
ATOM     21  C   UNL     1      -6.281 -10.552  18.378  0.00  0.00    +0.035 A 
ATOM     23  C   UNL     1      -5.472 -10.451  17.245  0.00  0.00    +0.035 A 
ATOM     24  C   UNL     1      -5.805 -11.197  19.520  0.00  0.00    +0.023 A 
ATOM     25  C   UNL     1      -4.188 -10.996  17.255  0.00  0.00    +0.057 A 
ATOM     27  C   UNL     1      -4.520 -11.741  19.529  0.00  0.00    +0.002 A 
ATOM     28  C   UNL     1      -3.712 -11.641  18.397  0.00  0.00    +0.012 A 
BRANCH  25  29
ATOM      1  F   UNL     1      -2.145 -10.247  16.295  0.00  0.00    -0.166 F 
ATOM      2  F   UNL     1      -2.975 -12.098  15.511  0.00  0.00    -0.166 F 
ATOM      3  F   UNL     1      -3.904 -10.201  15.017  0.00  0.00    -0.166 F 
ATOM     29  C   UNL     1      -3.323 -10.889  16.045  0.00  0.00    +0.417 C 
ENDBRANCH  25  29
ENDBRANCH   9  21
ENDBRANCH  13   7
BRANCH  14  17
ATOM      4  O   UNL     1     -11.437  -6.972  16.197  0.00  0.00    -0.336 OA
ATOM      8  N   UNL     1     -13.312  -7.210  14.994  0.00  0.00    -0.189 NA
ATOM     10  N   UNL     1     -11.551  -5.812  15.421  0.00  0.00    -0.054 NA
ATOM     17  C   UNL     1     -12.513  -7.741  15.886  0.00  0.00    +0.245 A 
ATOM     20  C   UNL     1     -12.681  -6.027  14.739  0.00  0.00    +0.222 A 
BRANCH  20  22
ATOM     11  N   UNL     1     -14.533  -5.119  13.575  0.00  0.00    -0.249 NA
ATOM     12  N   UNL     1     -12.860  -3.293  12.259  0.00  0.00    -0.260 NA
ATOM     22  C   UNL     1     -13.204  -5.082  13.795  0.00  0.00    +0.129 A 
ATOM     26  C   UNL     1     -12.382  -4.186  13.148  0.00  0.00    +0.142 A 
ATOM     30  C   UNL     1     -15.011  -4.227  12.684  0.00  0.00    +0.131 A 
ATOM     31  C   UNL     1     -14.189  -3.330  12.038  0.00  0.00    +0.130 A 
ENDBRANCH  20  22
ENDBRANCH  14  17
TORSDOF 5
ENDMDL
MODEL 8
REMARK VINA RESULT:      -7.2     27.334     30.451
REMARK  Name = 28960653
REMARK  6 active torsions:
REMARK  status: ('A' for Active; 'I' for Inactive)
REMARK    1  A    between atoms: N_6  and  C_18
REMARK    2  A    between atoms: N_7  and  C_13
REMARK    3  A    between atoms: N_9  and  C_21
REMARK    4  A    between atoms: C_14  and  C_17
REMARK    5  A    between atoms: C_20  and  C_22
REMARK    6  A    between atoms: C_25  and  C_29
REMARK                            x       y       z     vdW  Elec       q    Type
REMARK                         _______ _______ _______ _____ _____    ______ ____
ROOT
ATOM      6  N   UNL     1      -2.491 -10.489  15.696  0.00  0.00    -0.293 NA
ATOM     13  C   UNL     1      -4.334 -11.486  16.718  0.00  0.00    +0.090 C 
ATOM     14  C   UNL     1      -2.943 -11.490  14.710  0.00  0.00    +0.147 C 
ATOM     15  C   UNL     1      -4.250 -12.054  15.302  0.00  0.00    +0.052 C 
ATOM     16  C   UNL     1      -2.925 -10.990  17.004  0.00  0.00    +0.107 C 
ATOM     18  C   UNL     1      -1.054 -10.250  15.654  0.00  0.00    +0.105 C 
ENDROOT
BRANCH  13   7
ATOM      5  O   UNL     1      -7.144 -11.739  17.215  0.00  0.00    -0.253 OA
ATOM      7  N   UNL     1      -5.295 -10.412  16.805  0.00  0.00    -0.295 N 
ATOM      9  N   UNL     1      -7.339  -9.404  17.078  0.00  0.00    -0.269 N 
ATOM     19  C   UNL     1      -6.656 -10.623  17.051  0.00  0.00    +0.304 C 
ATOM     32  H   UNL     1      -4.982  -9.466  16.606  0.00  0.00    +0.151 HD
ATOM     33  H   UNL     1      -6.784  -8.566  16.923  0.00  0.00    +0.156 HD
BRANCH   9  21
ATOM     21  C   UNL     1      -8.719  -9.187  17.297  0.00  0.00    +0.035 A 
ATOM     23  C   UNL     1      -9.378  -8.153  16.630  0.00  0.00    +0.035 A 
ATOM     24  C   UNL     1      -9.422 -10.006  18.181  0.00  0.00    +0.023 A 
ATOM     25  C   UNL     1     -10.739  -7.941  16.846  0.00  0.00    +0.057 A 
ATOM     27  C   UNL     1     -10.784  -9.793  18.396  0.00  0.00    +0.002 A 
ATOM     28  C   UNL     1     -11.442  -8.760  17.729  0.00  0.00    +0.012 A 
BRANCH  25  29
ATOM      1  F   UNL     1     -11.226  -5.617  16.706  0.00  0.00    -0.166 F 
ATOM      2  F   UNL     1     -11.068  -6.699  14.827  0.00  0.00    -0.166 F 
ATOM      3  F   UNL     1     -12.801  -6.987  16.098  0.00  0.00    -0.166 F 
ATOM     29  C   UNL     1     -11.444  -6.837  16.133  0.00  0.00    +0.417 C 
ENDBRANCH  25  29
ENDBRANCH   9  21
ENDBRANCH  13   7
BRANCH  14  17
ATOM      4  O   UNL     1      -1.999 -10.669  12.612  0.00  0.00    -0.336 OA
ATOM      8  N   UNL     1      -4.238 -10.642  12.681  0.00  0.00    -0.189 NA
ATOM     10  N   UNL     1      -2.420 -10.160  11.376  0.00  0.00    -0.054 NA
ATOM     17  C   UNL     1      -3.130 -10.926  13.319  0.00  0.00    +0.245 A 
ATOM     20  C   UNL     1      -3.752 -10.175  11.494  0.00  0.00    +0.222 A 
BRANCH  20  22
ATOM     11  N   UNL     1      -5.759  -9.111  10.821  0.00  0.00    -0.249 NA
ATOM     12  N   UNL     1      -5.121  -9.527   8.122  0.00  0.00    -0.260 NA
ATOM     22  C   UNL     1      -4.624  -9.732  10.444  0.00  0.00    +0.129 A 
ATOM     26  C   UNL     1      -4.310  -9.937   9.119  0.00  0.00    +0.142 A 
ATOM     30  C   UNL     1      -6.569  -8.702   9.825  0.00  0.00    +0.131 A 
ATOM     31  C   UNL     1      -6.255  -8.906   8.500  0.00  0.00    +0.130 A 
ENDBRANCH  20  22
ENDBRANCH  14  17
TORSDOF 5
ENDMDL
MODEL 9
REMARK VINA RESULT:      -7.1     27.627     30.104
REMARK  Name = 28960653
REMARK  6 active torsions:
REMARK  status: ('A' for Active; 'I' for Inactive)
REMARK    1  A    between atoms: N_6  and  C_18
REMARK    2  A    between atoms: N_7  and  C_13
REMARK    3  A    between atoms: N_9  and  C_21
REMARK    4  A    between atoms: C_14  and  C_17
REMARK    5  A    between atoms: C_20  and  C_22
REMARK    6  A    between atoms: C_25  and  C_29
REMARK                            x       y       z     vdW  Elec       q    Type
REMARK                         _______ _______ _______ _____ _____    ______ ____
ROOT
ATOM      6  N   UNL     1     -11.283  -9.641  16.493  0.00  0.00    -0.293 NA
ATOM     13  C   UNL     1      -9.224  -9.001  17.377  0.00  0.00    +0.090 C 
ATOM     14  C   UNL     1     -11.506  -8.250  16.931  0.00  0.00    +0.147 C 
ATOM     15  C   UNL     1     -10.115  -7.759  17.379  0.00  0.00    +0.052 C 
ATOM     16  C   UNL     1     -10.206 -10.162  17.340  0.00  0.00    +0.107 C 
ATOM     18  C   UNL     1     -12.484 -10.466  16.570  0.00  0.00    +0.105 C 
ENDROOT
BRANCH  13   7
ATOM      5  O   UNL     1      -6.860 -10.589  17.067  0.00  0.00    -0.253 OA
ATOM      7  N   UNL     1      -8.343  -9.022  16.234  0.00  0.00    -0.295 N 
ATOM      9  N   UNL     1      -6.548  -9.639  14.943  0.00  0.00    -0.269 N 
ATOM     19  C   UNL     1      -7.203  -9.831  16.163  0.00  0.00    +0.304 C 
ATOM     32  H   UNL     1      -8.518  -8.368  15.477  0.00  0.00    +0.151 HD
ATOM     33  H   UNL     1      -6.966  -8.971  14.301  0.00  0.00    +0.156 HD
BRANCH   9  21
ATOM     21  C   UNL     1      -5.366 -10.266  14.486  0.00  0.00    +0.035 A 
ATOM     23  C   UNL     1      -4.201 -10.204  15.253  0.00  0.00    +0.035 A 
ATOM     24  C   UNL     1      -5.363 -10.945  13.267  0.00  0.00    +0.023 A 
ATOM     25  C   UNL     1      -3.036 -10.823  14.801  0.00  0.00    +0.057 A 
ATOM     27  C   UNL     1      -4.197 -11.564  12.816  0.00  0.00    +0.002 A 
ATOM     28  C   UNL     1      -3.033 -11.502  13.583  0.00  0.00    +0.012 A 
BRANCH  25  29
ATOM      1  F   UNL     1      -2.026 -10.959  16.950  0.00  0.00    -0.166 F 
ATOM      2  F   UNL     1      -0.854 -11.687  15.269  0.00  0.00    -0.166 F 
ATOM      3  F   UNL     1      -1.147  -9.555  15.540  0.00  0.00    -0.166 F 
ATOM     29  C   UNL     1      -1.791 -10.757  15.620  0.00  0.00    +0.417 C 
ENDBRANCH  25  29
ENDBRANCH   9  21
ENDBRANCH  13   7
BRANCH  14  17
ATOM      4  O   UNL     1     -13.452  -7.142  15.954  0.00  0.00    -0.336 OA
ATOM      8  N   UNL     1     -11.541  -6.785  14.841  0.00  0.00    -0.189 NA
ATOM     10  N   UNL     1     -13.781  -6.316  14.872  0.00  0.00    -0.054 NA
ATOM     17  C   UNL     1     -12.116  -7.370  15.862  0.00  0.00    +0.245 A 
ATOM     20  C   UNL     1     -12.602  -6.150  14.263  0.00  0.00    +0.222 A 
BRANCH  20  22
ATOM     11  N   UNL     1     -12.288  -6.023  11.918  0.00  0.00    -0.249 NA
ATOM     12  N   UNL     1     -12.331  -3.221  12.026  0.00  0.00    -0.260 NA
ATOM     22  C   UNL     1     -12.451  -5.356  13.078  0.00  0.00    +0.129 A 
ATOM     26  C   UNL     1     -12.472  -3.979  13.131  0.00  0.00    +0.142 A 
ATOM     30  C   UNL     1     -12.146  -5.264  10.814  0.00  0.00    +0.131 A 
ATOM     31  C   UNL     1     -12.167  -3.888  10.867  0.00  0.00    +0.130 A 
ENDBRANCH  20  22
ENDBRANCH  14  17
TORSDOF 5
ENDMDL
MODEL 10
REMARK VINA RESULT:      -7.1      3.741      5.622
REMARK  Name = 28960653
REMARK  6 active torsions:
REMARK  status: ('A' for Active; 'I' for Inactive)
REMARK    1  A    between atoms: N_6  and  C_18
REMARK    2  A    between atoms: N_7  and  C_13
REMARK    3  A    between atoms: N_9  and  C_21
REMARK    4  A    between atoms: C_14  and  C_17
REMARK    5  A    between atoms: C_20  and  C_22
REMARK    6  A    between atoms: C_25  and  C_29
REMARK                            x       y       z     vdW  Elec       q    Type
REMARK                         _______ _______ _______ _____ _____    ______ ____
ROOT
ATOM      6  N   UNL     1      14.009   7.162  19.535  0.00  0.00    -0.293 NA
ATOM     13  C   UNL     1      15.788   7.842  20.879  0.00  0.00    +0.090 C 
ATOM     14  C   UNL     1      14.112   8.611  19.277  0.00  0.00    +0.147 C 
ATOM     15  C   UNL     1      15.378   9.051  20.040  0.00  0.00    +0.052 C 
ATOM     16  C   UNL     1      14.553   6.954  20.881  0.00  0.00    +0.107 C 
ATOM     18  C   UNL     1      12.649   6.653  19.413  0.00  0.00    +0.105 C 
ENDROOT
BRANCH  13   7
ATOM      5  O   UNL     1      18.435   7.721  21.966  0.00  0.00    -0.253 OA
ATOM      7  N   UNL     1      16.924   7.158  20.309  0.00  0.00    -0.295 N 
ATOM      9  N   UNL     1      19.087   6.413  20.129  0.00  0.00    -0.269 N 
ATOM     19  C   UNL     1      18.189   7.149  20.906  0.00  0.00    +0.304 C 
ATOM     32  H   UNL     1      16.819   6.726  19.396  0.00  0.00    +0.151 HD
ATOM     33  H   UNL     1      18.721   6.001  19.275  0.00  0.00    +0.156 HD
BRANCH   9  21
ATOM     21  C   UNL     1      20.456   6.164  20.385  0.00  0.00    +0.035 A 
ATOM     23  C   UNL     1      20.894   4.864  20.640  0.00  0.00    +0.035 A 
ATOM     24  C   UNL     1      21.369   7.220  20.383  0.00  0.00    +0.023 A 
ATOM     25  C   UNL     1      22.244   4.620  20.892  0.00  0.00    +0.057 A 
ATOM     27  C   UNL     1      22.719   6.975  20.635  0.00  0.00    +0.002 A 
ATOM     28  C   UNL     1      23.156   5.675  20.890  0.00  0.00    +0.012 A 
BRANCH  25  29
ATOM      1  F   UNL     1      22.844   2.973  22.499  0.00  0.00    -0.166 F 
ATOM      2  F   UNL     1      21.872   2.265  20.687  0.00  0.00    -0.166 F 
ATOM      3  F   UNL     1      23.930   2.947  20.615  0.00  0.00    -0.166 F 
ATOM     29  C   UNL     1      22.712   3.231  21.165  0.00  0.00    +0.417 C 
ENDBRANCH  25  29
ENDBRANCH   9  21
ENDBRANCH  13   7
BRANCH  14  17
ATOM      4  O   UNL     1      13.839   7.971  16.935  0.00  0.00    -0.336 OA
ATOM      8  N   UNL     1      14.495  10.092  17.233  0.00  0.00    -0.189 NA
ATOM     10  N   UNL     1      13.965   8.523  15.654  0.00  0.00    -0.054 NA
ATOM     17  C   UNL     1      14.169   8.960  17.806  0.00  0.00    +0.245 A 
ATOM     20  C   UNL     1      14.356   9.775  15.913  0.00  0.00    +0.222 A 
BRANCH  20  22
ATOM     11  N   UNL     1      13.545  11.392  14.384  0.00  0.00    -0.249 NA
ATOM     12  N   UNL     1      16.144  11.860  13.440  0.00  0.00    -0.260 NA
ATOM     22  C   UNL     1      14.612  10.734  14.877  0.00  0.00    +0.129 A 
ATOM     26  C   UNL     1      15.889  10.963  14.413  0.00  0.00    +0.142 A 
ATOM     30  C   UNL     1      13.800  12.288  13.410  0.00  0.00    +0.131 A 
ATOM     31  C   UNL     1      15.076  12.518  12.947  0.00  0.00    +0.130 A 
ENDBRANCH  20  22
ENDBRANCH  14  17
TORSDOF 5
ENDMDL
