MODEL 1
REMARK VINA RESULT:      -7.0      0.000      0.000
REMARK  Name = 11887518
REMARK  6 active torsions:
REMARK  status: ('A' for Active; 'I' for Inactive)
REMARK    1  A    between atoms: N_6  and  C_19
REMARK    2  A    between atoms: N_8  and  C_25
REMARK    3  A    between atoms: N_8  and  C_28
REMARK    4  A    between atoms: N_8  and  C_29
REMARK    5  A    between atoms: C_18  and  C_21
REMARK    6  A    between atoms: C_24  and  C_25
REMARK                            x       y       z     vdW  Elec       q    Type
REMARK                         _______ _______ _______ _____ _____    ______ ____
ROOT
ATOM      1  O   UNL     1      13.230   9.179  16.561  0.00  0.00    -0.266 OA
ATOM      2  O   UNL     1      10.664   8.141  20.932  0.00  0.00    -0.270 OA
ATOM      4  N   UNL     1      12.950   8.144  21.433  0.00  0.00    -0.297 N 
ATOM      5  N   UNL     1      14.241   8.970  18.658  0.00  0.00    -0.310 N 
ATOM      9  C   UNL     1      14.353   6.748  19.926  0.00  0.00    +0.027 C 
ATOM     10  C   UNL     1      15.297   8.783  20.937  0.00  0.00    +0.054 C 
ATOM     11  C   UNL     1      15.608   7.335  20.561  0.00  0.00    +0.018 C 
ATOM     12  C   UNL     1      13.177   6.794  20.918  0.00  0.00    +0.113 C 
ATOM     13  C   UNL     1      14.049   7.513  18.632  0.00  0.00    +0.130 C 
ATOM     14  C   UNL     1      14.147   8.815  21.964  0.00  0.00    +0.117 C 
ATOM     15  C   UNL     1      14.912   9.594  19.714  0.00  0.00    +0.027 A 
ATOM     16  C   UNL     1      15.180  10.910  19.662  0.00  0.00    +0.024 A 
ATOM     17  C   UNL     1      13.809   9.686  17.523  0.00  0.00    +0.273 A 
ATOM     18  C   UNL     1      11.668   8.697  21.373  0.00  0.00    +0.248 C 
ATOM     19  C   UNL     1      14.103  11.155  17.517  0.00  0.00    +0.099 A 
ATOM     20  C   UNL     1      14.765  11.703  18.540  0.00  0.00    +0.030 A 
ENDROOT
BRANCH  18  21
ATOM      7  N   UNL     1      10.820  11.552  23.639  0.00  0.00    -0.263 NA
ATOM     21  C   UNL     1      11.489  10.069  21.858  0.00  0.00    +0.055 A 
ATOM     22  C   UNL     1      11.796  11.154  21.051  0.00  0.00    +0.016 A 
ATOM     23  C   UNL     1      11.009  10.313  23.131  0.00  0.00    +0.123 A 
ATOM     26  C   UNL     1      11.614  12.444  21.538  0.00  0.00    +0.020 A 
ATOM     27  C   UNL     1      11.128  12.587  22.827  0.00  0.00    +0.111 A 
ENDBRANCH  18  21
BRANCH  19   6
ATOM      3  O   UNL     1      15.558  11.597  15.094  0.00  0.00    -0.274 OA
ATOM      6  N   UNL     1      13.684  11.887  16.444  0.00  0.00    -0.280 N 
ATOM     24  C   UNL     1      14.435  12.058  15.287  0.00  0.00    +0.231 C 
ATOM     30  H   UNL     1      12.892  12.506  16.596  0.00  0.00    +0.155 HD
BRANCH  24  25
ATOM     25  C   UNL     1      13.704  12.918  14.276  0.00  0.00    +0.180 C 
BRANCH  25   8
ATOM      8  N   UNL     1      13.318  12.094  13.140  0.00  0.00    -0.300 NA
ATOM     28  C   UNL     1      14.020  12.523  11.928  0.00  0.00    +0.105 C 
ATOM     29  C   UNL     1      11.870  12.147  12.930  0.00  0.00    +0.105 C 
ENDBRANCH  25   8
ENDBRANCH  24  25
ENDBRANCH  19   6
TORSDOF 4
ENDMDL
MODEL 2
REMARK VINA RESULT:      -6.1     27.273     29.545
REMARK  Name = 11887518
REMARK  6 active torsions:
REMARK  status: ('A' for Active; 'I' for Inactive)
REMARK    1  A    between atoms: N_6  and  C_19
REMARK    2  A    between atoms: N_8  and  C_25
REMARK    3  A    between atoms: N_8  and  C_28
REMARK    4  A    between atoms: N_8  and  C_29
REMARK    5  A    between atoms: C_18  and  C_21
REMARK    6  A    between atoms: C_24  and  C_25
REMARK                            x       y       z     vdW  Elec       q    Type
REMARK                         _______ _______ _______ _____ _____    ______ ____
ROOT
ATOM      1  O   UNL     1      -6.522  -9.663  13.653  0.00  0.00    -0.266 OA
ATOM      2  O   UNL     1      -5.197 -14.524  12.479  0.00  0.00    -0.270 OA
ATOM      4  N   UNL     1      -3.226 -13.326  12.874  0.00  0.00    -0.297 N 
ATOM      5  N   UNL     1      -4.334 -10.481  13.731  0.00  0.00    -0.310 N 
ATOM      9  C   UNL     1      -3.041 -11.178  11.632  0.00  0.00    +0.027 C 
ATOM     10  C   UNL     1      -1.993 -11.403  13.848  0.00  0.00    +0.054 C 
ATOM     11  C   UNL     1      -1.804 -10.820  12.448  0.00  0.00    +0.018 C 
ATOM     12  C   UNL     1      -3.207 -12.706  11.549  0.00  0.00    +0.113 C 
ATOM     13  C   UNL     1      -4.262 -10.497  12.262  0.00  0.00    +0.130 C 
ATOM     14  C   UNL     1      -2.114 -12.938  13.756  0.00  0.00    +0.117 C 
ATOM     15  C   UNL     1      -3.230 -10.832  14.514  0.00  0.00    +0.027 A 
ATOM     16  C   UNL     1      -3.280 -10.698  15.851  0.00  0.00    +0.024 A 
ATOM     17  C   UNL     1      -5.530  -9.999  14.301  0.00  0.00    +0.273 A 
ATOM     18  C   UNL     1      -4.266 -14.195  13.212  0.00  0.00    +0.248 C 
ATOM     19  C   UNL     1      -5.554  -9.892  15.795  0.00  0.00    +0.099 A 
ATOM     20  C   UNL     1      -4.467 -10.221  16.500  0.00  0.00    +0.030 A 
ENDROOT
BRANCH  18  21
ATOM      7  N   UNL     1      -3.633 -16.549  16.052  0.00  0.00    -0.263 NA
ATOM     21  C   UNL     1      -4.275 -14.762  14.564  0.00  0.00    +0.055 A 
ATOM     22  C   UNL     1      -4.901 -14.098  15.609  0.00  0.00    +0.016 A 
ATOM     23  C   UNL     1      -3.660 -15.971  14.830  0.00  0.00    +0.123 A 
ATOM     26  C   UNL     1      -4.894 -14.661  16.880  0.00  0.00    +0.020 A 
ATOM     27  C   UNL     1      -4.252 -15.877  17.048  0.00  0.00    +0.111 A 
ENDBRANCH  18  21
BRANCH  19   6
ATOM      3  O   UNL     1      -7.633 -11.520  16.896  0.00  0.00    -0.274 OA
ATOM      6  N   UNL     1      -6.700  -9.449  16.386  0.00  0.00    -0.280 N 
ATOM     24  C   UNL     1      -7.672 -10.291  16.913  0.00  0.00    +0.231 C 
ATOM     30  H   UNL     1      -6.945  -8.474  16.231  0.00  0.00    +0.155 HD
BRANCH  24  25
ATOM     25  C   UNL     1      -8.825  -9.504  17.503  0.00  0.00    +0.180 C 
BRANCH  25   8
ATOM      8  N   UNL     1      -9.381  -8.634  16.477  0.00  0.00    -0.300 NA
ATOM     28  C   UNL     1     -10.165  -7.555  17.083  0.00  0.00    +0.105 C 
ATOM     29  C   UNL     1     -10.212  -9.398  15.544  0.00  0.00    +0.105 C 
ENDBRANCH  25   8
ENDBRANCH  24  25
ENDBRANCH  19   6
TORSDOF 4
ENDMDL
MODEL 3
REMARK VINA RESULT:      -6.0     24.477     26.654
REMARK  Name = 11887518
REMARK  6 active torsions:
REMARK  status: ('A' for Active; 'I' for Inactive)
REMARK    1  A    between atoms: N_6  and  C_19
REMARK    2  A    between atoms: N_8  and  C_25
REMARK    3  A    between atoms: N_8  and  C_28
REMARK    4  A    between atoms: N_8  and  C_29
REMARK    5  A    between atoms: C_18  and  C_21
REMARK    6  A    between atoms: C_24  and  C_25
REMARK                            x       y       z     vdW  Elec       q    Type
REMARK                         _______ _______ _______ _____ _____    ______ ____
ROOT
ATOM      1  O   UNL     1     -13.643   8.663  17.692  0.00  0.00    -0.266 OA
ATOM      2  O   UNL     1     -16.095  10.568  21.829  0.00  0.00    -0.270 OA
ATOM      4  N   UNL     1     -15.571   8.332  22.281  0.00  0.00    -0.297 N 
ATOM      5  N   UNL     1     -13.946   7.491  19.691  0.00  0.00    -0.310 N 
ATOM      9  C   UNL     1     -16.247   6.721  20.509  0.00  0.00    +0.027 C 
ATOM     10  C   UNL     1     -14.249   6.270  21.873  0.00  0.00    +0.054 C 
ATOM     11  C   UNL     1     -15.469   5.621  21.222  0.00  0.00    +0.018 C 
ATOM     12  C   UNL     1     -16.696   7.798  21.513  0.00  0.00    +0.113 C 
ATOM     13  C   UNL     1     -15.372   7.301  19.391  0.00  0.00    +0.130 C 
ATOM     14  C   UNL     1     -14.711   7.317  22.908  0.00  0.00    +0.117 C 
ATOM     15  C   UNL     1     -13.365   6.935  20.835  0.00  0.00    +0.027 A 
ATOM     16  C   UNL     1     -12.038   7.021  21.030  0.00  0.00    +0.024 A 
ATOM     17  C   UNL     1     -13.180   8.171  18.722  0.00  0.00    +0.273 A 
ATOM     18  C   UNL     1     -15.379   9.714  22.351  0.00  0.00    +0.248 C 
ATOM     19  C   UNL     1     -11.709   8.270  18.991  0.00  0.00    +0.099 A 
ATOM     20  C   UNL     1     -11.198   7.704  20.089  0.00  0.00    +0.030 A 
ENDROOT
BRANCH  18  21
ATOM      7  N   UNL     1     -13.222  10.801  25.210  0.00  0.00    -0.263 NA
ATOM     21  C   UNL     1     -14.216  10.210  23.092  0.00  0.00    +0.055 A 
ATOM     22  C   UNL     1     -13.045  10.550  22.431  0.00  0.00    +0.016 A 
ATOM     23  C   UNL     1     -14.258  10.349  24.466  0.00  0.00    +0.123 A 
ATOM     26  C   UNL     1     -11.958  11.019  23.161  0.00  0.00    +0.020 A 
ATOM     27  C   UNL     1     -12.096  11.124  24.535  0.00  0.00    +0.111 A 
ENDBRANCH  18  21
BRANCH  19   6
ATOM      3  O   UNL     1     -10.899  11.008  19.146  0.00  0.00    -0.274 OA
ATOM      6  N   UNL     1     -10.937   8.936  18.086  0.00  0.00    -0.280 N 
ATOM     24  C   UNL     1     -10.567  10.269  18.222  0.00  0.00    +0.231 C 
ATOM     30  H   UNL     1     -10.819   8.497  17.176  0.00  0.00    +0.155 HD
BRANCH  24  25
ATOM     25  C   UNL     1      -9.709  10.726  17.059  0.00  0.00    +0.180 C 
BRANCH  25   8
ATOM      8  N   UNL     1      -9.981  12.129  16.788  0.00  0.00    -0.300 NA
ATOM     28  C   UNL     1     -10.739  12.278  15.543  0.00  0.00    +0.105 C 
ATOM     29  C   UNL     1      -8.736  12.895  16.715  0.00  0.00    +0.105 C 
ENDBRANCH  25   8
ENDBRANCH  24  25
ENDBRANCH  19   6
TORSDOF 4
ENDMDL
MODEL 4
REMARK VINA RESULT:      -5.9     10.828     13.469
REMARK  Name = 11887518
REMARK  6 active torsions:
REMARK  status: ('A' for Active; 'I' for Inactive)
REMARK    1  A    between atoms: N_6  and  C_19
REMARK    2  A    between atoms: N_8  and  C_25
REMARK    3  A    between atoms: N_8  and  C_28
REMARK    4  A    between atoms: N_8  and  C_29
REMARK    5  A    between atoms: C_18  and  C_21
REMARK    6  A    between atoms: C_24  and  C_25
REMARK                            x       y       z     vdW  Elec       q    Type
REMARK                         _______ _______ _______ _____ _____    ______ ____
ROOT
ATOM      1  O   UNL     1      12.670   7.276   3.451  0.00  0.00    -0.266 OA
ATOM      2  O   UNL     1       8.828   9.942   5.664  0.00  0.00    -0.270 OA
ATOM      4  N   UNL     1       9.047   7.919   6.820  0.00  0.00    -0.297 N 
ATOM      5  N   UNL     1      11.547   6.597   5.385  0.00  0.00    -0.310 N 
ATOM      9  C   UNL     1       9.085   5.890   5.380  0.00  0.00    +0.027 C 
ATOM     10  C   UNL     1      10.348   5.914   7.492  0.00  0.00    +0.054 C 
ATOM     11  C   UNL     1       9.471   5.047   6.590  0.00  0.00    +0.018 C 
ATOM     12  C   UNL     1       8.309   7.143   5.823  0.00  0.00    +0.113 C 
ATOM     13  C   UNL     1      10.356   6.245   4.598  0.00  0.00    +0.130 C 
ATOM     14  C   UNL     1       9.545   7.143   7.966  0.00  0.00    +0.117 C 
ATOM     15  C   UNL     1      11.598   6.370   6.764  0.00  0.00    +0.027 A 
ATOM     16  C   UNL     1      12.736   6.590   7.444  0.00  0.00    +0.024 A 
ATOM     17  C   UNL     1      12.662   7.076   4.667  0.00  0.00    +0.273 A 
ATOM     18  C   UNL     1       9.243   9.288   6.618  0.00  0.00    +0.248 C 
ATOM     19  C   UNL     1      13.902   7.335   5.467  0.00  0.00    +0.099 A 
ATOM     20  C   UNL     1      13.908   7.084   6.779  0.00  0.00    +0.030 A 
ENDROOT
BRANCH  18  21
ATOM      7  N   UNL     1      10.085  11.248   9.694  0.00  0.00    -0.263 NA
ATOM     21  C   UNL     1      10.026  10.023   7.616  0.00  0.00    +0.055 A 
ATOM     22  C   UNL     1      11.393  10.199   7.458  0.00  0.00    +0.016 A 
ATOM     23  C   UNL     1       9.421  10.559   8.737  0.00  0.00    +0.123 A 
ATOM     26  C   UNL     1      12.110  10.902   8.419  0.00  0.00    +0.020 A 
ATOM     27  C   UNL     1      11.415  11.401   9.509  0.00  0.00    +0.111 A 
ENDBRANCH  18  21
BRANCH  19   6
ATOM      3  O   UNL     1      14.737  10.068   5.346  0.00  0.00    -0.274 OA
ATOM      6  N   UNL     1      14.996   7.817   4.811  0.00  0.00    -0.280 N 
ATOM     24  C   UNL     1      15.357   9.160   4.797  0.00  0.00    +0.231 C 
ATOM     30  H   UNL     1      15.429   7.199   4.130  0.00  0.00    +0.155 HD
BRANCH  24  25
ATOM     25  C   UNL     1      16.618   9.385   3.987  0.00  0.00    +0.180 C 
BRANCH  25   8
ATOM      8  N   UNL     1      17.676   8.530   4.506  0.00  0.00    -0.300 NA
ATOM     28  C   UNL     1      18.252   9.104   5.725  0.00  0.00    +0.105 C 
ATOM     29  C   UNL     1      18.720   8.329   3.500  0.00  0.00    +0.105 C 
ENDBRANCH  25   8
ENDBRANCH  24  25
ENDBRANCH  19   6
TORSDOF 4
ENDMDL
MODEL 5
REMARK VINA RESULT:      -5.8     13.615     19.349
REMARK  Name = 11887518
REMARK  6 active torsions:
REMARK  status: ('A' for Active; 'I' for Inactive)
REMARK    1  A    between atoms: N_6  and  C_19
REMARK    2  A    between atoms: N_8  and  C_25
REMARK    3  A    between atoms: N_8  and  C_28
REMARK    4  A    between atoms: N_8  and  C_29
REMARK    5  A    between atoms: C_18  and  C_21
REMARK    6  A    between atoms: C_24  and  C_25
REMARK                            x       y       z     vdW  Elec       q    Type
REMARK                         _______ _______ _______ _____ _____    ______ ____
ROOT
ATOM      1  O   UNL     1      12.382   7.200   3.486  0.00  0.00    -0.266 OA
ATOM      2  O   UNL     1      13.199   7.513  -1.613  0.00  0.00    -0.270 OA
ATOM      4  N   UNL     1      13.835   5.369  -0.921  0.00  0.00    -0.297 N 
ATOM      5  N   UNL     1      13.069   5.406   2.155  0.00  0.00    -0.310 N 
ATOM      9  C   UNL     1      15.371   5.314   1.036  0.00  0.00    +0.027 C 
ATOM     10  C   UNL     1      13.767   3.480   0.689  0.00  0.00    +0.054 C 
ATOM     11  C   UNL     1      15.196   3.802   1.122  0.00  0.00    +0.018 C 
ATOM     12  C   UNL     1      15.134   5.801  -0.405  0.00  0.00    +0.113 C 
ATOM     13  C   UNL     1      14.417   5.980   2.035  0.00  0.00    +0.130 C 
ATOM     14  C   UNL     1      13.555   3.933  -0.770  0.00  0.00    +0.117 C 
ATOM     15  C   UNL     1      12.756   4.167   1.588  0.00  0.00    +0.027 A 
ATOM     16  C   UNL     1      11.555   3.606   1.809  0.00  0.00    +0.024 A 
ATOM     17  C   UNL     1      12.148   6.115   2.953  0.00  0.00    +0.273 A 
ATOM     18  C   UNL     1      12.970   6.312  -1.483  0.00  0.00    +0.248 C 
ATOM     19  C   UNL     1      10.810   5.469   3.150  0.00  0.00    +0.099 A 
ATOM     20  C   UNL     1      10.565   4.274   2.605  0.00  0.00    +0.030 A 
ENDROOT
BRANCH  18  21
ATOM      7  N   UNL     1      10.292   5.010  -3.751  0.00  0.00    -0.263 NA
ATOM     21  C   UNL     1      11.659   5.849  -1.949  0.00  0.00    +0.055 A 
ATOM     22  C   UNL     1      10.574   5.804  -1.086  0.00  0.00    +0.016 A 
ATOM     23  C   UNL     1      11.474   5.446  -3.258  0.00  0.00    +0.123 A 
ATOM     26  C   UNL     1       9.342   5.362  -1.556  0.00  0.00    +0.020 A 
ATOM     27  C   UNL     1       9.255   4.979  -2.884  0.00  0.00    +0.111 A 
ENDBRANCH  18  21
BRANCH  19   6
ATOM      3  O   UNL     1       9.898   4.732   5.759  0.00  0.00    -0.274 OA
ATOM      6  N   UNL     1       9.884   6.133   3.900  0.00  0.00    -0.280 N 
ATOM     24  C   UNL     1       9.488   5.729   5.170  0.00  0.00    +0.231 C 
ATOM     30  H   UNL     1       9.308   6.816   3.413  0.00  0.00    +0.155 HD
BRANCH  24  25
ATOM     25  C   UNL     1       8.447   6.668   5.748  0.00  0.00    +0.180 C 
BRANCH  25   8
ATOM      8  N   UNL     1       9.114   7.674   6.562  0.00  0.00    -0.300 NA
ATOM     28  C   UNL     1       8.854   7.441   7.985  0.00  0.00    +0.105 C 
ATOM     29  C   UNL     1       8.679   9.019   6.183  0.00  0.00    +0.105 C 
ENDBRANCH  25   8
ENDBRANCH  24  25
ENDBRANCH  19   6
TORSDOF 4
ENDMDL
MODEL 6
REMARK VINA RESULT:      -5.7     12.708     16.253
REMARK  Name = 11887518
REMARK  6 active torsions:
REMARK  status: ('A' for Active; 'I' for Inactive)
REMARK    1  A    between atoms: N_6  and  C_19
REMARK    2  A    between atoms: N_8  and  C_25
REMARK    3  A    between atoms: N_8  and  C_28
REMARK    4  A    between atoms: N_8  and  C_29
REMARK    5  A    between atoms: C_18  and  C_21
REMARK    6  A    between atoms: C_24  and  C_25
REMARK                            x       y       z     vdW  Elec       q    Type
REMARK                         _______ _______ _______ _____ _____    ______ ____
ROOT
ATOM      1  O   UNL     1       8.537   7.893   2.715  0.00  0.00    -0.266 OA
ATOM      2  O   UNL     1      11.664  10.305   6.056  0.00  0.00    -0.270 OA
ATOM      4  N   UNL     1      11.043   8.262   7.013  0.00  0.00    -0.297 N 
ATOM      5  N   UNL     1       9.306   6.947   4.709  0.00  0.00    -0.310 N 
ATOM      9  C   UNL     1       8.596   7.809   7.014  0.00  0.00    +0.027 C 
ATOM     10  C   UNL     1      10.186   5.938   6.842  0.00  0.00    +0.054 C 
ATOM     11  C   UNL     1       8.868   6.381   7.475  0.00  0.00    +0.018 C 
ATOM     12  C   UNL     1       9.735   8.743   7.460  0.00  0.00    +0.113 C 
ATOM     13  C   UNL     1       8.409   7.810   5.492  0.00  0.00    +0.130 C 
ATOM     14  C   UNL     1      11.327   6.854   7.330  0.00  0.00    +0.117 C 
ATOM     15  C   UNL     1      10.107   5.983   5.328  0.00  0.00    +0.027 A 
ATOM     16  C   UNL     1      10.830   5.126   4.587  0.00  0.00    +0.024 A 
ATOM     17  C   UNL     1       9.239   7.071   3.306  0.00  0.00    +0.273 A 
ATOM     18  C   UNL     1      11.896   9.128   6.323  0.00  0.00    +0.248 C 
ATOM     19  C   UNL     1      10.082   6.117   2.517  0.00  0.00    +0.099 A 
ATOM     20  C   UNL     1      10.816   5.199   3.153  0.00  0.00    +0.030 A 
ENDROOT
BRANCH  18  21
ATOM      7  N   UNL     1      14.420   7.415   4.155  0.00  0.00    -0.263 NA
ATOM     21  C   UNL     1      13.178   8.596   5.852  0.00  0.00    +0.055 A 
ATOM     22  C   UNL     1      14.331   8.750   6.608  0.00  0.00    +0.016 A 
ATOM     23  C   UNL     1      13.269   7.929   4.646  0.00  0.00    +0.123 A 
ATOM     26  C   UNL     1      15.534   8.235   6.137  0.00  0.00    +0.020 A 
ATOM     27  C   UNL     1      15.524   7.582   4.916  0.00  0.00    +0.111 A 
ENDBRANCH  18  21
BRANCH  19   6
ATOM      3  O   UNL     1       9.739   3.965   0.664  0.00  0.00    -0.274 OA
ATOM      6  N   UNL     1      10.059   6.218   1.157  0.00  0.00    -0.280 N 
ATOM     24  C   UNL     1       9.879   5.133   0.307  0.00  0.00    +0.231 C 
ATOM     30  H   UNL     1      10.410   7.085   0.758  0.00  0.00    +0.155 HD
BRANCH  24  25
ATOM     25  C   UNL     1       9.900   5.561  -1.147  0.00  0.00    +0.180 C 
BRANCH  25   8
ATOM      8  N   UNL     1       9.997   4.379  -1.990  0.00  0.00    -0.300 NA
ATOM     28  C   UNL     1      11.394   4.104  -2.336  0.00  0.00    +0.105 C 
ATOM     29  C   UNL     1       9.198   4.542  -3.207  0.00  0.00    +0.105 C 
ENDBRANCH  25   8
ENDBRANCH  24  25
ENDBRANCH  19   6
TORSDOF 4
ENDMDL
MODEL 7
REMARK VINA RESULT:      -5.7     12.316     14.429
REMARK  Name = 11887518
REMARK  6 active torsions:
REMARK  status: ('A' for Active; 'I' for Inactive)
REMARK    1  A    between atoms: N_6  and  C_19
REMARK    2  A    between atoms: N_8  and  C_25
REMARK    3  A    between atoms: N_8  and  C_28
REMARK    4  A    between atoms: N_8  and  C_29
REMARK    5  A    between atoms: C_18  and  C_21
REMARK    6  A    between atoms: C_24  and  C_25
REMARK                            x       y       z     vdW  Elec       q    Type
REMARK                         _______ _______ _______ _____ _____    ______ ____
ROOT
ATOM      1  O   UNL     1      13.849   6.932   6.949  0.00  0.00    -0.266 OA
ATOM      2  O   UNL     1      10.126   5.650   3.594  0.00  0.00    -0.270 OA
ATOM      4  N   UNL     1       9.089   6.399   5.554  0.00  0.00    -0.297 N 
ATOM      5  N   UNL     1      11.568   7.269   7.330  0.00  0.00    -0.310 N 
ATOM      9  C   UNL     1       9.917   5.336   7.646  0.00  0.00    +0.027 C 
ATOM     10  C   UNL     1       9.106   7.660   7.692  0.00  0.00    +0.054 C 
ATOM     11  C   UNL     1       9.115   6.342   8.465  0.00  0.00    +0.018 C 
ATOM     12  C   UNL     1       9.270   5.133   6.264  0.00  0.00    +0.113 C 
ATOM     13  C   UNL     1      11.366   5.828   7.540  0.00  0.00    +0.130 C 
ATOM     14  C   UNL     1       8.417   7.454   6.328  0.00  0.00    +0.117 C 
ATOM     15  C   UNL     1      10.516   8.178   7.479  0.00  0.00    +0.027 A 
ATOM     16  C   UNL     1      10.747   9.499   7.398  0.00  0.00    +0.024 A 
ATOM     17  C   UNL     1      12.888   7.692   7.073  0.00  0.00    +0.273 A 
ATOM     18  C   UNL     1       9.565   6.528   4.246  0.00  0.00    +0.248 C 
ATOM     19  C   UNL     1      13.098   9.171   6.961  0.00  0.00    +0.099 A 
ATOM     20  C   UNL     1      12.065  10.002   7.132  0.00  0.00    +0.030 A 
ENDROOT
BRANCH  18  21
ATOM      7  N   UNL     1      10.277  10.029   3.132  0.00  0.00    -0.263 NA
ATOM     21  C   UNL     1       9.405   7.826   3.583  0.00  0.00    +0.055 A 
ATOM     22  C   UNL     1       8.286   8.094   2.808  0.00  0.00    +0.016 A 
ATOM     23  C   UNL     1      10.363   8.812   3.715  0.00  0.00    +0.123 A 
ATOM     26  C   UNL     1       8.161   9.334   2.192  0.00  0.00    +0.020 A 
ATOM     27  C   UNL     1       9.175  10.258   2.383  0.00  0.00    +0.111 A 
ENDBRANCH  18  21
BRANCH  19   6
ATOM      3  O   UNL     1      14.166   9.787   4.380  0.00  0.00    -0.274 OA
ATOM      6  N   UNL     1      14.358   9.620   6.694  0.00  0.00    -0.280 N 
ATOM     24  C   UNL     1      14.817   9.912   5.415  0.00  0.00    +0.231 C 
ATOM     30  H   UNL     1      15.045   9.520   7.438  0.00  0.00    +0.155 HD
BRANCH  24  25
ATOM     25  C   UNL     1      16.256  10.390   5.440  0.00  0.00    +0.180 C 
BRANCH  25   8
ATOM      8  N   UNL     1      17.123   9.270   5.772  0.00  0.00    -0.300 NA
ATOM     28  C   UNL     1      18.398   9.746   6.314  0.00  0.00    +0.105 C 
ATOM     29  C   UNL     1      17.357   8.428   4.597  0.00  0.00    +0.105 C 
ENDBRANCH  25   8
ENDBRANCH  24  25
ENDBRANCH  19   6
TORSDOF 4
ENDMDL
MODEL 8
REMARK VINA RESULT:      -5.6     12.006     15.644
REMARK  Name = 11887518
REMARK  6 active torsions:
REMARK  status: ('A' for Active; 'I' for Inactive)
REMARK    1  A    between atoms: N_6  and  C_19
REMARK    2  A    between atoms: N_8  and  C_25
REMARK    3  A    between atoms: N_8  and  C_28
REMARK    4  A    between atoms: N_8  and  C_29
REMARK    5  A    between atoms: C_18  and  C_21
REMARK    6  A    between atoms: C_24  and  C_25
REMARK                            x       y       z     vdW  Elec       q    Type
REMARK                         _______ _______ _______ _____ _____    ______ ____
ROOT
ATOM      1  O   UNL     1      12.779   8.343   3.402  0.00  0.00    -0.266 OA
ATOM      2  O   UNL     1      10.686   8.834   8.107  0.00  0.00    -0.270 OA
ATOM      4  N   UNL     1       8.935   8.645   6.567  0.00  0.00    -0.297 N 
ATOM      5  N   UNL     1      10.489   8.184   3.842  0.00  0.00    -0.310 N 
ATOM      9  C   UNL     1       9.087  10.183   4.617  0.00  0.00    +0.027 C 
ATOM     10  C   UNL     1       8.032   7.975   4.353  0.00  0.00    +0.054 C 
ATOM     11  C   UNL     1       7.928   9.446   3.954  0.00  0.00    +0.018 C 
ATOM     12  C   UNL     1       9.006  10.045   6.148  0.00  0.00    +0.113 C 
ATOM     13  C   UNL     1      10.406   9.636   4.056  0.00  0.00    +0.130 C 
ATOM     14  C   UNL     1       7.906   7.845   5.885  0.00  0.00    +0.117 C 
ATOM     15  C   UNL     1       9.349   7.377   3.897  0.00  0.00    +0.027 A 
ATOM     16  C   UNL     1       9.428   6.072   3.583  0.00  0.00    +0.024 A 
ATOM     17  C   UNL     1      11.751   7.669   3.480  0.00  0.00    +0.273 A 
ATOM     18  C   UNL     1       9.825   8.170   7.534  0.00  0.00    +0.248 C 
ATOM     19  C   UNL     1      11.802   6.205   3.166  0.00  0.00    +0.099 A 
ATOM     20  C   UNL     1      10.681   5.479   3.213  0.00  0.00    +0.030 A 
ENDROOT
BRANCH  18  21
ATOM      7  N   UNL     1       9.051   5.060   9.466  0.00  0.00    -0.263 NA
ATOM     21  C   UNL     1       9.752   6.751   7.895  0.00  0.00    +0.055 A 
ATOM     22  C   UNL     1      10.287   5.778   7.064  0.00  0.00    +0.016 A 
ATOM     23  C   UNL     1       9.150   6.350   9.073  0.00  0.00    +0.123 A 
ATOM     26  C   UNL     1      10.205   4.440   7.434  0.00  0.00    +0.020 A 
ATOM     27  C   UNL     1       9.583   4.136   8.634  0.00  0.00    +0.111 A 
ENDBRANCH  18  21
BRANCH  19   6
ATOM      3  O   UNL     1      12.421   4.818   0.743  0.00  0.00    -0.274 OA
ATOM      6  N   UNL     1      13.008   5.665   2.830  0.00  0.00    -0.280 N 
ATOM     24  C   UNL     1      13.251   5.008   1.629  0.00  0.00    +0.231 C 
ATOM     30  H   UNL     1      13.681   5.549   3.584  0.00  0.00    +0.155 HD
BRANCH  24  25
ATOM     25  C   UNL     1      14.684   4.521   1.546  0.00  0.00    +0.180 C 
BRANCH  25   8
ATOM      8  N   UNL     1      15.289   5.027   0.323  0.00  0.00    -0.300 NA
ATOM     28  C   UNL     1      16.239   4.056  -0.224  0.00  0.00    +0.105 C 
ATOM     29  C   UNL     1      15.957   6.306   0.567  0.00  0.00    +0.105 C 
ENDBRANCH  25   8
ENDBRANCH  24  25
ENDBRANCH  19   6
TORSDOF 4
ENDMDL
MODEL 9
REMARK VINA RESULT:      -5.6     28.205     30.426
REMARK  Name = 11887518
REMARK  6 active torsions:
REMARK  status: ('A' for Active; 'I' for Inactive)
REMARK    1  A    between atoms: N_6  and  C_19
REMARK    2  A    between atoms: N_8  and  C_25
REMARK    3  A    between atoms: N_8  and  C_28
REMARK    4  A    between atoms: N_8  and  C_29
REMARK    5  A    between atoms: C_18  and  C_21
REMARK    6  A    between atoms: C_24  and  C_25
REMARK                            x       y       z     vdW  Elec       q    Type
REMARK                         _______ _______ _______ _____ _____    ______ ____
ROOT
ATOM      1  O   UNL     1      -6.104 -13.818  16.175  0.00  0.00    -0.266 OA
ATOM      2  O   UNL     1     -11.031 -12.261  15.926  0.00  0.00    -0.270 OA
ATOM      4  N   UNL     1     -10.451 -12.422  18.187  0.00  0.00    -0.297 N 
ATOM      5  N   UNL     1      -7.382 -13.206  18.034  0.00  0.00    -0.310 N 
ATOM      9  C   UNL     1      -9.390 -14.574  18.844  0.00  0.00    +0.027 C 
ATOM     10  C   UNL     1      -8.770 -12.499  20.013  0.00  0.00    +0.054 C 
ATOM     11  C   UNL     1      -9.060 -13.987  20.211  0.00  0.00    +0.018 C 
ATOM     12  C   UNL     1     -10.621 -13.874  18.241  0.00  0.00    +0.113 C 
ATOM     13  C   UNL     1      -8.156 -14.453  17.942  0.00  0.00    +0.130 C 
ATOM     14  C   UNL     1     -10.024 -11.800  19.450  0.00  0.00    +0.117 C 
ATOM     15  C   UNL     1      -7.602 -12.291  19.068  0.00  0.00    +0.027 A 
ATOM     16  C   UNL     1      -6.806 -11.217  19.201  0.00  0.00    +0.024 A 
ATOM     17  C   UNL     1      -6.347 -13.032  17.092  0.00  0.00    +0.273 A 
ATOM     18  C   UNL     1     -10.674 -11.747  16.984  0.00  0.00    +0.248 C 
ATOM     19  C   UNL     1      -5.501 -11.807  17.259  0.00  0.00    +0.099 A 
ATOM     20  C   UNL     1      -5.737 -10.973  18.276  0.00  0.00    +0.030 A 
ENDROOT
BRANCH  18  21
ATOM      7  N   UNL     1      -8.913  -8.456  16.700  0.00  0.00    -0.263 NA
ATOM     21  C   UNL     1     -10.450 -10.298  16.957  0.00  0.00    +0.055 A 
ATOM     22  C   UNL     1     -11.500  -9.413  17.155  0.00  0.00    +0.016 A 
ATOM     23  C   UNL     1      -9.188  -9.780  16.736  0.00  0.00    +0.123 A 
ATOM     26  C   UNL     1     -11.257  -8.045  17.126  0.00  0.00    +0.020 A 
ATOM     27  C   UNL     1      -9.958  -7.621  16.897  0.00  0.00    +0.111 A 
ENDBRANCH  18  21
BRANCH  19   6
ATOM      3  O   UNL     1      -5.527  -9.911  15.118  0.00  0.00    -0.274 OA
ATOM      6  N   UNL     1      -4.500 -11.593  16.357  0.00  0.00    -0.280 N 
ATOM     24  C   UNL     1      -4.568 -10.647  15.341  0.00  0.00    +0.231 C 
ATOM     30  H   UNL     1      -3.779 -12.308  16.297  0.00  0.00    +0.155 HD
BRANCH  24  25
ATOM     25  C   UNL     1      -3.305 -10.644  14.503  0.00  0.00    +0.180 C 
BRANCH  25   8
ATOM      8  N   UNL     1      -2.275 -11.408  15.192  0.00  0.00    -0.300 NA
ATOM     28  C   UNL     1      -1.228 -10.521  15.703  0.00  0.00    +0.105 C 
ATOM     29  C   UNL     1      -1.694 -12.415  14.302  0.00  0.00    +0.105 C 
ENDBRANCH  25   8
ENDBRANCH  24  25
ENDBRANCH  19   6
TORSDOF 4
ENDMDL
MODEL 10
REMARK VINA RESULT:      -5.5     14.280     17.889
REMARK  Name = 11887518
REMARK  6 active torsions:
REMARK  status: ('A' for Active; 'I' for Inactive)
REMARK    1  A    between atoms: N_6  and  C_19
REMARK    2  A    between atoms: N_8  and  C_25
REMARK    3  A    between atoms: N_8  and  C_28
REMARK    4  A    between atoms: N_8  and  C_29
REMARK    5  A    between atoms: C_18  and  C_21
REMARK    6  A    between atoms: C_24  and  C_25
REMARK                            x       y       z     vdW  Elec       q    Type
REMARK                         _______ _______ _______ _____ _____    ______ ____
ROOT
ATOM      1  O   UNL     1      19.837  -4.856  21.524  0.00  0.00    -0.266 OA
ATOM      2  O   UNL     1      20.373  -1.208  25.153  0.00  0.00    -0.270 OA
ATOM      4  N   UNL     1      18.099  -1.743  25.014  0.00  0.00    -0.297 N 
ATOM      5  N   UNL     1      18.094  -4.088  22.879  0.00  0.00    -0.310 N 
ATOM      9  C   UNL     1      17.155  -1.711  22.712  0.00  0.00    +0.027 C 
ATOM     10  C   UNL     1      16.247  -3.272  24.384  0.00  0.00    +0.054 C 
ATOM     11  C   UNL     1      15.868  -2.334  23.238  0.00  0.00    +0.018 C 
ATOM     12  C   UNL     1      17.865  -0.922  23.827  0.00  0.00    +0.113 C 
ATOM     13  C   UNL     1      18.043  -2.821  22.135  0.00  0.00    +0.130 C 
ATOM     14  C   UNL     1      16.917  -2.463  25.513  0.00  0.00    +0.117 C 
ATOM     15  C   UNL     1      17.188  -4.362  23.908  0.00  0.00    +0.027 A 
ATOM     16  C   UNL     1      17.177  -5.571  24.496  0.00  0.00    +0.024 A 
ATOM     17  C   UNL     1      19.030  -5.045  22.436  0.00  0.00    +0.273 A 
ATOM     18  C   UNL     1      19.382  -1.808  25.565  0.00  0.00    +0.248 C 
ATOM     19  C   UNL     1      19.004  -6.369  23.136  0.00  0.00    +0.099 A 
ATOM     20  C   UNL     1      18.106  -6.591  24.100  0.00  0.00    +0.030 A 
ENDROOT
BRANCH  18  21
ATOM      7  N   UNL     1      19.712  -2.914  29.125  0.00  0.00    -0.263 NA
ATOM     21  C   UNL     1      19.587  -2.677  26.727  0.00  0.00    +0.055 A 
ATOM     22  C   UNL     1      19.843  -4.031  26.566  0.00  0.00    +0.016 A 
ATOM     23  C   UNL     1      19.531  -2.169  28.011  0.00  0.00    +0.123 A 
ATOM     26  C   UNL     1      20.035  -4.830  27.687  0.00  0.00    +0.020 A 
ATOM     27  C   UNL     1      19.960  -4.229  28.933  0.00  0.00    +0.111 A 
ENDBRANCH  18  21
BRANCH  19   6
ATOM      3  O   UNL     1      21.572  -6.839  24.306  0.00  0.00    -0.274 OA
ATOM      6  N   UNL     1      19.907  -7.315  22.749  0.00  0.00    -0.280 N 
ATOM     24  C   UNL     1      21.139  -7.502  23.366  0.00  0.00    +0.231 C 
ATOM     30  H   UNL     1      19.758  -7.742  21.838  0.00  0.00    +0.155 HD
BRANCH  24  25
ATOM     25  C   UNL     1      21.918  -8.627  22.713  0.00  0.00    +0.180 C 
BRANCH  25   8
ATOM      8  N   UNL     1      23.019  -9.011  23.585  0.00  0.00    -0.300 NA
ATOM     28  C   UNL     1      24.277  -9.062  22.837  0.00  0.00    +0.105 C 
ATOM     29  C   UNL     1      22.753 -10.306  24.215  0.00  0.00    +0.105 C 
ENDBRANCH  25   8
ENDBRANCH  24  25
ENDBRANCH  19   6
TORSDOF 4
ENDMDL
