MODEL 1
REMARK VINA RESULT:      -6.6      0.000      0.000
REMARK  Name = 40722264
REMARK  8 active torsions:
REMARK  status: ('A' for Active; 'I' for Inactive)
REMARK    1  A    between atoms: O_2  and  C_23
REMARK    2  A    between atoms: O_2  and  C_32
REMARK    3  A    between atoms: N_4  and  C_16
REMARK    4  A    between atoms: N_5  and  C_19
REMARK    5  A    between atoms: C_10  and  C_16
REMARK    6  A    between atoms: C_11  and  C_17
REMARK    7  A    between atoms: C_19  and  C_21
REMARK    8  A    between atoms: C_20  and  C_22
REMARK                            x       y       z     vdW  Elec       q    Type
REMARK                         _______ _______ _______ _____ _____    ______ ____
ROOT
ATOM      3  N   UNL     1      -6.243 -10.432  17.409  0.00  0.00    -0.297 NA
ATOM      9  C   UNL     1      -4.258 -12.101  17.620  0.00  0.00    +0.005 C 
ATOM     10  C   UNL     1      -6.707 -11.814  17.110  0.00  0.00    +0.078 C 
ATOM     11  C   UNL     1      -3.900 -10.924  16.694  0.00  0.00    +0.092 C 
ATOM     12  C   UNL     1      -5.520 -12.802  17.079  0.00  0.00    +0.025 C 
ATOM     13  C   UNL     1      -4.621 -11.497  18.988  0.00  0.00    +0.020 C 
ATOM     14  C   UNL     1      -5.148 -10.047  16.486  0.00  0.00    +0.097 C 
ATOM     15  C   UNL     1      -5.707 -10.422  18.793  0.00  0.00    +0.085 C 
ENDROOT
BRANCH  11  17
ATOM      1  O   UNL     1      -2.174 -11.774  15.280  0.00  0.00    -0.275 OA
ATOM      5  N   UNL     1      -4.268 -11.331  14.362  0.00  0.00    -0.311 N 
ATOM     17  C   UNL     1      -3.339 -11.397  15.386  0.00  0.00    +0.218 C 
ATOM     33  H   UNL     1      -5.206 -10.999  14.561  0.00  0.00    +0.149 HD
BRANCH   5  19
ATOM     19  C   UNL     1      -3.970 -11.709  12.999  0.00  0.00    +0.143 C 
BRANCH  19  21
ATOM     21  C   UNL     1      -4.172 -10.569  12.043  0.00  0.00    +0.011 A 
ATOM     23  C   UNL     1      -5.383  -9.877  12.006  0.00  0.00    +0.125 A 
ATOM     24  C   UNL     1      -3.134 -10.205  11.187  0.00  0.00    +0.009 A 
ATOM     26  C   UNL     1      -5.554  -8.820  11.110  0.00  0.00    +0.046 A 
ATOM     27  C   UNL     1      -3.305  -9.149  10.293  0.00  0.00    +0.001 A 
ATOM     28  C   UNL     1      -4.516  -8.456  10.254  0.00  0.00    +0.004 A 
BRANCH  23   2
ATOM      2  O   UNL     1      -6.409 -10.219  12.834  0.00  0.00    -0.495 OA
ATOM     32  C   UNL     1      -7.539 -10.851  12.237  0.00  0.00    +0.277 C 
ENDBRANCH  23   2
ENDBRANCH  19  21
ENDBRANCH   5  19
ENDBRANCH  11  17
BRANCH  10  16
ATOM     16  C   UNL     1      -7.542 -11.884  15.830  0.00  0.00    +0.164 C 
BRANCH  16   4
ATOM      4  N   UNL     1      -8.760 -11.008  15.917  0.00  0.00    -0.250 N 
ATOM      6  N   UNL     1      -9.878 -11.449  16.517  0.00  0.00    -0.065 NA
ATOM      7  N   UNL     1     -10.776 -10.471  16.443  0.00  0.00    -0.128 NA
ATOM     18  C   UNL     1      -8.909  -9.741  15.445  0.00  0.00    +0.140 A 
ATOM     20  C   UNL     1     -10.197  -9.419  15.789  0.00  0.00    +0.131 A 
BRANCH  20  22
ATOM      8  N   UNL     1     -11.576  -8.139  14.375  0.00  0.00    -0.253 NA
ATOM     22  C   UNL     1     -10.847  -8.178  15.513  0.00  0.00    +0.092 A 
ATOM     25  C   UNL     1     -10.710  -7.108  16.383  0.00  0.00    +0.030 A 
ATOM     29  C   UNL     1     -11.362  -5.923  16.065  0.00  0.00    +0.004 A 
ATOM     30  C   UNL     1     -12.197  -6.970  14.099  0.00  0.00    +0.111 A 
ATOM     31  C   UNL     1     -12.122  -5.844  14.903  0.00  0.00    +0.020 A 
ENDBRANCH  20  22
ENDBRANCH  16   4
ENDBRANCH  10  16
TORSDOF 7
ENDMDL
MODEL 2
REMARK VINA RESULT:      -6.4     24.468     26.809
REMARK  Name = 40722264
REMARK  8 active torsions:
REMARK  status: ('A' for Active; 'I' for Inactive)
REMARK    1  A    between atoms: O_2  and  C_23
REMARK    2  A    between atoms: O_2  and  C_32
REMARK    3  A    between atoms: N_4  and  C_16
REMARK    4  A    between atoms: N_5  and  C_19
REMARK    5  A    between atoms: C_10  and  C_16
REMARK    6  A    between atoms: C_11  and  C_17
REMARK    7  A    between atoms: C_19  and  C_21
REMARK    8  A    between atoms: C_20  and  C_22
REMARK                            x       y       z     vdW  Elec       q    Type
REMARK                         _______ _______ _______ _____ _____    ______ ____
ROOT
ATOM      3  N   UNL     1      10.843   7.027   7.158  0.00  0.00    -0.297 NA
ATOM      9  C   UNL     1       9.370   5.140   6.136  0.00  0.00    +0.005 C 
ATOM     10  C   UNL     1       9.458   7.525   6.939  0.00  0.00    +0.078 C 
ATOM     11  C   UNL     1      10.664   5.338   5.325  0.00  0.00    +0.092 C 
ATOM     12  C   UNL     1       8.603   6.477   6.194  0.00  0.00    +0.025 C 
ATOM     13  C   UNL     1       9.795   4.793   7.574  0.00  0.00    +0.020 C 
ATOM     14  C   UNL     1      11.427   6.555   5.878  0.00  0.00    +0.097 C 
ATOM     15  C   UNL     1      10.768   5.871   8.086  0.00  0.00    +0.085 C 
ENDROOT
BRANCH  11  17
ATOM      1  O   UNL     1       9.964   6.540   3.384  0.00  0.00    -0.275 OA
ATOM      5  N   UNL     1      10.629   4.320   3.156  0.00  0.00    -0.311 N 
ATOM     17  C   UNL     1      10.382   5.488   3.859  0.00  0.00    +0.218 C 
ATOM     33  H   UNL     1      10.971   3.503   3.651  0.00  0.00    +0.149 HD
BRANCH   5  19
ATOM     19  C   UNL     1      10.415   4.196   1.732  0.00  0.00    +0.143 C 
BRANCH  19  21
ATOM     21  C   UNL     1      11.704   4.008   0.985  0.00  0.00    +0.011 A 
ATOM     23  C   UNL     1      11.709   3.887  -0.406  0.00  0.00    +0.125 A 
ATOM     24  C   UNL     1      12.903   3.954   1.694  0.00  0.00    +0.009 A 
ATOM     26  C   UNL     1      12.916   3.712  -1.084  0.00  0.00    +0.046 A 
ATOM     27  C   UNL     1      14.108   3.780   1.015  0.00  0.00    +0.001 A 
ATOM     28  C   UNL     1      14.115   3.658  -0.375  0.00  0.00    +0.004 A 
BRANCH  23   2
ATOM      2  O   UNL     1      10.548   3.936  -1.115  0.00  0.00    -0.495 OA
ATOM     32  C   UNL     1      10.387   5.026  -2.019  0.00  0.00    +0.277 C 
ENDBRANCH  23   2
ENDBRANCH  19  21
ENDBRANCH   5  19
ENDBRANCH  11  17
BRANCH  10  16
ATOM     16  C   UNL     1       9.432   8.885   6.237  0.00  0.00    +0.164 C 
BRANCH  16   4
ATOM      4  N   UNL     1       9.417  10.016   7.228  0.00  0.00    -0.250 N 
ATOM      6  N   UNL     1       9.165  11.273   6.827  0.00  0.00    -0.065 NA
ATOM      7  N   UNL     1       9.216  12.047   7.906  0.00  0.00    -0.128 NA
ATOM     18  C   UNL     1       9.636   9.950   8.569  0.00  0.00    +0.140 A 
ATOM     20  C   UNL     1       9.504  11.252   8.980  0.00  0.00    +0.131 A 
BRANCH  20  22
ATOM      8  N   UNL     1      10.913  11.839  10.771  0.00  0.00    -0.253 NA
ATOM     22  C   UNL     1       9.644  11.719  10.322  0.00  0.00    +0.092 A 
ATOM     25  C   UNL     1       8.522  12.017  11.080  0.00  0.00    +0.030 A 
ATOM     29  C   UNL     1       8.715  12.466  12.381  0.00  0.00    +0.004 A 
ATOM     30  C   UNL     1      11.062  12.279  12.041  0.00  0.00    +0.111 A 
ATOM     31  C   UNL     1      10.007  12.602  12.879  0.00  0.00    +0.020 A 
ENDBRANCH  20  22
ENDBRANCH  16   4
ENDBRANCH  10  16
TORSDOF 7
ENDMDL
MODEL 3
REMARK VINA RESULT:      -6.4     24.333     27.190
REMARK  Name = 40722264
REMARK  8 active torsions:
REMARK  status: ('A' for Active; 'I' for Inactive)
REMARK    1  A    between atoms: O_2  and  C_23
REMARK    2  A    between atoms: O_2  and  C_32
REMARK    3  A    between atoms: N_4  and  C_16
REMARK    4  A    between atoms: N_5  and  C_19
REMARK    5  A    between atoms: C_10  and  C_16
REMARK    6  A    between atoms: C_11  and  C_17
REMARK    7  A    between atoms: C_19  and  C_21
REMARK    8  A    between atoms: C_20  and  C_22
REMARK                            x       y       z     vdW  Elec       q    Type
REMARK                         _______ _______ _______ _____ _____    ______ ____
ROOT
ATOM      3  N   UNL     1       9.312   5.228   5.128  0.00  0.00    -0.297 NA
ATOM      9  C   UNL     1      10.189   6.927   6.892  0.00  0.00    +0.005 C 
ATOM     10  C   UNL     1      10.543   5.895   4.623  0.00  0.00    +0.078 C 
ATOM     11  C   UNL     1       8.700   7.166   6.581  0.00  0.00    +0.092 C 
ATOM     12  C   UNL     1      10.997   7.016   5.582  0.00  0.00    +0.025 C 
ATOM     13  C   UNL     1      10.310   5.483   7.408  0.00  0.00    +0.020 C 
ATOM     14  C   UNL     1       8.268   6.237   5.432  0.00  0.00    +0.097 C 
ATOM     15  C   UNL     1       9.661   4.527   6.389  0.00  0.00    +0.085 C 
ENDROOT
BRANCH  11  17
ATOM      1  O   UNL     1       8.897   9.521   6.922  0.00  0.00    -0.275 OA
ATOM      5  N   UNL     1       7.582   8.742   5.165  0.00  0.00    -0.311 N 
ATOM     17  C   UNL     1       8.423   8.603   6.256  0.00  0.00    +0.218 C 
ATOM     33  H   UNL     1       7.244   7.912   4.688  0.00  0.00    +0.149 HD
BRANCH   5  19
ATOM     19  C   UNL     1       7.144  10.024   4.663  0.00  0.00    +0.143 C 
BRANCH  19  21
ATOM     21  C   UNL     1       6.584   9.922   3.273  0.00  0.00    +0.011 A 
ATOM     23  C   UNL     1       7.418   9.654   2.187  0.00  0.00    +0.125 A 
ATOM     24  C   UNL     1       5.215  10.100   3.075  0.00  0.00    +0.009 A 
ATOM     26  C   UNL     1       6.880   9.563   0.903  0.00  0.00    +0.046 A 
ATOM     27  C   UNL     1       4.679  10.009   1.791  0.00  0.00    +0.001 A 
ATOM     28  C   UNL     1       5.512   9.741   0.704  0.00  0.00    +0.004 A 
BRANCH  23   2
ATOM      2  O   UNL     1       8.757   9.479   2.362  0.00  0.00    -0.495 OA
ATOM     32  C   UNL     1       9.548   9.322   1.187  0.00  0.00    +0.277 C 
ENDBRANCH  23   2
ENDBRANCH  19  21
ENDBRANCH   5  19
ENDBRANCH  11  17
BRANCH  10  16
ATOM     16  C   UNL     1      10.383   6.402   3.188  0.00  0.00    +0.164 C 
BRANCH  16   4
ATOM      4  N   UNL     1      10.885   5.397   2.189  0.00  0.00    -0.250 N 
ATOM      6  N   UNL     1      11.713   4.410   2.568  0.00  0.00    -0.065 NA
ATOM      7  N   UNL     1      11.984   3.687   1.487  0.00  0.00    -0.128 NA
ATOM     18  C   UNL     1      10.603   5.333   0.859  0.00  0.00    +0.140 A 
ATOM     20  C   UNL     1      11.312   4.239   0.433  0.00  0.00    +0.131 A 
BRANCH  20  22
ATOM      8  N   UNL     1      10.294   4.071  -1.682  0.00  0.00    -0.253 NA
ATOM     22  C   UNL     1      11.351   3.744  -0.906  0.00  0.00    +0.092 A 
ATOM     25  C   UNL     1      12.422   2.978  -1.338  0.00  0.00    +0.030 A 
ATOM     29  C   UNL     1      12.408   2.521  -2.650  0.00  0.00    +0.004 A 
ATOM     30  C   UNL     1      10.315   3.609  -2.953  0.00  0.00    +0.111 A 
ATOM     31  C   UNL     1      11.338   2.837  -3.480  0.00  0.00    +0.020 A 
ENDBRANCH  20  22
ENDBRANCH  16   4
ENDBRANCH  10  16
TORSDOF 7
ENDMDL
MODEL 4
REMARK VINA RESULT:      -6.4      2.088      3.034
REMARK  Name = 40722264
REMARK  8 active torsions:
REMARK  status: ('A' for Active; 'I' for Inactive)
REMARK    1  A    between atoms: O_2  and  C_23
REMARK    2  A    between atoms: O_2  and  C_32
REMARK    3  A    between atoms: N_4  and  C_16
REMARK    4  A    between atoms: N_5  and  C_19
REMARK    5  A    between atoms: C_10  and  C_16
REMARK    6  A    between atoms: C_11  and  C_17
REMARK    7  A    between atoms: C_19  and  C_21
REMARK    8  A    between atoms: C_20  and  C_22
REMARK                            x       y       z     vdW  Elec       q    Type
REMARK                         _______ _______ _______ _____ _____    ______ ____
ROOT
ATOM      3  N   UNL     1      -7.050 -11.032  18.900  0.00  0.00    -0.297 NA
ATOM      9  C   UNL     1      -6.041 -12.383  16.917  0.00  0.00    +0.005 C 
ATOM     10  C   UNL     1      -7.720 -10.646  17.629  0.00  0.00    +0.078 C 
ATOM     11  C   UNL     1      -4.937 -11.690  17.738  0.00  0.00    +0.092 C 
ATOM     12  C   UNL     1      -7.039 -11.319  16.417  0.00  0.00    +0.025 C 
ATOM     13  C   UNL     1      -6.802 -13.305  17.885  0.00  0.00    +0.020 C 
ATOM     14  C   UNL     1      -5.589 -10.791  18.804  0.00  0.00    +0.097 C 
ATOM     15  C   UNL     1      -7.266 -12.486  19.104  0.00  0.00    +0.085 C 
ENDROOT
BRANCH  11  17
ATOM      1  O   UNL     1      -4.170  -9.717  16.634  0.00  0.00    -0.275 OA
ATOM      5  N   UNL     1      -2.980 -11.699  16.357  0.00  0.00    -0.311 N 
ATOM     17  C   UNL     1      -4.000 -10.912  16.863  0.00  0.00    +0.218 C 
ATOM     33  H   UNL     1      -2.936 -12.681  16.608  0.00  0.00    +0.149 HD
BRANCH   5  19
ATOM     19  C   UNL     1      -1.958 -11.193  15.469  0.00  0.00    +0.143 C 
BRANCH  19  21
ATOM     21  C   UNL     1      -2.298 -11.433  14.026  0.00  0.00    +0.011 A 
ATOM     23  C   UNL     1      -2.564 -12.722  13.563  0.00  0.00    +0.125 A 
ATOM     24  C   UNL     1      -2.345 -10.352  13.147  0.00  0.00    +0.009 A 
ATOM     26  C   UNL     1      -2.877 -12.928  12.219  0.00  0.00    +0.046 A 
ATOM     27  C   UNL     1      -2.658 -10.558  11.804  0.00  0.00    +0.001 A 
ATOM     28  C   UNL     1      -2.925 -11.847  11.340  0.00  0.00    +0.004 A 
BRANCH  23   2
ATOM      2  O   UNL     1      -2.521 -13.790  14.407  0.00  0.00    -0.495 OA
ATOM     32  C   UNL     1      -1.948 -14.993  13.901  0.00  0.00    +0.277 C 
ENDBRANCH  23   2
ENDBRANCH  19  21
ENDBRANCH   5  19
ENDBRANCH  11  17
BRANCH  10  16
ATOM     16  C   UNL     1      -7.817  -9.129  17.459  0.00  0.00    +0.164 C 
BRANCH  16   4
ATOM      4  N   UNL     1      -9.233  -8.692  17.207  0.00  0.00    -0.250 N 
ATOM      6  N   UNL     1     -10.232  -9.116  17.998  0.00  0.00    -0.065 NA
ATOM      7  N   UNL     1     -11.355  -8.573  17.541  0.00  0.00    -0.128 NA
ATOM     18  C   UNL     1      -9.687  -7.867  16.224  0.00  0.00    +0.140 A 
ATOM     20  C   UNL     1     -11.038  -7.806  16.455  0.00  0.00    +0.131 A 
BRANCH  20  22
ATOM      8  N   UNL     1     -11.453  -6.136  14.850  0.00  0.00    -0.253 NA
ATOM     22  C   UNL     1     -11.980  -7.059  15.685  0.00  0.00    +0.092 A 
ATOM     25  C   UNL     1     -13.339  -7.298  15.818  0.00  0.00    +0.030 A 
ATOM     29  C   UNL     1     -14.212  -6.541  15.045  0.00  0.00    +0.004 A 
ATOM     30  C   UNL     1     -12.332  -5.420  14.114  0.00  0.00    +0.111 A 
ATOM     31  C   UNL     1     -13.707  -5.581  14.174  0.00  0.00    +0.020 A 
ENDBRANCH  20  22
ENDBRANCH  16   4
ENDBRANCH  10  16
TORSDOF 7
ENDMDL
MODEL 5
REMARK VINA RESULT:      -6.3     24.784     28.275
REMARK  Name = 40722264
REMARK  8 active torsions:
REMARK  status: ('A' for Active; 'I' for Inactive)
REMARK    1  A    between atoms: O_2  and  C_23
REMARK    2  A    between atoms: O_2  and  C_32
REMARK    3  A    between atoms: N_4  and  C_16
REMARK    4  A    between atoms: N_5  and  C_19
REMARK    5  A    between atoms: C_10  and  C_16
REMARK    6  A    between atoms: C_11  and  C_17
REMARK    7  A    between atoms: C_19  and  C_21
REMARK    8  A    between atoms: C_20  and  C_22
REMARK                            x       y       z     vdW  Elec       q    Type
REMARK                         _______ _______ _______ _____ _____    ______ ____
ROOT
ATOM      3  N   UNL     1       9.647   7.389   4.230  0.00  0.00    -0.297 NA
ATOM      9  C   UNL     1       9.617   5.524   6.045  0.00  0.00    +0.005 C 
ATOM     10  C   UNL     1      10.206   6.128   3.673  0.00  0.00    +0.078 C 
ATOM     11  C   UNL     1      10.303   6.800   6.568  0.00  0.00    +0.092 C 
ATOM     12  C   UNL     1      10.342   5.049   4.770  0.00  0.00    +0.025 C 
ATOM     13  C   UNL     1       8.188   5.923   5.638  0.00  0.00    +0.020 C 
ATOM     14  C   UNL     1      10.426   7.816   5.418  0.00  0.00    +0.097 C 
ATOM     15  C   UNL     1       8.254   7.115   4.665  0.00  0.00    +0.085 C 
ENDROOT
BRANCH  11  17
ATOM      1  O   UNL     1      11.748   5.831   8.204  0.00  0.00    -0.275 OA
ATOM      5  N   UNL     1      12.681   7.076   6.471  0.00  0.00    -0.311 N 
ATOM     17  C   UNL     1      11.640   6.500   7.180  0.00  0.00    +0.218 C 
ATOM     33  H   UNL     1      12.478   7.615   5.636  0.00  0.00    +0.149 HD
BRANCH   5  19
ATOM     19  C   UNL     1      14.066   6.956   6.866  0.00  0.00    +0.143 C 
BRANCH  19  21
ATOM     21  C   UNL     1      14.889   8.120   6.393  0.00  0.00    +0.011 A 
ATOM     23  C   UNL     1      14.448   9.430   6.589  0.00  0.00    +0.125 A 
ATOM     24  C   UNL     1      16.103   7.882   5.750  0.00  0.00    +0.009 A 
ATOM     26  C   UNL     1      15.224  10.500   6.142  0.00  0.00    +0.046 A 
ATOM     27  C   UNL     1      16.878   8.951   5.304  0.00  0.00    +0.001 A 
ATOM     28  C   UNL     1      16.438  10.261   5.500  0.00  0.00    +0.004 A 
BRANCH  23   2
ATOM      2  O   UNL     1      13.264   9.682   7.213  0.00  0.00    -0.495 OA
ATOM     32  C   UNL     1      12.635  10.930   6.930  0.00  0.00    +0.277 C 
ENDBRANCH  23   2
ENDBRANCH  19  21
ENDBRANCH   5  19
ENDBRANCH  11  17
BRANCH  10  16
ATOM     16  C   UNL     1      11.525   6.354   2.930  0.00  0.00    +0.164 C 
BRANCH  16   4
ATOM      4  N   UNL     1      11.739   5.320   1.860  0.00  0.00    -0.250 N 
ATOM      6  N   UNL     1      12.505   4.242   2.093  0.00  0.00    -0.065 NA
ATOM      7  N   UNL     1      12.510   3.514   0.981  0.00  0.00    -0.128 NA
ATOM     18  C   UNL     1      11.233   5.313   0.596  0.00  0.00    +0.140 A 
ATOM     20  C   UNL     1      11.736   4.157   0.055  0.00  0.00    +0.131 A 
BRANCH  20  22
ATOM      8  N   UNL     1      10.323   4.069  -1.824  0.00  0.00    -0.253 NA
ATOM     22  C   UNL     1      11.495   3.686  -1.271  0.00  0.00    +0.092 A 
ATOM     25  C   UNL     1      12.431   2.888  -1.910  0.00  0.00    +0.030 A 
ATOM     29  C   UNL     1      12.145   2.456  -3.200  0.00  0.00    +0.004 A 
ATOM     30  C   UNL     1      10.080   3.631  -3.080  0.00  0.00    +0.111 A 
ATOM     31  C   UNL     1      10.949   2.830  -3.804  0.00  0.00    +0.020 A 
ENDBRANCH  20  22
ENDBRANCH  16   4
ENDBRANCH  10  16
TORSDOF 7
ENDMDL
MODEL 6
REMARK VINA RESULT:      -6.3     24.317     27.057
REMARK  Name = 40722264
REMARK  8 active torsions:
REMARK  status: ('A' for Active; 'I' for Inactive)
REMARK    1  A    between atoms: O_2  and  C_23
REMARK    2  A    between atoms: O_2  and  C_32
REMARK    3  A    between atoms: N_4  and  C_16
REMARK    4  A    between atoms: N_5  and  C_19
REMARK    5  A    between atoms: C_10  and  C_16
REMARK    6  A    between atoms: C_11  and  C_17
REMARK    7  A    between atoms: C_19  and  C_21
REMARK    8  A    between atoms: C_20  and  C_22
REMARK                            x       y       z     vdW  Elec       q    Type
REMARK                         _______ _______ _______ _____ _____    ______ ____
ROOT
ATOM      3  N   UNL     1       9.381   5.072   5.140  0.00  0.00    -0.297 NA
ATOM      9  C   UNL     1      10.211   6.858   6.841  0.00  0.00    +0.005 C 
ATOM     10  C   UNL     1      10.549   5.804   4.579  0.00  0.00    +0.078 C 
ATOM     11  C   UNL     1       8.699   6.997   6.580  0.00  0.00    +0.092 C 
ATOM     12  C   UNL     1      10.965   6.971   5.501  0.00  0.00    +0.025 C 
ATOM     13  C   UNL     1      10.440   5.434   7.377  0.00  0.00    +0.020 C 
ATOM     14  C   UNL     1       8.287   6.020   5.464  0.00  0.00    +0.097 C 
ATOM     15  C   UNL     1       9.817   4.419   6.400  0.00  0.00    +0.085 C 
ENDROOT
BRANCH  11  17
ATOM      1  O   UNL     1       8.671   9.358   6.936  0.00  0.00    -0.275 OA
ATOM      5  N   UNL     1       7.543   8.481   5.096  0.00  0.00    -0.311 N 
ATOM     17  C   UNL     1       8.322   8.407   6.239  0.00  0.00    +0.218 C 
ATOM     33  H   UNL     1       7.309   7.629   4.597  0.00  0.00    +0.149 HD
BRANCH   5  19
ATOM     19  C   UNL     1       7.030   9.724   4.569  0.00  0.00    +0.143 C 
BRANCH  19  21
ATOM     21  C   UNL     1       6.923   9.698   3.071  0.00  0.00    +0.011 A 
ATOM     23  C   UNL     1       5.759  10.129   2.433  0.00  0.00    +0.125 A 
ATOM     24  C   UNL     1       8.001   9.236   2.318  0.00  0.00    +0.009 A 
ATOM     26  C   UNL     1       5.677  10.097   1.040  0.00  0.00    +0.046 A 
ATOM     27  C   UNL     1       7.918   9.204   0.927  0.00  0.00    +0.001 A 
ATOM     28  C   UNL     1       6.755   9.635   0.287  0.00  0.00    +0.004 A 
BRANCH  23   2
ATOM      2  O   UNL     1       4.696  10.583   3.152  0.00  0.00    -0.495 OA
ATOM     32  C   UNL     1       3.453  10.704   2.465  0.00  0.00    +0.277 C 
ENDBRANCH  23   2
ENDBRANCH  19  21
ENDBRANCH   5  19
ENDBRANCH  11  17
BRANCH  10  16
ATOM     16  C   UNL     1      10.308   6.272   3.142  0.00  0.00    +0.164 C 
BRANCH  16   4
ATOM      4  N   UNL     1      10.830   5.276   2.144  0.00  0.00    -0.250 N 
ATOM      6  N   UNL     1      11.667   4.298   2.526  0.00  0.00    -0.065 NA
ATOM      7  N   UNL     1      11.955   3.582   1.444  0.00  0.00    -0.128 NA
ATOM     18  C   UNL     1      10.559   5.213   0.812  0.00  0.00    +0.140 A 
ATOM     20  C   UNL     1      11.284   4.130   0.387  0.00  0.00    +0.131 A 
BRANCH  20  22
ATOM      8  N   UNL     1      10.292   3.970  -1.741  0.00  0.00    -0.253 NA
ATOM     22  C   UNL     1      11.339   3.639  -0.953  0.00  0.00    +0.092 A 
ATOM     25  C   UNL     1      12.416   2.875  -1.375  0.00  0.00    +0.030 A 
ATOM     29  C   UNL     1      12.418   2.423  -2.689  0.00  0.00    +0.004 A 
ATOM     30  C   UNL     1      10.328   3.512  -3.013  0.00  0.00    +0.111 A 
ATOM     31  C   UNL     1      11.357   2.743  -3.530  0.00  0.00    +0.020 A 
ENDBRANCH  20  22
ENDBRANCH  16   4
ENDBRANCH  10  16
TORSDOF 7
ENDMDL
MODEL 7
REMARK VINA RESULT:      -6.2     23.681     27.612
REMARK  Name = 40722264
REMARK  8 active torsions:
REMARK  status: ('A' for Active; 'I' for Inactive)
REMARK    1  A    between atoms: O_2  and  C_23
REMARK    2  A    between atoms: O_2  and  C_32
REMARK    3  A    between atoms: N_4  and  C_16
REMARK    4  A    between atoms: N_5  and  C_19
REMARK    5  A    between atoms: C_10  and  C_16
REMARK    6  A    between atoms: C_11  and  C_17
REMARK    7  A    between atoms: C_19  and  C_21
REMARK    8  A    between atoms: C_20  and  C_22
REMARK                            x       y       z     vdW  Elec       q    Type
REMARK                         _______ _______ _______ _____ _____    ______ ____
ROOT
ATOM      3  N   UNL     1      13.448   5.764   1.265  0.00  0.00    -0.297 NA
ATOM      9  C   UNL     1      13.442   3.187   0.905  0.00  0.00    +0.005 C 
ATOM     10  C   UNL     1      12.356   5.142   2.063  0.00  0.00    +0.078 C 
ATOM     11  C   UNL     1      13.421   3.937  -0.440  0.00  0.00    +0.092 C 
ATOM     12  C   UNL     1      12.232   3.635   1.750  0.00  0.00    +0.025 C 
ATOM     13  C   UNL     1      14.712   3.639   1.647  0.00  0.00    +0.020 C 
ATOM     14  C   UNL     1      13.278   5.447  -0.174  0.00  0.00    +0.097 C 
ATOM     15  C   UNL     1      14.733   5.177   1.720  0.00  0.00    +0.085 C 
ENDROOT
BRANCH  11  17
ATOM      1  O   UNL     1      12.346   2.295  -1.800  0.00  0.00    -0.275 OA
ATOM      5  N   UNL     1      11.367   4.397  -1.584  0.00  0.00    -0.311 N 
ATOM     17  C   UNL     1      12.332   3.434  -1.340  0.00  0.00    +0.218 C 
ATOM     33  H   UNL     1      11.456   5.312  -1.154  0.00  0.00    +0.149 HD
BRANCH   5  19
ATOM     19  C   UNL     1      10.224   4.170  -2.439  0.00  0.00    +0.143 C 
BRANCH  19  21
ATOM     21  C   UNL     1       9.615   5.457  -2.917  0.00  0.00    +0.011 A 
ATOM     23  C   UNL     1      10.310   6.291  -3.795  0.00  0.00    +0.125 A 
ATOM     24  C   UNL     1       8.343   5.816  -2.474  0.00  0.00    +0.009 A 
ATOM     26  C   UNL     1       9.730   7.483  -4.228  0.00  0.00    +0.046 A 
ATOM     27  C   UNL     1       7.764   7.008  -2.907  0.00  0.00    +0.001 A 
ATOM     28  C   UNL     1       8.458   7.842  -3.785  0.00  0.00    +0.004 A 
BRANCH  23   2
ATOM      2  O   UNL     1      11.554   5.956  -4.237  0.00  0.00    -0.495 OA
ATOM     32  C   UNL     1      12.454   7.028  -4.508  0.00  0.00    +0.277 C 
ENDBRANCH  23   2
ENDBRANCH  19  21
ENDBRANCH   5  19
ENDBRANCH  11  17
BRANCH  10  16
ATOM     16  C   UNL     1      11.022   5.871   1.892  0.00  0.00    +0.164 C 
BRANCH  16   4
ATOM      4  N   UNL     1      10.328   6.067   3.211  0.00  0.00    -0.250 N 
ATOM      6  N   UNL     1       9.288   6.909   3.319  0.00  0.00    -0.065 NA
ATOM      7  N   UNL     1       8.885   6.877   4.585  0.00  0.00    -0.128 NA
ATOM     18  C   UNL     1      10.620   5.473   4.401  0.00  0.00    +0.140 A 
ATOM     20  C   UNL     1       9.690   6.002   5.260  0.00  0.00    +0.131 A 
BRANCH  20  22
ATOM      8  N   UNL     1       9.896   4.430   6.998  0.00  0.00    -0.253 NA
ATOM     22  C   UNL     1       9.572   5.695   6.649  0.00  0.00    +0.092 A 
ATOM     25  C   UNL     1       9.147   6.662   7.546  0.00  0.00    +0.030 A 
ATOM     29  C   UNL     1       9.049   6.308   8.887  0.00  0.00    +0.004 A 
ATOM     30  C   UNL     1       9.789   4.122   8.311  0.00  0.00    +0.111 A 
ATOM     31  C   UNL     1       9.374   5.016   9.285  0.00  0.00    +0.020 A 
ENDBRANCH  20  22
ENDBRANCH  16   4
ENDBRANCH  10  16
TORSDOF 7
ENDMDL
MODEL 8
REMARK VINA RESULT:      -6.2      3.509      7.158
REMARK  Name = 40722264
REMARK  8 active torsions:
REMARK  status: ('A' for Active; 'I' for Inactive)
REMARK    1  A    between atoms: O_2  and  C_23
REMARK    2  A    between atoms: O_2  and  C_32
REMARK    3  A    between atoms: N_4  and  C_16
REMARK    4  A    between atoms: N_5  and  C_19
REMARK    5  A    between atoms: C_10  and  C_16
REMARK    6  A    between atoms: C_11  and  C_17
REMARK    7  A    between atoms: C_19  and  C_21
REMARK    8  A    between atoms: C_20  and  C_22
REMARK                            x       y       z     vdW  Elec       q    Type
REMARK                         _______ _______ _______ _____ _____    ______ ____
ROOT
ATOM      3  N   UNL     1      -5.240 -12.128  11.536  0.00  0.00    -0.297 NA
ATOM      9  C   UNL     1      -2.787 -12.718  12.174  0.00  0.00    +0.005 C 
ATOM     10  C   UNL     1      -4.316 -11.077  11.029  0.00  0.00    +0.078 C 
ATOM     11  C   UNL     1      -3.709 -12.756  13.408  0.00  0.00    +0.092 C 
ATOM     12  C   UNL     1      -2.874 -11.322  11.524  0.00  0.00    +0.025 C 
ATOM     13  C   UNL     1      -3.354 -13.730  11.163  0.00  0.00    +0.020 C 
ATOM     14  C   UNL     1      -5.110 -12.261  13.008  0.00  0.00    +0.097 C 
ATOM     15  C   UNL     1      -4.843 -13.418  10.918  0.00  0.00    +0.085 C 
ENDROOT
BRANCH  11  17
ATOM      1  O   UNL     1      -1.953 -11.978  14.826  0.00  0.00    -0.275 OA
ATOM      5  N   UNL     1      -4.127 -11.238  15.213  0.00  0.00    -0.311 N 
ATOM     17  C   UNL     1      -3.148 -11.955  14.545  0.00  0.00    +0.218 C 
ATOM     33  H   UNL     1      -5.090 -11.295  14.898  0.00  0.00    +0.149 HD
BRANCH   5  19
ATOM     19  C   UNL     1      -3.850 -10.404  16.360  0.00  0.00    +0.143 C 
BRANCH  19  21
ATOM     21  C   UNL     1      -4.762 -10.712  17.513  0.00  0.00    +0.011 A 
ATOM     23  C   UNL     1      -6.068 -10.218  17.538  0.00  0.00    +0.125 A 
ATOM     24  C   UNL     1      -4.293 -11.498  18.564  0.00  0.00    +0.009 A 
ATOM     26  C   UNL     1      -6.902 -10.513  18.617  0.00  0.00    +0.046 A 
ATOM     27  C   UNL     1      -5.127 -11.792  19.641  0.00  0.00    +0.001 A 
ATOM     28  C   UNL     1      -6.433 -11.299  19.668  0.00  0.00    +0.004 A 
BRANCH  23   2
ATOM      2  O   UNL     1      -6.543  -9.448  16.520  0.00  0.00    -0.495 OA
ATOM     32  C   UNL     1      -7.959  -9.371  16.373  0.00  0.00    +0.277 C 
ENDBRANCH  23   2
ENDBRANCH  19  21
ENDBRANCH   5  19
ENDBRANCH  11  17
BRANCH  10  16
ATOM     16  C   UNL     1      -4.802  -9.665  11.363  0.00  0.00    +0.164 C 
BRANCH  16   4
ATOM      4  N   UNL     1      -5.876  -9.212  10.414  0.00  0.00    -0.250 N 
ATOM      6  N   UNL     1      -7.076  -8.823  10.873  0.00  0.00    -0.065 NA
ATOM      7  N   UNL     1      -7.810  -8.482   9.819  0.00  0.00    -0.128 NA
ATOM     18  C   UNL     1      -5.807  -9.132   9.057  0.00  0.00    +0.140 A 
ATOM     20  C   UNL     1      -7.047  -8.666   8.700  0.00  0.00    +0.131 A 
BRANCH  20  22
ATOM      8  N   UNL     1      -6.838  -9.090   6.395  0.00  0.00    -0.253 NA
ATOM     22  C   UNL     1      -7.486  -8.409   7.366  0.00  0.00    +0.092 A 
ATOM     25  C   UNL     1      -8.513  -7.508   7.129  0.00  0.00    +0.030 A 
ATOM     29  C   UNL     1      -8.899  -7.295   5.811  0.00  0.00    +0.004 A 
ATOM     30  C   UNL     1      -7.242  -8.857   5.125  0.00  0.00    +0.111 A 
ATOM     31  C   UNL     1      -8.257  -7.978   4.784  0.00  0.00    +0.020 A 
ENDBRANCH  20  22
ENDBRANCH  16   4
ENDBRANCH  10  16
TORSDOF 7
ENDMDL
MODEL 9
REMARK VINA RESULT:      -6.2      4.263      7.236
REMARK  Name = 40722264
REMARK  8 active torsions:
REMARK  status: ('A' for Active; 'I' for Inactive)
REMARK    1  A    between atoms: O_2  and  C_23
REMARK    2  A    between atoms: O_2  and  C_32
REMARK    3  A    between atoms: N_4  and  C_16
REMARK    4  A    between atoms: N_5  and  C_19
REMARK    5  A    between atoms: C_10  and  C_16
REMARK    6  A    between atoms: C_11  and  C_17
REMARK    7  A    between atoms: C_19  and  C_21
REMARK    8  A    between atoms: C_20  and  C_22
REMARK                            x       y       z     vdW  Elec       q    Type
REMARK                         _______ _______ _______ _____ _____    ______ ____
ROOT
ATOM      3  N   UNL     1      -5.012 -10.156  11.968  0.00  0.00    -0.297 NA
ATOM      9  C   UNL     1      -4.031  -9.767   9.589  0.00  0.00    +0.005 C 
ATOM     10  C   UNL     1      -3.527 -10.083  12.036  0.00  0.00    +0.078 C 
ATOM     11  C   UNL     1      -4.995 -10.969   9.606  0.00  0.00    +0.092 C 
ATOM     12  C   UNL     1      -2.911 -10.006  10.622  0.00  0.00    +0.025 C 
ATOM     13  C   UNL     1      -4.837  -8.545  10.062  0.00  0.00    +0.020 C 
ATOM     14  C   UNL     1      -5.432 -11.247  11.055  0.00  0.00    +0.097 C 
ATOM     15  C   UNL     1      -5.505  -8.871  11.412  0.00  0.00    +0.085 C 
ENDROOT
BRANCH  11  17
ATOM      1  O   UNL     1      -4.097 -13.181   9.635  0.00  0.00    -0.275 OA
ATOM      5  N   UNL     1      -4.162 -12.018   7.619  0.00  0.00    -0.311 N 
ATOM     17  C   UNL     1      -4.378 -12.183   8.977  0.00  0.00    +0.218 C 
ATOM     33  H   UNL     1      -4.431 -11.146   7.174  0.00  0.00    +0.149 HD
BRANCH   5  19
ATOM     19  C   UNL     1      -3.559 -13.033   6.786  0.00  0.00    +0.143 C 
BRANCH  19  21
ATOM     21  C   UNL     1      -3.980 -12.905   5.350  0.00  0.00    +0.011 A 
ATOM     23  C   UNL     1      -5.331 -12.925   5.000  0.00  0.00    +0.125 A 
ATOM     24  C   UNL     1      -3.006 -12.767   4.363  0.00  0.00    +0.009 A 
ATOM     26  C   UNL     1      -5.705 -12.806   3.661  0.00  0.00    +0.046 A 
ATOM     27  C   UNL     1      -3.380 -12.649   3.025  0.00  0.00    +0.001 A 
ATOM     28  C   UNL     1      -4.731 -12.668   2.674  0.00  0.00    +0.004 A 
BRANCH  23   2
ATOM      2  O   UNL     1      -6.297 -13.060   5.951  0.00  0.00    -0.495 OA
ATOM     32  C   UNL     1      -7.388 -12.144   5.900  0.00  0.00    +0.277 C 
ENDBRANCH  23   2
ENDBRANCH  19  21
ENDBRANCH   5  19
ENDBRANCH  11  17
BRANCH  10  16
ATOM     16  C   UNL     1      -2.925 -11.224  12.858  0.00  0.00    +0.164 C 
BRANCH  16   4
ATOM      4  N   UNL     1      -3.164 -11.029  14.330  0.00  0.00    -0.250 N 
ATOM      6  N   UNL     1      -2.148 -10.730  15.155  0.00  0.00    -0.065 NA
ATOM      7  N   UNL     1      -2.654 -10.618  16.379  0.00  0.00    -0.128 NA
ATOM     18  C   UNL     1      -4.345 -11.116  14.999  0.00  0.00    +0.140 A 
ATOM     20  C   UNL     1      -3.998 -10.852  16.300  0.00  0.00    +0.131 A 
BRANCH  20  22
ATOM      8  N   UNL     1      -6.035 -10.122  17.223  0.00  0.00    -0.253 NA
ATOM     22  C   UNL     1      -4.895 -10.822  17.410  0.00  0.00    +0.092 A 
ATOM     25  C   UNL     1      -4.574 -11.483  18.586  0.00  0.00    +0.030 A 
ATOM     29  C   UNL     1      -5.483 -11.420  19.636  0.00  0.00    +0.004 A 
ATOM     30  C   UNL     1      -6.895 -10.084  18.266  0.00  0.00    +0.111 A 
ATOM     31  C   UNL     1      -6.668 -10.709  19.481  0.00  0.00    +0.020 A 
ENDBRANCH  20  22
ENDBRANCH  16   4
ENDBRANCH  10  16
TORSDOF 7
ENDMDL
MODEL 10
REMARK VINA RESULT:      -6.1      2.864      7.014
REMARK  Name = 40722264
REMARK  8 active torsions:
REMARK  status: ('A' for Active; 'I' for Inactive)
REMARK    1  A    between atoms: O_2  and  C_23
REMARK    2  A    between atoms: O_2  and  C_32
REMARK    3  A    between atoms: N_4  and  C_16
REMARK    4  A    between atoms: N_5  and  C_19
REMARK    5  A    between atoms: C_10  and  C_16
REMARK    6  A    between atoms: C_11  and  C_17
REMARK    7  A    between atoms: C_19  and  C_21
REMARK    8  A    between atoms: C_20  and  C_22
REMARK                            x       y       z     vdW  Elec       q    Type
REMARK                         _______ _______ _______ _____ _____    ______ ____
ROOT
ATOM      3  N   UNL     1      -5.826 -12.299  17.416  0.00  0.00    -0.297 NA
ATOM      9  C   UNL     1      -6.434 -11.106  19.648  0.00  0.00    +0.005 C 
ATOM     10  C   UNL     1      -5.856 -10.825  17.213  0.00  0.00    +0.078 C 
ATOM     11  C   UNL     1      -7.459 -12.203  19.306  0.00  0.00    +0.092 C 
ATOM     12  C   UNL     1      -6.362 -10.102  18.480  0.00  0.00    +0.025 C 
ATOM     13  C   UNL     1      -5.061 -11.795  19.744  0.00  0.00    +0.020 C 
ATOM     14  C   UNL     1      -7.141 -12.776  17.913  0.00  0.00    +0.097 C 
ATOM     15  C   UNL     1      -4.805 -12.594  18.452  0.00  0.00    +0.085 C 
ENDROOT
BRANCH  11  17
ATOM      1  O   UNL     1      -9.377 -11.348  20.441  0.00  0.00    -0.275 OA
ATOM      5  N   UNL     1      -9.484 -11.677  18.139  0.00  0.00    -0.311 N 
ATOM     17  C   UNL     1      -8.866 -11.690  19.378  0.00  0.00    +0.218 C 
ATOM     33  H   UNL     1      -8.968 -11.987  17.321  0.00  0.00    +0.149 HD
BRANCH   5  19
ATOM     19  C   UNL     1     -10.850 -11.248  17.941  0.00  0.00    +0.143 C 
BRANCH  19  21
ATOM     21  C   UNL     1     -10.928  -9.828  17.459  0.00  0.00    +0.011 A 
ATOM     23  C   UNL     1     -12.143  -9.286  17.034  0.00  0.00    +0.125 A 
ATOM     24  C   UNL     1      -9.772  -9.050  17.437  0.00  0.00    +0.009 A 
ATOM     26  C   UNL     1     -12.197  -7.966  16.588  0.00  0.00    +0.046 A 
ATOM     27  C   UNL     1      -9.828  -7.730  16.992  0.00  0.00    +0.001 A 
ATOM     28  C   UNL     1     -11.041  -7.187  16.567  0.00  0.00    +0.004 A 
BRANCH  23   2
ATOM      2  O   UNL     1     -13.282 -10.033  17.047  0.00  0.00    -0.495 OA
ATOM     32  C   UNL     1     -14.273  -9.684  18.010  0.00  0.00    +0.277 C 
ENDBRANCH  23   2
ENDBRANCH  19  21
ENDBRANCH   5  19
ENDBRANCH  11  17
BRANCH  10  16
ATOM     16  C   UNL     1      -6.654 -10.424  15.971  0.00  0.00    +0.164 C 
BRANCH  16   4
ATOM      4  N   UNL     1      -5.777 -10.351  14.752  0.00  0.00    -0.250 N 
ATOM      6  N   UNL     1      -4.476 -10.671  14.825  0.00  0.00    -0.065 NA
ATOM      7  N   UNL     1      -3.962 -10.514  13.609  0.00  0.00    -0.128 NA
ATOM     18  C   UNL     1      -6.134  -9.981  13.492  0.00  0.00    +0.140 A 
ATOM     20  C   UNL     1      -4.965 -10.092  12.782  0.00  0.00    +0.131 A 
BRANCH  20  22
ATOM      8  N   UNL     1      -5.264  -8.607  10.981  0.00  0.00    -0.253 NA
ATOM     22  C   UNL     1      -4.807  -9.812  11.391  0.00  0.00    +0.092 A 
ATOM     25  C   UNL     1      -4.219 -10.744  10.552  0.00  0.00    +0.030 A 
ATOM     29  C   UNL     1      -4.091 -10.420   9.207  0.00  0.00    +0.004 A 
ATOM     30  C   UNL     1      -5.122  -8.327   9.666  0.00  0.00    +0.111 A 
ATOM     31  C   UNL     1      -4.549  -9.190   8.746  0.00  0.00    +0.020 A 
ENDBRANCH  20  22
ENDBRANCH  16   4
ENDBRANCH  10  16
TORSDOF 7
ENDMDL
