MODEL 1
REMARK VINA RESULT:      -8.3      0.000      0.000
REMARK  Name = 45783578
REMARK  8 active torsions:
REMARK  status: ('A' for Active; 'I' for Inactive)
REMARK    1  A    between atoms: O_1  and  C_13
REMARK    2  A    between atoms: O_1  and  C_25
REMARK    3  A    between atoms: O_3  and  C_33
REMARK    4  A    between atoms: N_5  and  C_14
REMARK    5  A    between atoms: C_9  and  C_20
REMARK    6  A    between atoms: C_14  and  C_21
REMARK    7  A    between atoms: C_22  and  C_26
REMARK    8  A    between atoms: C_31  and  C_33
REMARK                            x       y       z     vdW  Elec       q    Type
REMARK                         _______ _______ _______ _____ _____    ______ ____
ROOT
ATOM      2  O   UNL     1      14.975   8.780  19.828  0.00  0.00    -0.336 OA
ATOM      6  N   UNL     1      15.915   6.873  19.125  0.00  0.00    -0.190 NA
ATOM      7  N   UNL     1      16.160   8.638  20.560  0.00  0.00    -0.056 NA
ATOM     20  C   UNL     1      14.907   7.698  19.009  0.00  0.00    +0.245 A 
ATOM     22  C   UNL     1      16.658   7.491  20.089  0.00  0.00    +0.204 A 
ENDROOT
BRANCH  22  26
ATOM      8  N   UNL     1      19.719   7.006  22.143  0.00  0.00    -0.221 NA
ATOM     25  C   UNL     1      20.244   5.932  21.513  0.00  0.00    +0.215 A 
ATOM     26  C   UNL     1      17.892   6.935  20.560  0.00  0.00    +0.041 A 
ATOM     29  C   UNL     1      19.663   5.314  20.418  0.00  0.00    +0.068 A 
ATOM     30  C   UNL     1      18.465   5.831  19.940  0.00  0.00    +0.018 A 
ATOM     32  C   UNL     1      18.553   7.481  21.649  0.00  0.00    +0.126 A 
BRANCH  25   1
ATOM      1  O   UNL     1      21.426   5.441  22.004  0.00  0.00    -0.473 OA
BRANCH   1  13
ATOM     13  C   UNL     1      22.174   4.595  21.137  0.00  0.00    +0.175 C 
ATOM     15  C   UNL     1      22.405   3.244  21.813  0.00  0.00    +0.044 C 
ATOM     16  C   UNL     1      23.493   5.274  20.772  0.00  0.00    +0.044 C 
ATOM     17  C   UNL     1      23.288   2.335  20.963  0.00  0.00    +0.004 C 
ATOM     18  C   UNL     1      24.377   4.366  19.923  0.00  0.00    +0.004 C 
ATOM     19  C   UNL     1      24.605   3.015  20.597  0.00  0.00    +0.000 C 
ENDBRANCH   1  13
ENDBRANCH  25   1
ENDBRANCH  22  26
BRANCH  20   9
ATOM      5  N   UNL     1      12.582   8.466  18.562  0.00  0.00    -0.287 NA
ATOM      9  C   UNL     1      13.698   7.617  18.099  0.00  0.00    +0.146 C 
ATOM     10  C   UNL     1      13.995   8.106  16.670  0.00  0.00    +0.030 C 
ATOM     11  C   UNL     1      12.959   9.187  16.396  0.00  0.00    +0.017 C 
ATOM     12  C   UNL     1      11.841   8.861  17.365  0.00  0.00    +0.085 C 
BRANCH   5  14
ATOM     14  C   UNL     1      11.729   7.807  19.543  0.00  0.00    +0.120 C 
BRANCH  14  21
ATOM     21  C   UNL     1      11.505   8.668  20.758  0.00  0.00    -0.033 A 
ATOM     23  C   UNL     1      11.853  10.019  20.729  0.00  0.00    +0.006 A 
ATOM     24  C   UNL     1      10.949   8.116  21.912  0.00  0.00    +0.006 A 
ATOM     27  C   UNL     1      11.646  10.817  21.854  0.00  0.00    +0.015 A 
ATOM     28  C   UNL     1      10.742   8.915  23.038  0.00  0.00    +0.015 A 
ATOM     31  C   UNL     1      11.091  10.265  23.008  0.00  0.00    +0.059 A 
BRANCH  31  33
ATOM      4  O   UNL     1      10.341  12.212  24.180  0.00  0.00    -0.245 OA
ATOM     33  C   UNL     1      10.874  11.097  24.181  0.00  0.00    +0.337 C 
BRANCH  33   3
ATOM      3  O   UNL     1      11.328  10.514  25.324  0.00  0.00    -0.477 OA
ATOM     34  H   UNL     1      10.636   9.968  25.756  0.00  0.00    +0.295 HD
ENDBRANCH  33   3
ENDBRANCH  31  33
ENDBRANCH  14  21
ENDBRANCH   5  14
ENDBRANCH  20   9
TORSDOF 8
ENDMDL
MODEL 2
REMARK VINA RESULT:      -7.2     27.624     32.101
REMARK  Name = 45783578
REMARK  8 active torsions:
REMARK  status: ('A' for Active; 'I' for Inactive)
REMARK    1  A    between atoms: O_1  and  C_13
REMARK    2  A    between atoms: O_1  and  C_25
REMARK    3  A    between atoms: O_3  and  C_33
REMARK    4  A    between atoms: N_5  and  C_14
REMARK    5  A    between atoms: C_9  and  C_20
REMARK    6  A    between atoms: C_14  and  C_21
REMARK    7  A    between atoms: C_22  and  C_26
REMARK    8  A    between atoms: C_31  and  C_33
REMARK                            x       y       z     vdW  Elec       q    Type
REMARK                         _______ _______ _______ _____ _____    ______ ____
ROOT
ATOM      2  O   UNL     1     -16.375   3.820  22.080  0.00  0.00    -0.336 OA
ATOM      6  N   UNL     1     -16.139   4.853  24.053  0.00  0.00    -0.190 NA
ATOM      7  N   UNL     1     -16.482   2.822  23.057  0.00  0.00    -0.056 NA
ATOM     20  C   UNL     1     -16.173   4.984  22.752  0.00  0.00    +0.245 A 
ATOM     22  C   UNL     1     -16.333   3.509  24.193  0.00  0.00    +0.204 A 
ENDROOT
BRANCH  22  26
ATOM      8  N   UNL     1     -16.096   3.071  27.878  0.00  0.00    -0.221 NA
ATOM     25  C   UNL     1     -16.421   1.763  27.970  0.00  0.00    +0.215 A 
ATOM     26  C   UNL     1     -16.371   2.884  25.483  0.00  0.00    +0.041 A 
ATOM     29  C   UNL     1     -16.729   0.961  26.882  0.00  0.00    +0.068 A 
ATOM     30  C   UNL     1     -16.701   1.541  25.619  0.00  0.00    +0.018 A 
ATOM     32  C   UNL     1     -16.080   3.600  26.633  0.00  0.00    +0.126 A 
BRANCH  25   1
ATOM      1  O   UNL     1     -16.442   1.214  29.225  0.00  0.00    -0.473 OA
BRANCH   1  13
ATOM     13  C   UNL     1     -15.631   1.845  30.211  0.00  0.00    +0.175 C 
ATOM     15  C   UNL     1     -15.052   0.789  31.151  0.00  0.00    +0.044 C 
ATOM     16  C   UNL     1     -16.460   2.880  30.971  0.00  0.00    +0.044 C 
ATOM     17  C   UNL     1     -14.254   1.424  32.286  0.00  0.00    +0.004 C 
ATOM     18  C   UNL     1     -15.664   3.515  32.105  0.00  0.00    +0.004 C 
ATOM     19  C   UNL     1     -15.082   2.459  33.043  0.00  0.00    +0.000 C 
ENDBRANCH   1  13
ENDBRANCH  25   1
ENDBRANCH  22  26
BRANCH  20   9
ATOM      5  N   UNL     1     -14.766   6.246  21.133  0.00  0.00    -0.287 NA
ATOM      9  C   UNL     1     -16.024   6.232  21.907  0.00  0.00    +0.146 C 
ATOM     10  C   UNL     1     -17.135   6.371  20.851  0.00  0.00    +0.030 C 
ATOM     11  C   UNL     1     -16.406   6.518  19.523  0.00  0.00    +0.017 C 
ATOM     12  C   UNL     1     -15.035   7.024  19.924  0.00  0.00    +0.085 C 
BRANCH   5  14
ATOM     14  C   UNL     1     -13.635   6.774  21.885  0.00  0.00    +0.120 C 
BRANCH  14  21
ATOM     21  C   UNL     1     -12.747   7.636  21.028  0.00  0.00    -0.033 A 
ATOM     23  C   UNL     1     -11.927   7.050  20.063  0.00  0.00    +0.006 A 
ATOM     24  C   UNL     1     -12.743   9.020  21.197  0.00  0.00    +0.006 A 
ATOM     27  C   UNL     1     -11.104   7.847  19.269  0.00  0.00    +0.015 A 
ATOM     28  C   UNL     1     -11.919   9.819  20.402  0.00  0.00    +0.015 A 
ATOM     31  C   UNL     1     -11.100   9.232  19.439  0.00  0.00    +0.059 A 
BRANCH  31  33
ATOM      4  O   UNL     1     -10.338  11.290  18.484  0.00  0.00    -0.245 OA
ATOM     33  C   UNL     1     -10.242  10.064  18.610  0.00  0.00    +0.337 C 
BRANCH  33   3
ATOM      3  O   UNL     1      -9.288   9.343  17.960  0.00  0.00    -0.477 OA
ATOM     34  H   UNL     1      -8.714   9.914  17.405  0.00  0.00    +0.295 HD
ENDBRANCH  33   3
ENDBRANCH  31  33
ENDBRANCH  14  21
ENDBRANCH   5  14
ENDBRANCH  20   9
TORSDOF 8
ENDMDL
MODEL 3
REMARK VINA RESULT:      -7.1     14.786     17.353
REMARK  Name = 45783578
REMARK  8 active torsions:
REMARK  status: ('A' for Active; 'I' for Inactive)
REMARK    1  A    between atoms: O_1  and  C_13
REMARK    2  A    between atoms: O_1  and  C_25
REMARK    3  A    between atoms: O_3  and  C_33
REMARK    4  A    between atoms: N_5  and  C_14
REMARK    5  A    between atoms: C_9  and  C_20
REMARK    6  A    between atoms: C_14  and  C_21
REMARK    7  A    between atoms: C_22  and  C_26
REMARK    8  A    between atoms: C_31  and  C_33
REMARK                            x       y       z     vdW  Elec       q    Type
REMARK                         _______ _______ _______ _____ _____    ______ ____
ROOT
ATOM      2  O   UNL     1      11.509   9.178   6.791  0.00  0.00    -0.336 OA
ATOM      6  N   UNL     1      12.773   7.620   5.795  0.00  0.00    -0.190 NA
ATOM      7  N   UNL     1      12.799   9.717   6.710  0.00  0.00    -0.056 NA
ATOM     20  C   UNL     1      11.582   7.942   6.231  0.00  0.00    +0.245 A 
ATOM     22  C   UNL     1      13.486   8.740   6.111  0.00  0.00    +0.204 A 
ENDROOT
BRANCH  22  26
ATOM      8  N   UNL     1      16.960  10.065   6.069  0.00  0.00    -0.221 NA
ATOM     25  C   UNL     1      17.549   9.127   5.296  0.00  0.00    +0.215 A 
ATOM     26  C   UNL     1      14.884   8.850   5.816  0.00  0.00    +0.041 A 
ATOM     29  C   UNL     1      16.884   8.039   4.753  0.00  0.00    +0.068 A 
ATOM     30  C   UNL     1      15.527   7.906   5.023  0.00  0.00    +0.018 A 
ATOM     32  C   UNL     1      15.640   9.902   6.311  0.00  0.00    +0.126 A 
BRANCH  25   1
ATOM      1  O   UNL     1      18.887   9.280   5.043  0.00  0.00    -0.473 OA
BRANCH   1  13
ATOM     13  C   UNL     1      19.552   8.180   4.431  0.00  0.00    +0.175 C 
ATOM     15  C   UNL     1      20.588   7.605   5.396  0.00  0.00    +0.044 C 
ATOM     16  C   UNL     1      20.194   8.633   3.121  0.00  0.00    +0.044 C 
ATOM     17  C   UNL     1      21.396   6.484   4.750  0.00  0.00    +0.004 C 
ATOM     18  C   UNL     1      21.002   7.514   2.475  0.00  0.00    +0.004 C 
ATOM     19  C   UNL     1      22.036   6.938   3.440  0.00  0.00    +0.000 C 
ENDBRANCH   1  13
ENDBRANCH  25   1
ENDBRANCH  22  26
BRANCH  20   9
ATOM      5  N   UNL     1      10.435   5.881   5.436  0.00  0.00    -0.287 NA
ATOM      9  C   UNL     1      10.297   7.141   6.196  0.00  0.00    +0.146 C 
ATOM     10  C   UNL     1       9.830   6.704   7.596  0.00  0.00    +0.030 C 
ATOM     11  C   UNL     1       9.674   5.193   7.510  0.00  0.00    +0.017 C 
ATOM     12  C   UNL     1       9.487   4.937   6.029  0.00  0.00    +0.085 C 
BRANCH   5  14
ATOM     14  C   UNL     1      10.220   6.048   4.005  0.00  0.00    +0.120 C 
BRANCH  14  21
ATOM     21  C   UNL     1      11.332   5.434   3.197  0.00  0.00    -0.033 A 
ATOM     23  C   UNL     1      12.451   6.196   2.858  0.00  0.00    +0.006 A 
ATOM     24  C   UNL     1      11.246   4.103   2.788  0.00  0.00    +0.006 A 
ATOM     27  C   UNL     1      13.481   5.628   2.110  0.00  0.00    +0.015 A 
ATOM     28  C   UNL     1      12.277   3.535   2.039  0.00  0.00    +0.015 A 
ATOM     31  C   UNL     1      13.394   4.297   1.700  0.00  0.00    +0.059 A 
BRANCH  31  33
ATOM      4  O   UNL     1      14.512   3.645  -0.313  0.00  0.00    -0.245 OA
ATOM     33  C   UNL     1      14.469   3.704   0.921  0.00  0.00    +0.337 C 
BRANCH  33   3
ATOM      3  O   UNL     1      15.463   3.201   1.703  0.00  0.00    -0.477 OA
ATOM     34  H   UNL     1      15.196   2.361   2.136  0.00  0.00    +0.295 HD
ENDBRANCH  33   3
ENDBRANCH  31  33
ENDBRANCH  14  21
ENDBRANCH   5  14
ENDBRANCH  20   9
TORSDOF 8
ENDMDL
MODEL 4
REMARK VINA RESULT:      -7.1     27.530     30.464
REMARK  Name = 45783578
REMARK  8 active torsions:
REMARK  status: ('A' for Active; 'I' for Inactive)
REMARK    1  A    between atoms: O_1  and  C_13
REMARK    2  A    between atoms: O_1  and  C_25
REMARK    3  A    between atoms: O_3  and  C_33
REMARK    4  A    between atoms: N_5  and  C_14
REMARK    5  A    between atoms: C_9  and  C_20
REMARK    6  A    between atoms: C_14  and  C_21
REMARK    7  A    between atoms: C_22  and  C_26
REMARK    8  A    between atoms: C_31  and  C_33
REMARK                            x       y       z     vdW  Elec       q    Type
REMARK                         _______ _______ _______ _____ _____    ______ ____
ROOT
ATOM      2  O   UNL     1      -7.545 -10.714  20.010  0.00  0.00    -0.336 OA
ATOM      6  N   UNL     1      -7.659 -12.106  18.260  0.00  0.00    -0.190 NA
ATOM      7  N   UNL     1      -6.446 -10.409  19.197  0.00  0.00    -0.056 NA
ATOM     20  C   UNL     1      -8.205 -11.725  19.385  0.00  0.00    +0.245 A 
ATOM     22  C   UNL     1      -6.583 -11.271  18.186  0.00  0.00    +0.204 A 
ENDROOT
BRANCH  22  26
ATOM      8  N   UNL     1      -5.050 -12.270  14.949  0.00  0.00    -0.221 NA
ATOM     25  C   UNL     1      -3.953 -11.482  14.967  0.00  0.00    +0.215 A 
ATOM     26  C   UNL     1      -5.662 -11.325  17.089  0.00  0.00    +0.041 A 
ATOM     29  C   UNL     1      -3.645 -10.604  15.994  0.00  0.00    +0.068 A 
ATOM     30  C   UNL     1      -4.521 -10.530  17.071  0.00  0.00    +0.018 A 
ATOM     32  C   UNL     1      -5.879 -12.171  16.013  0.00  0.00    +0.126 A 
BRANCH  25   1
ATOM      1  O   UNL     1      -3.105 -11.573  13.895  0.00  0.00    -0.473 OA
BRANCH   1  13
ATOM     13  C   UNL     1      -3.103 -10.476  12.987  0.00  0.00    +0.175 C 
ATOM     15  C   UNL     1      -4.379 -10.504  12.146  0.00  0.00    +0.044 C 
ATOM     16  C   UNL     1      -1.852 -10.536  12.113  0.00  0.00    +0.044 C 
ATOM     17  C   UNL     1      -4.379  -9.404  11.090  0.00  0.00    +0.004 C 
ATOM     18  C   UNL     1      -1.851  -9.437  11.056  0.00  0.00    +0.004 C 
ATOM     19  C   UNL     1      -3.127  -9.463  10.218  0.00  0.00    +0.000 C 
ENDBRANCH   1  13
ENDBRANCH  25   1
ENDBRANCH  22  26
BRANCH  20   9
ATOM      5  N   UNL     1     -10.690 -11.854  19.371  0.00  0.00    -0.287 NA
ATOM      9  C   UNL     1      -9.451 -12.243  20.074  0.00  0.00    +0.146 C 
ATOM     10  C   UNL     1      -9.501 -13.780  20.134  0.00  0.00    +0.030 C 
ATOM     11  C   UNL     1     -10.830 -14.160  19.497  0.00  0.00    +0.017 C 
ATOM     12  C   UNL     1     -11.668 -12.907  19.646  0.00  0.00    +0.085 C 
BRANCH   5  14
ATOM     14  C   UNL     1     -11.180 -10.537  19.757  0.00  0.00    +0.120 C 
BRANCH  14  21
ATOM     21  C   UNL     1     -11.193  -9.582  18.593  0.00  0.00    -0.033 A 
ATOM     23  C   UNL     1     -10.012  -8.956  18.191  0.00  0.00    +0.006 A 
ATOM     24  C   UNL     1     -12.384  -9.322  17.916  0.00  0.00    +0.006 A 
ATOM     27  C   UNL     1     -10.023  -8.072  17.113  0.00  0.00    +0.015 A 
ATOM     28  C   UNL     1     -12.395  -8.436  16.837  0.00  0.00    +0.015 A 
ATOM     31  C   UNL     1     -11.214  -7.811  16.437  0.00  0.00    +0.059 A 
BRANCH  31  33
ATOM      4  O   UNL     1     -11.878  -7.035  14.272  0.00  0.00    -0.245 OA
ATOM     33  C   UNL     1     -11.226  -6.889  15.312  0.00  0.00    +0.337 C 
BRANCH  33   3
ATOM      3  O   UNL     1     -10.422  -5.809  15.516  0.00  0.00    -0.477 OA
ATOM     34  H   UNL     1      -9.471  -6.051  15.488  0.00  0.00    +0.295 HD
ENDBRANCH  33   3
ENDBRANCH  31  33
ENDBRANCH  14  21
ENDBRANCH   5  14
ENDBRANCH  20   9
TORSDOF 8
ENDMDL
MODEL 5
REMARK VINA RESULT:      -7.1     27.632     31.924
REMARK  Name = 45783578
REMARK  8 active torsions:
REMARK  status: ('A' for Active; 'I' for Inactive)
REMARK    1  A    between atoms: O_1  and  C_13
REMARK    2  A    between atoms: O_1  and  C_25
REMARK    3  A    between atoms: O_3  and  C_33
REMARK    4  A    between atoms: N_5  and  C_14
REMARK    5  A    between atoms: C_9  and  C_20
REMARK    6  A    between atoms: C_14  and  C_21
REMARK    7  A    between atoms: C_22  and  C_26
REMARK    8  A    between atoms: C_31  and  C_33
REMARK                            x       y       z     vdW  Elec       q    Type
REMARK                         _______ _______ _______ _____ _____    ______ ____
ROOT
ATOM      2  O   UNL     1      -8.118 -10.077   7.547  0.00  0.00    -0.336 OA
ATOM      6  N   UNL     1      -7.332  -8.052   8.091  0.00  0.00    -0.190 NA
ATOM      7  N   UNL     1      -9.236  -9.302   7.878  0.00  0.00    -0.056 NA
ATOM     20  C   UNL     1      -7.039  -9.266   7.700  0.00  0.00    +0.245 A 
ATOM     22  C   UNL     1      -8.691  -8.121   8.187  0.00  0.00    +0.204 A 
ENDROOT
BRANCH  22  26
ATOM      8  N   UNL     1      -9.713  -4.593   8.762  0.00  0.00    -0.221 NA
ATOM     25  C   UNL     1     -10.912  -4.800   9.351  0.00  0.00    +0.215 A 
ATOM     26  C   UNL     1      -9.475  -6.994   8.597  0.00  0.00    +0.041 A 
ATOM     29  C   UNL     1     -11.451  -6.053   9.595  0.00  0.00    +0.068 A 
ATOM     30  C   UNL     1     -10.713  -7.165   9.207  0.00  0.00    +0.018 A 
ATOM     32  C   UNL     1      -9.024  -5.699   8.399  0.00  0.00    +0.126 A 
BRANCH  25   1
ATOM      1  O   UNL     1     -11.621  -3.688   9.724  0.00  0.00    -0.473 OA
BRANCH   1  13
ATOM     13  C   UNL     1     -12.797  -3.910  10.495  0.00  0.00    +0.175 C 
ATOM     15  C   UNL     1     -13.977  -3.184   9.850  0.00  0.00    +0.044 C 
ATOM     16  C   UNL     1     -12.565  -3.440  11.931  0.00  0.00    +0.044 C 
ATOM     17  C   UNL     1     -15.242  -3.310  10.693  0.00  0.00    +0.004 C 
ATOM     18  C   UNL     1     -13.829  -3.565  12.774  0.00  0.00    +0.004 C 
ATOM     19  C   UNL     1     -15.010  -2.843  12.127  0.00  0.00    +0.000 C 
ENDBRANCH   1  13
ENDBRANCH  25   1
ENDBRANCH  22  26
BRANCH  20   9
ATOM      5  N   UNL     1      -4.977 -10.316   8.616  0.00  0.00    -0.287 NA
ATOM      9  C   UNL     1      -5.687  -9.878   7.397  0.00  0.00    +0.146 C 
ATOM     10  C   UNL     1      -5.789 -11.145   6.528  0.00  0.00    +0.030 C 
ATOM     11  C   UNL     1      -5.058 -12.225   7.311  0.00  0.00    +0.017 C 
ATOM     12  C   UNL     1      -4.132 -11.442   8.219  0.00  0.00    +0.085 C 
BRANCH   5  14
ATOM     14  C   UNL     1      -4.210  -9.251   9.248  0.00  0.00    +0.120 C 
BRANCH  14  21
ATOM     21  C   UNL     1      -3.681  -9.664  10.596  0.00  0.00    -0.033 A 
ATOM     23  C   UNL     1      -4.565 -10.064  11.599  0.00  0.00    +0.006 A 
ATOM     24  C   UNL     1      -2.309  -9.650  10.842  0.00  0.00    +0.006 A 
ATOM     27  C   UNL     1      -4.076 -10.448  12.847  0.00  0.00    +0.015 A 
ATOM     28  C   UNL     1      -1.819 -10.034  12.091  0.00  0.00    +0.015 A 
ATOM     31  C   UNL     1      -2.703 -10.432  13.094  0.00  0.00    +0.059 A 
BRANCH  31  33
ATOM      4  O   UNL     1      -2.353 -11.943  14.916  0.00  0.00    -0.245 OA
ATOM     33  C   UNL     1      -2.193 -10.834  14.395  0.00  0.00    +0.337 C 
BRANCH  33   3
ATOM      3  O   UNL     1      -1.497  -9.839  15.010  0.00  0.00    -0.477 OA
ATOM     34  H   UNL     1      -0.555 -10.082  15.146  0.00  0.00    +0.295 HD
ENDBRANCH  33   3
ENDBRANCH  31  33
ENDBRANCH  14  21
ENDBRANCH   5  14
ENDBRANCH  20   9
TORSDOF 8
ENDMDL
MODEL 6
REMARK VINA RESULT:      -7.0     27.527     30.721
REMARK  Name = 45783578
REMARK  8 active torsions:
REMARK  status: ('A' for Active; 'I' for Inactive)
REMARK    1  A    between atoms: O_1  and  C_13
REMARK    2  A    between atoms: O_1  and  C_25
REMARK    3  A    between atoms: O_3  and  C_33
REMARK    4  A    between atoms: N_5  and  C_14
REMARK    5  A    between atoms: C_9  and  C_20
REMARK    6  A    between atoms: C_14  and  C_21
REMARK    7  A    between atoms: C_22  and  C_26
REMARK    8  A    between atoms: C_31  and  C_33
REMARK                            x       y       z     vdW  Elec       q    Type
REMARK                         _______ _______ _______ _____ _____    ______ ____
ROOT
ATOM      2  O   UNL     1      -5.118 -11.520  12.760  0.00  0.00    -0.336 OA
ATOM      6  N   UNL     1      -4.587  -9.655  11.639  0.00  0.00    -0.190 NA
ATOM      7  N   UNL     1      -6.277 -11.133  12.076  0.00  0.00    -0.056 NA
ATOM     20  C   UNL     1      -4.172 -10.595  12.448  0.00  0.00    +0.245 A 
ATOM     22  C   UNL     1      -5.885 -10.026  11.438  0.00  0.00    +0.204 A 
ENDROOT
BRANCH  22  26
ATOM      8  N   UNL     1      -9.010  -8.539  10.080  0.00  0.00    -0.221 NA
ATOM     25  C   UNL     1      -8.496  -7.852   9.036  0.00  0.00    +0.215 A 
ATOM     26  C   UNL     1      -6.763  -9.269  10.596  0.00  0.00    +0.041 A 
ATOM     29  C   UNL     1      -7.149  -7.825   8.712  0.00  0.00    +0.068 A 
ATOM     30  C   UNL     1      -6.273  -8.549   9.512  0.00  0.00    +0.018 A 
ATOM     32  C   UNL     1      -8.128  -9.231  10.836  0.00  0.00    +0.126 A 
BRANCH  25   1
ATOM      1  O   UNL     1      -9.380  -7.146   8.263  0.00  0.00    -0.473 OA
BRANCH   1  13
ATOM     13  C   UNL     1     -10.271  -6.272   8.947  0.00  0.00    +0.175 C 
ATOM     15  C   UNL     1     -11.698  -6.507   8.455  0.00  0.00    +0.044 C 
ATOM     16  C   UNL     1      -9.834  -4.823   8.734  0.00  0.00    +0.044 C 
ATOM     17  C   UNL     1     -12.679  -5.525   9.088  0.00  0.00    +0.004 C 
ATOM     18  C   UNL     1     -10.814  -3.841   9.366  0.00  0.00    +0.004 C 
ATOM     19  C   UNL     1     -12.241  -4.078   8.876  0.00  0.00    +0.000 C 
ENDBRANCH   1  13
ENDBRANCH  25   1
ENDBRANCH  22  26
BRANCH  20   9
ATOM      5  N   UNL     1      -2.882 -11.267  14.468  0.00  0.00    -0.287 NA
ATOM      9  C   UNL     1      -2.805 -10.793  13.072  0.00  0.00    +0.146 C 
ATOM     10  C   UNL     1      -1.968 -11.858  12.342  0.00  0.00    +0.030 C 
ATOM     11  C   UNL     1      -1.569 -12.857  13.418  0.00  0.00    +0.017 C 
ATOM     12  C   UNL     1      -1.674 -12.059  14.702  0.00  0.00    +0.085 C 
BRANCH   5  14
ATOM     14  C   UNL     1      -3.026 -10.187  15.435  0.00  0.00    +0.120 C 
BRANCH  14  21
ATOM     21  C   UNL     1      -4.065 -10.502  16.477  0.00  0.00    -0.033 A 
ATOM     23  C   UNL     1      -5.375 -10.049  16.315  0.00  0.00    +0.006 A 
ATOM     24  C   UNL     1      -3.720 -11.247  17.604  0.00  0.00    +0.006 A 
ATOM     27  C   UNL     1      -6.339 -10.340  17.280  0.00  0.00    +0.015 A 
ATOM     28  C   UNL     1      -4.685 -11.539  18.570  0.00  0.00    +0.015 A 
ATOM     31  C   UNL     1      -5.993 -11.085  18.408  0.00  0.00    +0.059 A 
BRANCH  31  33
ATOM      4  O   UNL     1      -7.451 -12.514  19.656  0.00  0.00    -0.245 OA
ATOM     33  C   UNL     1      -6.998 -11.390  19.413  0.00  0.00    +0.337 C 
BRANCH  33   3
ATOM      3  O   UNL     1      -7.410 -10.283  20.090  0.00  0.00    -0.477 OA
ATOM     34  H   UNL     1      -7.325  -9.470  19.546  0.00  0.00    +0.295 HD
ENDBRANCH  33   3
ENDBRANCH  31  33
ENDBRANCH  14  21
ENDBRANCH   5  14
ENDBRANCH  20   9
TORSDOF 8
ENDMDL
MODEL 7
REMARK VINA RESULT:      -6.9     27.865     32.155
REMARK  Name = 45783578
REMARK  8 active torsions:
REMARK  status: ('A' for Active; 'I' for Inactive)
REMARK    1  A    between atoms: O_1  and  C_13
REMARK    2  A    between atoms: O_1  and  C_25
REMARK    3  A    between atoms: O_3  and  C_33
REMARK    4  A    between atoms: N_5  and  C_14
REMARK    5  A    between atoms: C_9  and  C_20
REMARK    6  A    between atoms: C_14  and  C_21
REMARK    7  A    between atoms: C_22  and  C_26
REMARK    8  A    between atoms: C_31  and  C_33
REMARK                            x       y       z     vdW  Elec       q    Type
REMARK                         _______ _______ _______ _____ _____    ______ ____
ROOT
ATOM      2  O   UNL     1     -10.809 -10.542  18.549  0.00  0.00    -0.336 OA
ATOM      6  N   UNL     1      -9.789  -9.578  16.804  0.00  0.00    -0.190 NA
ATOM      7  N   UNL     1     -11.666  -9.525  18.110  0.00  0.00    -0.056 NA
ATOM     20  C   UNL     1      -9.728 -10.504  17.726  0.00  0.00    +0.245 A 
ATOM     22  C   UNL     1     -10.995  -9.003  17.079  0.00  0.00    +0.204 A 
ENDROOT
BRANCH  22  26
ATOM      8  N   UNL     1     -13.363  -6.870  15.164  0.00  0.00    -0.221 NA
ATOM     25  C   UNL     1     -12.533  -5.856  14.831  0.00  0.00    +0.215 A 
ATOM     26  C   UNL     1     -11.500  -7.907  16.306  0.00  0.00    +0.041 A 
ATOM     29  C   UNL     1     -11.197  -5.797  15.192  0.00  0.00    +0.068 A 
ATOM     30  C   UNL     1     -10.679  -6.846  15.943  0.00  0.00    +0.018 A 
ATOM     32  C   UNL     1     -12.824  -7.871  15.895  0.00  0.00    +0.126 A 
BRANCH  25   1
ATOM      1  O   UNL     1     -13.067  -4.834  14.091  0.00  0.00    -0.473 OA
BRANCH   1  13
ATOM     13  C   UNL     1     -12.838  -4.876  12.686  0.00  0.00    +0.175 C 
ATOM     15  C   UNL     1     -12.137  -3.593  12.243  0.00  0.00    +0.044 C 
ATOM     16  C   UNL     1     -14.165  -5.073  11.956  0.00  0.00    +0.044 C 
ATOM     17  C   UNL     1     -11.957  -3.546  10.729  0.00  0.00    +0.004 C 
ATOM     18  C   UNL     1     -13.987  -5.026  10.443  0.00  0.00    +0.004 C 
ATOM     19  C   UNL     1     -13.284  -3.745  10.000  0.00  0.00    +0.000 C 
ENDBRANCH   1  13
ENDBRANCH  25   1
ENDBRANCH  22  26
BRANCH  20   9
ATOM      5  N   UNL     1      -8.191 -11.513  19.403  0.00  0.00    -0.287 NA
ATOM      9  C   UNL     1      -8.639 -11.522  17.996  0.00  0.00    +0.146 C 
ATOM     10  C   UNL     1      -9.102 -12.968  17.742  0.00  0.00    +0.030 C 
ATOM     11  C   UNL     1      -8.820 -13.710  19.041  0.00  0.00    +0.017 C 
ATOM     12  C   UNL     1      -7.744 -12.874  19.702  0.00  0.00    +0.085 C 
BRANCH   5  14
ATOM     14  C   UNL     1      -7.155 -10.524  19.669  0.00  0.00    +0.120 C 
BRANCH  14  21
ATOM     21  C   UNL     1      -5.989 -10.667  18.727  0.00  0.00    -0.033 A 
ATOM     23  C   UNL     1      -4.922 -11.502  19.060  0.00  0.00    +0.006 A 
ATOM     24  C   UNL     1      -5.977  -9.966  17.521  0.00  0.00    +0.006 A 
ATOM     27  C   UNL     1      -3.842 -11.635  18.187  0.00  0.00    +0.015 A 
ATOM     28  C   UNL     1      -4.896 -10.099  16.648  0.00  0.00    +0.015 A 
ATOM     31  C   UNL     1      -3.829 -10.933  16.982  0.00  0.00    +0.059 A 
BRANCH  31  33
ATOM      4  O   UNL     1      -2.785 -11.201  14.845  0.00  0.00    -0.245 OA
ATOM     33  C   UNL     1      -2.704 -11.072  16.071  0.00  0.00    +0.337 C 
BRANCH  33   3
ATOM      3  O   UNL     1      -1.505 -11.047  16.717  0.00  0.00    -0.477 OA
ATOM     34  H   UNL     1      -0.830 -10.542  16.214  0.00  0.00    +0.295 HD
ENDBRANCH  33   3
ENDBRANCH  31  33
ENDBRANCH  14  21
ENDBRANCH   5  14
ENDBRANCH  20   9
TORSDOF 8
ENDMDL
MODEL 8
REMARK VINA RESULT:      -6.8     28.441     29.901
REMARK  Name = 45783578
REMARK  8 active torsions:
REMARK  status: ('A' for Active; 'I' for Inactive)
REMARK    1  A    between atoms: O_1  and  C_13
REMARK    2  A    between atoms: O_1  and  C_25
REMARK    3  A    between atoms: O_3  and  C_33
REMARK    4  A    between atoms: N_5  and  C_14
REMARK    5  A    between atoms: C_9  and  C_20
REMARK    6  A    between atoms: C_14  and  C_21
REMARK    7  A    between atoms: C_22  and  C_26
REMARK    8  A    between atoms: C_31  and  C_33
REMARK                            x       y       z     vdW  Elec       q    Type
REMARK                         _______ _______ _______ _____ _____    ______ ____
ROOT
ATOM      2  O   UNL     1     -13.675  11.059  22.515  0.00  0.00    -0.336 OA
ATOM      6  N   UNL     1     -11.578  11.170  23.294  0.00  0.00    -0.190 NA
ATOM      7  N   UNL     1     -13.781  11.145  23.909  0.00  0.00    -0.056 NA
ATOM     20  C   UNL     1     -12.344  11.079  22.238  0.00  0.00    +0.245 A 
ATOM     22  C   UNL     1     -12.504  11.208  24.296  0.00  0.00    +0.204 A 
ENDROOT
BRANCH  22  26
ATOM      8  N   UNL     1     -12.286  12.469  27.787  0.00  0.00    -0.221 NA
ATOM     25  C   UNL     1     -11.432  11.558  28.302  0.00  0.00    +0.215 A 
ATOM     26  C   UNL     1     -12.120  11.306  25.673  0.00  0.00    +0.041 A 
ATOM     29  C   UNL     1     -10.887  10.509  27.579  0.00  0.00    +0.068 A 
ATOM     30  C   UNL     1     -11.243  10.388  26.240  0.00  0.00    +0.018 A 
ATOM     32  C   UNL     1     -12.609  12.319  26.482  0.00  0.00    +0.126 A 
BRANCH  25   1
ATOM      1  O   UNL     1     -11.097  11.698  29.623  0.00  0.00    -0.473 OA
BRANCH   1  13
ATOM     13  C   UNL     1     -11.220  10.538  30.440  0.00  0.00    +0.175 C 
ATOM     15  C   UNL     1     -12.698  10.229  30.671  0.00  0.00    +0.044 C 
ATOM     16  C   UNL     1     -10.478  10.758  31.757  0.00  0.00    +0.044 C 
ATOM     17  C   UNL     1     -12.882   9.050  31.623  0.00  0.00    +0.004 C 
ATOM     18  C   UNL     1     -10.662   9.581  32.709  0.00  0.00    +0.004 C 
ATOM     19  C   UNL     1     -12.139   9.270  32.938  0.00  0.00    +0.000 C 
ENDBRANCH   1  13
ENDBRANCH  25   1
ENDBRANCH  22  26
BRANCH  20   9
ATOM      5  N   UNL     1     -12.575   9.843  20.091  0.00  0.00    -0.287 NA
ATOM      9  C   UNL     1     -11.960  10.997  20.775  0.00  0.00    +0.146 C 
ATOM     10  C   UNL     1     -12.425  12.223  19.969  0.00  0.00    +0.030 C 
ATOM     11  C   UNL     1     -13.244  11.656  18.819  0.00  0.00    +0.017 C 
ATOM     12  C   UNL     1     -12.740  10.233  18.690  0.00  0.00    +0.085 C 
BRANCH   5  14
ATOM     14  C   UNL     1     -11.803   8.614  20.230  0.00  0.00    +0.120 C 
BRANCH  14  21
ATOM     21  C   UNL     1     -12.577   7.546  20.956  0.00  0.00    -0.033 A 
ATOM     23  C   UNL     1     -13.887   7.792  21.368  0.00  0.00    +0.006 A 
ATOM     24  C   UNL     1     -11.985   6.311  21.216  0.00  0.00    +0.006 A 
ATOM     27  C   UNL     1     -14.605   6.804  22.040  0.00  0.00    +0.015 A 
ATOM     28  C   UNL     1     -12.703   5.321  21.890  0.00  0.00    +0.015 A 
ATOM     31  C   UNL     1     -14.012   5.568  22.301  0.00  0.00    +0.059 A 
BRANCH  31  33
ATOM      4  O   UNL     1     -15.776   3.974  22.577  0.00  0.00    -0.245 OA
ATOM     33  C   UNL     1     -14.761   4.536  23.001  0.00  0.00    +0.337 C 
BRANCH  33   3
ATOM      3  O   UNL     1     -14.220   4.234  24.214  0.00  0.00    -0.477 OA
ATOM     34  H   UNL     1     -14.476   4.887  24.901  0.00  0.00    +0.295 HD
ENDBRANCH  33   3
ENDBRANCH  31  33
ENDBRANCH  14  21
ENDBRANCH   5  14
ENDBRANCH  20   9
TORSDOF 8
ENDMDL
MODEL 9
REMARK VINA RESULT:      -6.8     27.271     31.001
REMARK  Name = 45783578
REMARK  8 active torsions:
REMARK  status: ('A' for Active; 'I' for Inactive)
REMARK    1  A    between atoms: O_1  and  C_13
REMARK    2  A    between atoms: O_1  and  C_25
REMARK    3  A    between atoms: O_3  and  C_33
REMARK    4  A    between atoms: N_5  and  C_14
REMARK    5  A    between atoms: C_9  and  C_20
REMARK    6  A    between atoms: C_14  and  C_21
REMARK    7  A    between atoms: C_22  and  C_26
REMARK    8  A    between atoms: C_31  and  C_33
REMARK                            x       y       z     vdW  Elec       q    Type
REMARK                         _______ _______ _______ _____ _____    ______ ____
ROOT
ATOM      2  O   UNL     1      -4.276 -13.246  15.471  0.00  0.00    -0.336 OA
ATOM      6  N   UNL     1      -4.490 -11.286  16.533  0.00  0.00    -0.190 NA
ATOM      7  N   UNL     1      -5.460 -13.334  16.214  0.00  0.00    -0.056 NA
ATOM     20  C   UNL     1      -3.769 -12.010  15.717  0.00  0.00    +0.245 A 
ATOM     22  C   UNL     1      -5.517 -12.140  16.813  0.00  0.00    +0.204 A 
ENDROOT
BRANCH  22  26
ATOM      8  N   UNL     1      -7.450 -11.641  19.949  0.00  0.00    -0.221 NA
ATOM     25  C   UNL     1      -8.574 -11.096  19.436  0.00  0.00    +0.215 A 
ATOM     26  C   UNL     1      -6.585 -11.771  17.695  0.00  0.00    +0.041 A 
ATOM     29  C   UNL     1      -8.776 -10.861  18.085  0.00  0.00    +0.068 A 
ATOM     30  C   UNL     1      -7.758 -11.208  17.206  0.00  0.00    +0.018 A 
ATOM     32  C   UNL     1      -6.481 -11.965  19.064  0.00  0.00    +0.126 A 
BRANCH  25   1
ATOM      1  O   UNL     1      -9.564 -10.762  20.323  0.00  0.00    -0.473 OA
BRANCH   1  13
ATOM     13  C   UNL     1     -10.903 -11.021  19.913  0.00  0.00    +0.175 C 
ATOM     15  C   UNL     1     -11.813  -9.889  20.390  0.00  0.00    +0.044 C 
ATOM     16  C   UNL     1     -11.354 -12.374  20.460  0.00  0.00    +0.044 C 
ATOM     17  C   UNL     1     -13.275 -10.169  20.060  0.00  0.00    +0.004 C 
ATOM     18  C   UNL     1     -12.816 -12.654  20.131  0.00  0.00    +0.004 C 
ATOM     19  C   UNL     1     -13.725 -11.522  20.606  0.00  0.00    +0.000 C 
ENDBRANCH   1  13
ENDBRANCH  25   1
ENDBRANCH  22  26
BRANCH  20   9
ATOM      5  N   UNL     1      -2.666 -10.738  13.883  0.00  0.00    -0.287 NA
ATOM      9  C   UNL     1      -2.470 -11.663  15.017  0.00  0.00    +0.146 C 
ATOM     10  C   UNL     1      -1.472 -10.942  15.941  0.00  0.00    +0.030 C 
ATOM     11  C   UNL     1      -1.118  -9.652  15.216  0.00  0.00    +0.017 C 
ATOM     12  C   UNL     1      -1.433  -9.960  13.766  0.00  0.00    +0.085 C 
BRANCH   5  14
ATOM     14  C   UNL     1      -3.005 -11.418  12.639  0.00  0.00    +0.120 C 
BRANCH  14  21
ATOM     21  C   UNL     1      -3.995 -10.632  11.822  0.00  0.00    -0.033 A 
ATOM     23  C   UNL     1      -5.066  -9.994  12.449  0.00  0.00    +0.006 A 
ATOM     24  C   UNL     1      -3.842 -10.539  10.439  0.00  0.00    +0.006 A 
ATOM     27  C   UNL     1      -5.983  -9.264  11.693  0.00  0.00    +0.015 A 
ATOM     28  C   UNL     1      -4.760  -9.809   9.683  0.00  0.00    +0.015 A 
ATOM     31  C   UNL     1      -5.830  -9.172  10.310  0.00  0.00    +0.059 A 
BRANCH  31  33
ATOM      4  O   UNL     1      -8.005  -8.612   9.483  0.00  0.00    -0.245 OA
ATOM     33  C   UNL     1      -6.786  -8.411   9.522  0.00  0.00    +0.337 C 
BRANCH  33   3
ATOM      3  O   UNL     1      -6.194  -7.419   8.802  0.00  0.00    -0.477 OA
ATOM     34  H   UNL     1      -6.822  -6.995   8.178  0.00  0.00    +0.295 HD
ENDBRANCH  33   3
ENDBRANCH  31  33
ENDBRANCH  14  21
ENDBRANCH   5  14
ENDBRANCH  20   9
TORSDOF 8
ENDMDL
MODEL 10
REMARK VINA RESULT:      -6.7     13.973     16.056
REMARK  Name = 45783578
REMARK  8 active torsions:
REMARK  status: ('A' for Active; 'I' for Inactive)
REMARK    1  A    between atoms: O_1  and  C_13
REMARK    2  A    between atoms: O_1  and  C_25
REMARK    3  A    between atoms: O_3  and  C_33
REMARK    4  A    between atoms: N_5  and  C_14
REMARK    5  A    between atoms: C_9  and  C_20
REMARK    6  A    between atoms: C_14  and  C_21
REMARK    7  A    between atoms: C_22  and  C_26
REMARK    8  A    between atoms: C_31  and  C_33
REMARK                            x       y       z     vdW  Elec       q    Type
REMARK                         _______ _______ _______ _____ _____    ______ ____
ROOT
ATOM      2  O   UNL     1      11.034   8.527   3.190  0.00  0.00    -0.336 OA
ATOM      6  N   UNL     1      11.755  10.256   4.418  0.00  0.00    -0.190 NA
ATOM      7  N   UNL     1      12.378   8.265   3.479  0.00  0.00    -0.056 NA
ATOM     20  C   UNL     1      10.748   9.719   3.779  0.00  0.00    +0.245 A 
ATOM     22  C   UNL     1      12.733   9.329   4.206  0.00  0.00    +0.204 A 
ENDROOT
BRANCH  22  26
ATOM      8  N   UNL     1      15.797   8.732   6.226  0.00  0.00    -0.221 NA
ATOM     25  C   UNL     1      16.562   9.753   5.781  0.00  0.00    +0.215 A 
ATOM     26  C   UNL     1      14.056   9.497   4.732  0.00  0.00    +0.041 A 
ATOM     29  C   UNL     1      16.152  10.673   4.830  0.00  0.00    +0.068 A 
ATOM     30  C   UNL     1      14.874  10.535   4.301  0.00  0.00    +0.018 A 
ATOM     32  C   UNL     1      14.560   8.629   5.689  0.00  0.00    +0.126 A 
BRANCH  25   1
ATOM      1  O   UNL     1      17.817   9.868   6.318  0.00  0.00    -0.473 OA
BRANCH   1  13
ATOM     13  C   UNL     1      18.680   8.744   6.173  0.00  0.00    +0.175 C 
ATOM     15  C   UNL     1      19.943   8.956   7.006  0.00  0.00    +0.044 C 
ATOM     16  C   UNL     1      19.009   8.538   4.695  0.00  0.00    +0.044 C 
ATOM     17  C   UNL     1      20.943   7.822   6.808  0.00  0.00    +0.004 C 
ATOM     18  C   UNL     1      20.009   7.405   4.495  0.00  0.00    +0.004 C 
ATOM     19  C   UNL     1      21.271   7.615   5.331  0.00  0.00    +0.000 C 
ENDBRANCH   1  13
ENDBRANCH  25   1
ENDBRANCH  22  26
BRANCH  20   9
ATOM      5  N   UNL     1       8.466   9.890   4.758  0.00  0.00    -0.287 NA
ATOM      9  C   UNL     1       9.332  10.231   3.611  0.00  0.00    +0.146 C 
ATOM     10  C   UNL     1       9.263  11.766   3.512  0.00  0.00    +0.030 C 
ATOM     11  C   UNL     1       8.290  12.192   4.602  0.00  0.00    +0.017 C 
ATOM     12  C   UNL     1       7.459  10.948   4.843  0.00  0.00    +0.085 C 
BRANCH   5  14
ATOM     14  C   UNL     1       7.864   8.567   4.649  0.00  0.00    +0.120 C 
BRANCH  14  21
ATOM     21  C   UNL     1       8.432   7.608   5.661  0.00  0.00    -0.033 A 
ATOM     23  C   UNL     1       8.889   6.355   5.254  0.00  0.00    +0.006 A 
ATOM     24  C   UNL     1       8.502   7.973   7.005  0.00  0.00    +0.006 A 
ATOM     27  C   UNL     1       9.415   5.466   6.191  0.00  0.00    +0.015 A 
ATOM     28  C   UNL     1       9.029   7.083   7.943  0.00  0.00    +0.015 A 
ATOM     31  C   UNL     1       9.485   5.830   7.535  0.00  0.00    +0.059 A 
BRANCH  31  33
ATOM      4  O   UNL     1      10.260   5.164   9.699  0.00  0.00    -0.245 OA
ATOM     33  C   UNL     1      10.034   4.904   8.512  0.00  0.00    +0.337 C 
BRANCH  33   3
ATOM      3  O   UNL     1      10.287   3.676   7.981  0.00  0.00    -0.477 OA
ATOM     34  H   UNL     1      11.193   3.619   7.606  0.00  0.00    +0.295 HD
ENDBRANCH  33   3
ENDBRANCH  31  33
ENDBRANCH  14  21
ENDBRANCH   5  14
ENDBRANCH  20   9
TORSDOF 8
ENDMDL
