MODEL 1
REMARK VINA RESULT:      -6.2      0.000      0.000
REMARK  Name = 26742334
REMARK  9 active torsions:
REMARK  status: ('A' for Active; 'I' for Inactive)
REMARK    1  A    between atoms: O_2  and  C_22
REMARK    2  A    between atoms: O_2  and  C_29
REMARK    3  A    between atoms: N_4  and  C_19
REMARK    4  A    between atoms: N_5  and  C_16
REMARK    5  A    between atoms: N_7  and  C_24
REMARK    6  A    between atoms: C_9  and  C_15
REMARK    7  A    between atoms: C_10  and  C_16
REMARK    8  A    between atoms: C_18  and  C_21
REMARK    9  A    between atoms: C_24  and  C_28
REMARK                            x       y       z     vdW  Elec       q    Type
REMARK                         _______ _______ _______ _____ _____    ______ ____
ROOT
ATOM      3  N   UNL     1      13.112   7.417  18.991  0.00  0.00    -0.297 NA
ATOM      8  C   UNL     1      14.153   9.746  18.470  0.00  0.00    +0.002 C 
ATOM      9  C   UNL     1      14.883   9.081  19.669  0.00  0.00    +0.055 C 
ATOM     10  C   UNL     1      12.039   8.441  18.888  0.00  0.00    +0.074 C 
ATOM     11  C   UNL     1      12.648   9.857  18.786  0.00  0.00    +0.024 C 
ATOM     12  C   UNL     1      14.297   8.782  17.272  0.00  0.00    +0.019 C 
ATOM     13  C   UNL     1      14.083   7.801  20.047  0.00  0.00    +0.094 C 
ATOM     14  C   UNL     1      13.830   7.378  17.694  0.00  0.00    +0.085 C 
ENDROOT
BRANCH   9  15
ATOM      4  N   UNL     1      16.448  10.028  21.428  0.00  0.00    -0.270 N 
ATOM      6  N   UNL     1      16.520  10.839  22.497  0.00  0.00    -0.171 NA
ATOM     15  C   UNL     1      15.201   9.941  20.884  0.00  0.00    +0.044 A 
ATOM     17  C   UNL     1      14.400  10.753  21.650  0.00  0.00    +0.053 A 
ATOM     18  C   UNL     1      15.265  11.279  22.628  0.00  0.00    +0.096 A 
ATOM     19  C   UNL     1      17.642   9.350  20.977  0.00  0.00    +0.172 C 
BRANCH  18  21
ATOM     21  C   UNL     1      14.917  12.193  23.684  0.00  0.00    +0.044 A 
ATOM     22  C   UNL     1      14.881  13.569  23.457  0.00  0.00    +0.129 A 
ATOM     23  C   UNL     1      14.614  11.687  24.947  0.00  0.00    +0.014 A 
ATOM     25  C   UNL     1      14.541  14.439  24.494  0.00  0.00    +0.046 A 
ATOM     26  C   UNL     1      14.275  12.556  25.985  0.00  0.00    +0.001 A 
ATOM     27  C   UNL     1      14.238  13.932  25.758  0.00  0.00    +0.004 A 
BRANCH  22   2
ATOM      2  O   UNL     1      15.172  14.093  22.233  0.00  0.00    -0.494 OA
ATOM     29  C   UNL     1      14.336  15.149  21.765  0.00  0.00    +0.277 C 
ENDBRANCH  22   2
ENDBRANCH  18  21
ENDBRANCH   9  15
BRANCH  10  16
ATOM     16  C   UNL     1      11.023   8.338  20.027  0.00  0.00    +0.124 C 
BRANCH  16   5
ATOM      1  O   UNL     1      10.835   8.506  22.890  0.00  0.00    -0.253 OA
ATOM      5  N   UNL     1      11.017   9.532  20.816  0.00  0.00    -0.298 N 
ATOM      7  N   UNL     1      10.938  10.820  22.732  0.00  0.00    -0.295 N 
ATOM     20  C   UNL     1      10.922   9.529  22.212  0.00  0.00    +0.300 C 
ATOM     35  H   UNL     1      11.037  10.426  20.336  0.00  0.00    +0.150 HD
ATOM     36  H   UNL     1      11.038  11.601  22.090  0.00  0.00    +0.151 HD
BRANCH   7  24
ATOM     24  C   UNL     1      10.854  11.105  24.145  0.00  0.00    +0.141 C 
BRANCH  24  28
ATOM     28  C   UNL     1      10.837  12.581  24.421  0.00  0.00    -0.030 A 
ATOM     30  C   UNL     1      10.633  13.045  25.721  0.00  0.00    +0.005 A 
ATOM     31  C   UNL     1      11.026  13.488  23.378  0.00  0.00    +0.005 A 
ATOM     32  C   UNL     1      10.618  14.416  25.977  0.00  0.00    +0.000 A 
ATOM     33  C   UNL     1      11.011  14.858  23.634  0.00  0.00    +0.000 A 
ATOM     34  C   UNL     1      10.807  15.323  24.934  0.00  0.00    +0.000 A 
ENDBRANCH  24  28
ENDBRANCH   7  24
ENDBRANCH  16   5
ENDBRANCH  10  16
TORSDOF 7
ENDMDL
MODEL 2
REMARK VINA RESULT:      -6.2     27.729     31.084
REMARK  Name = 26742334
REMARK  9 active torsions:
REMARK  status: ('A' for Active; 'I' for Inactive)
REMARK    1  A    between atoms: O_2  and  C_22
REMARK    2  A    between atoms: O_2  and  C_29
REMARK    3  A    between atoms: N_4  and  C_19
REMARK    4  A    between atoms: N_5  and  C_16
REMARK    5  A    between atoms: N_7  and  C_24
REMARK    6  A    between atoms: C_9  and  C_15
REMARK    7  A    between atoms: C_10  and  C_16
REMARK    8  A    between atoms: C_18  and  C_21
REMARK    9  A    between atoms: C_24  and  C_28
REMARK                            x       y       z     vdW  Elec       q    Type
REMARK                         _______ _______ _______ _____ _____    ______ ____
ROOT
ATOM      3  N   UNL     1      -6.635 -10.694  17.972  0.00  0.00    -0.297 NA
ATOM      8  C   UNL     1      -4.382 -11.941  17.585  0.00  0.00    +0.002 C 
ATOM      9  C   UNL     1      -4.413 -10.613  16.779  0.00  0.00    +0.055 C 
ATOM     10  C   UNL     1      -6.895 -12.113  17.614  0.00  0.00    +0.074 C 
ATOM     11  C   UNL     1      -5.588 -12.813  17.181  0.00  0.00    +0.024 C 
ATOM     12  C   UNL     1      -4.571 -11.564  19.070  0.00  0.00    +0.019 C 
ATOM     13  C   UNL     1      -5.852 -10.033  16.897  0.00  0.00    +0.094 C 
ATOM     14  C   UNL     1      -5.821 -10.679  19.212  0.00  0.00    +0.085 C 
ENDROOT
BRANCH   9  15
ATOM      4  N   UNL     1      -2.594 -10.617  15.009  0.00  0.00    -0.270 N 
ATOM      6  N   UNL     1      -2.364 -10.639  13.686  0.00  0.00    -0.171 NA
ATOM     15  C   UNL     1      -3.917 -10.633  15.340  0.00  0.00    +0.044 A 
ATOM     17  C   UNL     1      -4.601 -10.669  14.150  0.00  0.00    +0.053 A 
ATOM     18  C   UNL     1      -3.595 -10.670  13.165  0.00  0.00    +0.096 A 
ATOM     19  C   UNL     1      -1.472 -10.576  15.919  0.00  0.00    +0.172 C 
BRANCH  18  21
ATOM     21  C   UNL     1      -3.785 -10.700  11.739  0.00  0.00    +0.044 A 
ATOM     22  C   UNL     1      -4.144 -11.881  11.090  0.00  0.00    +0.129 A 
ATOM     23  C   UNL     1      -3.605  -9.528  11.005  0.00  0.00    +0.014 A 
ATOM     25  C   UNL     1      -4.324 -11.890   9.705  0.00  0.00    +0.046 A 
ATOM     26  C   UNL     1      -3.784  -9.536   9.622  0.00  0.00    +0.001 A 
ATOM     27  C   UNL     1      -4.143 -10.717   8.972  0.00  0.00    +0.004 A 
BRANCH  22   2
ATOM      2  O   UNL     1      -4.326 -13.042  11.781  0.00  0.00    -0.494 OA
ATOM     29  C   UNL     1      -3.299 -14.026  11.676  0.00  0.00    +0.277 C 
ENDBRANCH  22   2
ENDBRANCH  18  21
ENDBRANCH   9  15
BRANCH  10  16
ATOM     16  C   UNL     1      -7.995 -12.256  16.561  0.00  0.00    +0.124 C 
BRANCH  16   5
ATOM      1  O   UNL     1      -9.417 -12.294  14.063  0.00  0.00    -0.253 OA
ATOM      5  N   UNL     1      -7.434 -12.450  15.259  0.00  0.00    -0.298 N 
ATOM      7  N   UNL     1      -7.408 -12.662  12.958  0.00  0.00    -0.295 N 
ATOM     20  C   UNL     1      -8.197 -12.454  14.086  0.00  0.00    +0.300 C 
ATOM     35  H   UNL     1      -6.439 -12.638  15.187  0.00  0.00    +0.150 HD
ATOM     36  H   UNL     1      -6.405 -12.760  13.079  0.00  0.00    +0.151 HD
BRANCH   7  24
ATOM     24  C   UNL     1      -7.943 -12.713  11.618  0.00  0.00    +0.141 C 
BRANCH  24  28
ATOM     28  C   UNL     1      -7.776 -11.406  10.897  0.00  0.00    -0.030 A 
ATOM     30  C   UNL     1      -7.424 -10.258  11.607  0.00  0.00    +0.005 A 
ATOM     31  C   UNL     1      -7.973 -11.340   9.517  0.00  0.00    +0.005 A 
ATOM     32  C   UNL     1      -7.269  -9.044  10.937  0.00  0.00    +0.000 A 
ATOM     33  C   UNL     1      -7.818 -10.127   8.848  0.00  0.00    +0.000 A 
ATOM     34  C   UNL     1      -7.466  -8.978   9.557  0.00  0.00    +0.000 A 
ENDBRANCH  24  28
ENDBRANCH   7  24
ENDBRANCH  16   5
ENDBRANCH  10  16
TORSDOF 7
ENDMDL
MODEL 3
REMARK VINA RESULT:      -5.9     28.284     30.584
REMARK  Name = 26742334
REMARK  9 active torsions:
REMARK  status: ('A' for Active; 'I' for Inactive)
REMARK    1  A    between atoms: O_2  and  C_22
REMARK    2  A    between atoms: O_2  and  C_29
REMARK    3  A    between atoms: N_4  and  C_19
REMARK    4  A    between atoms: N_5  and  C_16
REMARK    5  A    between atoms: N_7  and  C_24
REMARK    6  A    between atoms: C_9  and  C_15
REMARK    7  A    between atoms: C_10  and  C_16
REMARK    8  A    between atoms: C_18  and  C_21
REMARK    9  A    between atoms: C_24  and  C_28
REMARK                            x       y       z     vdW  Elec       q    Type
REMARK                         _______ _______ _______ _____ _____    ______ ____
ROOT
ATOM      3  N   UNL     1      -6.188 -10.529   9.660  0.00  0.00    -0.297 NA
ATOM      8  C   UNL     1      -4.314  -9.058  10.713  0.00  0.00    +0.002 C 
ATOM      9  C   UNL     1      -4.233 -10.511  11.256  0.00  0.00    +0.055 C 
ATOM     10  C   UNL     1      -6.770  -9.270  10.194  0.00  0.00    +0.074 C 
ATOM     11  C   UNL     1      -5.716  -8.482  11.001  0.00  0.00    +0.024 C 
ATOM     12  C   UNL     1      -4.167  -9.148   9.178  0.00  0.00    +0.019 C 
ATOM     13  C   UNL     1      -5.493 -11.268  10.745  0.00  0.00    +0.094 C 
ATOM     14  C   UNL     1      -5.183 -10.166   8.632  0.00  0.00    +0.085 C 
ENDROOT
BRANCH   9  15
ATOM      4  N   UNL     1      -2.787 -10.576  13.340  0.00  0.00    -0.270 N 
ATOM      6  N   UNL     1      -2.799 -10.793  14.666  0.00  0.00    -0.171 NA
ATOM     15  C   UNL     1      -4.008 -10.709  12.748  0.00  0.00    +0.044 A 
ATOM     17  C   UNL     1      -4.881 -11.036  13.757  0.00  0.00    +0.053 A 
ATOM     18  C   UNL     1      -4.081 -11.074  14.915  0.00  0.00    +0.096 A 
ATOM     19  C   UNL     1      -1.539 -10.241  12.693  0.00  0.00    +0.172 C 
BRANCH  18  21
ATOM     21  C   UNL     1      -4.518 -11.374  16.254  0.00  0.00    +0.044 A 
ATOM     22  C   UNL     1      -4.587 -12.692  16.705  0.00  0.00    +0.129 A 
ATOM     23  C   UNL     1      -4.874 -10.327  17.103  0.00  0.00    +0.014 A 
ATOM     25  C   UNL     1      -5.013 -12.962  18.007  0.00  0.00    +0.046 A 
ATOM     26  C   UNL     1      -5.300 -10.596  18.403  0.00  0.00    +0.001 A 
ATOM     27  C   UNL     1      -5.370 -11.914  18.855  0.00  0.00    +0.004 A 
BRANCH  22   2
ATOM      2  O   UNL     1      -4.246 -13.736  15.898  0.00  0.00    -0.494 OA
ATOM     29  C   UNL     1      -5.300 -14.598  15.474  0.00  0.00    +0.277 C 
ENDBRANCH  22   2
ENDBRANCH  18  21
ENDBRANCH   9  15
BRANCH  10  16
ATOM     16  C   UNL     1      -8.044  -9.515  11.005  0.00  0.00    +0.124 C 
BRANCH  16   5
ATOM      1  O   UNL     1      -9.978  -9.450  13.131  0.00  0.00    -0.253 OA
ATOM      5  N   UNL     1      -7.772  -9.471  12.409  0.00  0.00    -0.298 N 
ATOM      7  N   UNL     1      -8.241  -9.402  14.670  0.00  0.00    -0.295 N 
ATOM     20  C   UNL     1      -8.774  -9.442  13.385  0.00  0.00    +0.300 C 
ATOM     35  H   UNL     1      -6.804  -9.414  12.710  0.00  0.00    +0.150 HD
ATOM     36  H   UNL     1      -7.231  -9.423  14.777  0.00  0.00    +0.151 HD
BRANCH   7  24
ATOM     24  C   UNL     1      -9.053  -9.366  15.863  0.00  0.00    +0.141 C 
BRANCH  24  28
ATOM     28  C   UNL     1      -8.935 -10.631  16.662  0.00  0.00    -0.030 A 
ATOM     30  C   UNL     1      -9.232 -10.626  18.026  0.00  0.00    +0.005 A 
ATOM     31  C   UNL     1      -8.528 -11.813  16.043  0.00  0.00    +0.005 A 
ATOM     32  C   UNL     1      -9.122 -11.801  18.768  0.00  0.00    +0.000 A 
ATOM     33  C   UNL     1      -8.418 -12.988  16.784  0.00  0.00    +0.000 A 
ATOM     34  C   UNL     1      -8.716 -12.983  18.148  0.00  0.00    +0.000 A 
ENDBRANCH  24  28
ENDBRANCH   7  24
ENDBRANCH  16   5
ENDBRANCH  10  16
TORSDOF 7
ENDMDL
MODEL 4
REMARK VINA RESULT:      -5.7     28.145     30.830
REMARK  Name = 26742334
REMARK  9 active torsions:
REMARK  status: ('A' for Active; 'I' for Inactive)
REMARK    1  A    between atoms: O_2  and  C_22
REMARK    2  A    between atoms: O_2  and  C_29
REMARK    3  A    between atoms: N_4  and  C_19
REMARK    4  A    between atoms: N_5  and  C_16
REMARK    5  A    between atoms: N_7  and  C_24
REMARK    6  A    between atoms: C_9  and  C_15
REMARK    7  A    between atoms: C_10  and  C_16
REMARK    8  A    between atoms: C_18  and  C_21
REMARK    9  A    between atoms: C_24  and  C_28
REMARK                            x       y       z     vdW  Elec       q    Type
REMARK                         _______ _______ _______ _____ _____    ______ ____
ROOT
ATOM      3  N   UNL     1      -9.887  -8.538  16.534  0.00  0.00    -0.297 NA
ATOM      8  C   UNL     1      -9.400 -10.925  17.453  0.00  0.00    +0.002 C 
ATOM      9  C   UNL     1      -8.218  -9.969  17.771  0.00  0.00    +0.055 C 
ATOM     10  C   UNL     1     -10.125  -9.549  15.471  0.00  0.00    +0.074 C 
ATOM     11  C   UNL     1      -9.646 -10.943  15.930  0.00  0.00    +0.024 C 
ATOM     12  C   UNL     1     -10.657 -10.312  18.109  0.00  0.00    +0.019 C 
ATOM     13  C   UNL     1      -8.488  -8.632  17.022  0.00  0.00    +0.094 C 
ATOM     14  C   UNL     1     -10.793  -8.845  17.667  0.00  0.00    +0.085 C 
ENDROOT
BRANCH   9  15
ATOM      4  N   UNL     1      -6.026 -10.985  18.549  0.00  0.00    -0.270 N 
ATOM      6  N   UNL     1      -4.807 -11.380  18.146  0.00  0.00    -0.171 NA
ATOM     15  C   UNL     1      -6.801 -10.478  17.548  0.00  0.00    +0.044 A 
ATOM     17  C   UNL     1      -6.035 -10.546  16.410  0.00  0.00    +0.053 A 
ATOM     18  C   UNL     1      -4.818 -11.109  16.837  0.00  0.00    +0.096 A 
ATOM     19  C   UNL     1      -6.387 -11.123  19.941  0.00  0.00    +0.172 C 
BRANCH  18  21
ATOM     21  C   UNL     1      -3.666 -11.392  16.022  0.00  0.00    +0.044 A 
ATOM     22  C   UNL     1      -3.652 -12.489  15.160  0.00  0.00    +0.129 A 
ATOM     23  C   UNL     1      -2.554 -10.555  16.103  0.00  0.00    +0.014 A 
ATOM     25  C   UNL     1      -2.525 -12.746  14.377  0.00  0.00    +0.046 A 
ATOM     26  C   UNL     1      -1.428 -10.812  15.322  0.00  0.00    +0.001 A 
ATOM     27  C   UNL     1      -1.413 -11.908  14.459  0.00  0.00    +0.004 A 
BRANCH  22   2
ATOM      2  O   UNL     1      -4.723 -13.325  15.060  0.00  0.00    -0.494 OA
ATOM     29  C   UNL     1      -4.986 -13.890  13.777  0.00  0.00    +0.277 C 
ENDBRANCH  22   2
ENDBRANCH  18  21
ENDBRANCH   9  15
BRANCH  10  16
ATOM     16  C   UNL     1      -9.505  -9.145  14.132  0.00  0.00    +0.124 C 
BRANCH  16   5
ATOM      1  O   UNL     1      -8.495  -9.627  11.484  0.00  0.00    -0.253 OA
ATOM      5  N   UNL     1      -8.448 -10.038  13.769  0.00  0.00    -0.298 N 
ATOM      7  N   UNL     1      -6.973 -11.140  12.372  0.00  0.00    -0.295 N 
ATOM     20  C   UNL     1      -8.013 -10.217  12.451  0.00  0.00    +0.300 C 
ATOM     35  H   UNL     1      -8.023 -10.603  14.497  0.00  0.00    +0.150 HD
ATOM     36  H   UNL     1      -6.628 -11.556  13.231  0.00  0.00    +0.151 HD
BRANCH   7  24
ATOM     24  C   UNL     1      -6.338 -11.512  11.130  0.00  0.00    +0.141 C 
BRANCH  24  28
ATOM     28  C   UNL     1      -5.085 -10.723  10.882  0.00  0.00    -0.030 A 
ATOM     30  C   UNL     1      -5.028  -9.818   9.822  0.00  0.00    +0.005 A 
ATOM     31  C   UNL     1      -3.976 -10.895  11.711  0.00  0.00    +0.005 A 
ATOM     32  C   UNL     1      -3.864  -9.084   9.592  0.00  0.00    +0.000 A 
ATOM     33  C   UNL     1      -2.813 -10.162  11.481  0.00  0.00    +0.000 A 
ATOM     34  C   UNL     1      -2.756  -9.257  10.422  0.00  0.00    +0.000 A 
ENDBRANCH  24  28
ENDBRANCH   7  24
ENDBRANCH  16   5
ENDBRANCH  10  16
TORSDOF 7
ENDMDL
MODEL 5
REMARK VINA RESULT:      -5.6     27.640     30.678
REMARK  Name = 26742334
REMARK  9 active torsions:
REMARK  status: ('A' for Active; 'I' for Inactive)
REMARK    1  A    between atoms: O_2  and  C_22
REMARK    2  A    between atoms: O_2  and  C_29
REMARK    3  A    between atoms: N_4  and  C_19
REMARK    4  A    between atoms: N_5  and  C_16
REMARK    5  A    between atoms: N_7  and  C_24
REMARK    6  A    between atoms: C_9  and  C_15
REMARK    7  A    between atoms: C_10  and  C_16
REMARK    8  A    between atoms: C_18  and  C_21
REMARK    9  A    between atoms: C_24  and  C_28
REMARK                            x       y       z     vdW  Elec       q    Type
REMARK                         _______ _______ _______ _____ _____    ______ ____
ROOT
ATOM      3  N   UNL     1      -6.223 -10.568  18.010  0.00  0.00    -0.297 NA
ATOM      8  C   UNL     1      -4.337 -12.205  17.272  0.00  0.00    +0.002 C 
ATOM      9  C   UNL     1      -4.110 -10.800  16.652  0.00  0.00    +0.055 C 
ATOM     10  C   UNL     1      -6.819 -11.828  17.494  0.00  0.00    +0.074 C 
ATOM     11  C   UNL     1      -5.731 -12.725  16.863  0.00  0.00    +0.024 C 
ATOM     12  C   UNL     1      -4.355 -12.017  18.805  0.00  0.00    +0.019 C 
ATOM     13  C   UNL     1      -5.370  -9.944  16.967  0.00  0.00    +0.094 C 
ATOM     14  C   UNL     1      -5.362 -10.912  19.167  0.00  0.00    +0.085 C 
ENDROOT
BRANCH   9  15
ATOM      4  N   UNL     1      -2.412 -10.652  14.771  0.00  0.00    -0.270 N 
ATOM      6  N   UNL     1      -2.270 -10.584  13.437  0.00  0.00    -0.171 NA
ATOM     15  C   UNL     1      -3.709 -10.717  15.186  0.00  0.00    +0.044 A 
ATOM     17  C   UNL     1      -4.470 -10.690  14.043  0.00  0.00    +0.053 A 
ATOM     18  C   UNL     1      -3.532 -10.607  12.997  0.00  0.00    +0.096 A 
ATOM     19  C   UNL     1      -1.233 -10.647  15.606  0.00  0.00    +0.172 C 
BRANCH  18  21
ATOM     21  C   UNL     1      -3.815 -10.549  11.587  0.00  0.00    +0.044 A 
ATOM     22  C   UNL     1      -4.220 -11.688  10.891  0.00  0.00    +0.129 A 
ATOM     23  C   UNL     1      -3.681  -9.334  10.917  0.00  0.00    +0.014 A 
ATOM     25  C   UNL     1      -4.491 -11.611   9.524  0.00  0.00    +0.046 A 
ATOM     26  C   UNL     1      -3.950  -9.257   9.550  0.00  0.00    +0.001 A 
ATOM     27  C   UNL     1      -4.355 -10.396   8.854  0.00  0.00    +0.004 A 
BRANCH  22   2
ATOM      2  O   UNL     1      -4.361 -12.889  11.520  0.00  0.00    -0.494 OA
ATOM     29  C   UNL     1      -3.388 -13.891  11.227  0.00  0.00    +0.277 C 
ENDBRANCH  22   2
ENDBRANCH  18  21
ENDBRANCH   9  15
BRANCH  10  16
ATOM     16  C   UNL     1      -7.978 -11.573  16.529  0.00  0.00    +0.124 C 
BRANCH  16   5
ATOM      1  O   UNL     1      -8.649  -8.934  15.609  0.00  0.00    -0.253 OA
ATOM      5  N   UNL     1      -8.937 -10.683  17.107  0.00  0.00    -0.298 N 
ATOM      7  N   UNL     1     -10.181  -8.750  17.344  0.00  0.00    -0.295 N 
ATOM     20  C   UNL     1      -9.207  -9.408  16.597  0.00  0.00    +0.300 C 
ATOM     35  H   UNL     1      -9.413 -10.973  17.955  0.00  0.00    +0.150 HD
ATOM     36  H   UNL     1     -10.601  -9.237  18.130  0.00  0.00    +0.151 HD
BRANCH   7  24
ATOM     24  C   UNL     1     -10.648  -7.419  17.036  0.00  0.00    +0.141 C 
BRANCH  24  28
ATOM     28  C   UNL     1     -12.014  -7.433  16.413  0.00  0.00    -0.030 A 
ATOM     30  C   UNL     1     -12.432  -6.360  15.625  0.00  0.00    +0.005 A 
ATOM     31  C   UNL     1     -12.865  -8.519  16.621  0.00  0.00    +0.005 A 
ATOM     32  C   UNL     1     -13.701  -6.374  15.045  0.00  0.00    +0.000 A 
ATOM     33  C   UNL     1     -14.133  -8.532  16.042  0.00  0.00    +0.000 A 
ATOM     34  C   UNL     1     -14.552  -7.460  15.254  0.00  0.00    +0.000 A 
ENDBRANCH  24  28
ENDBRANCH   7  24
ENDBRANCH  16   5
ENDBRANCH  10  16
TORSDOF 7
ENDMDL
MODEL 6
REMARK VINA RESULT:      -5.5      3.359      6.835
REMARK  Name = 26742334
REMARK  9 active torsions:
REMARK  status: ('A' for Active; 'I' for Inactive)
REMARK    1  A    between atoms: O_2  and  C_22
REMARK    2  A    between atoms: O_2  and  C_29
REMARK    3  A    between atoms: N_4  and  C_19
REMARK    4  A    between atoms: N_5  and  C_16
REMARK    5  A    between atoms: N_7  and  C_24
REMARK    6  A    between atoms: C_9  and  C_15
REMARK    7  A    between atoms: C_10  and  C_16
REMARK    8  A    between atoms: C_18  and  C_21
REMARK    9  A    between atoms: C_24  and  C_28
REMARK                            x       y       z     vdW  Elec       q    Type
REMARK                         _______ _______ _______ _____ _____    ______ ____
ROOT
ATOM      3  N   UNL     1      13.212   7.268  19.942  0.00  0.00    -0.297 NA
ATOM      8  C   UNL     1      14.944   9.092  20.617  0.00  0.00    +0.002 C 
ATOM      9  C   UNL     1      13.719   9.127  21.570  0.00  0.00    +0.055 C 
ATOM     10  C   UNL     1      13.602   8.065  18.748  0.00  0.00    +0.074 C 
ATOM     11  C   UNL     1      14.465   9.277  19.162  0.00  0.00    +0.024 C 
ATOM     12  C   UNL     1      15.547   7.674  20.720  0.00  0.00    +0.019 C 
ATOM     13  C   UNL     1      12.649   8.160  20.987  0.00  0.00    +0.094 C 
ATOM     14  C   UNL     1      14.437   6.634  20.486  0.00  0.00    +0.085 C 
ENDROOT
BRANCH   9  15
ATOM      4  N   UNL     1      13.736  11.348  22.799  0.00  0.00    -0.270 N 
ATOM      6  N   UNL     1      13.056  12.491  22.989  0.00  0.00    -0.171 NA
ATOM     15  C   UNL     1      13.131  10.483  21.936  0.00  0.00    +0.044 A 
ATOM     17  C   UNL     1      11.973  11.103  21.534  0.00  0.00    +0.053 A 
ATOM     18  C   UNL     1      11.979  12.335  22.214  0.00  0.00    +0.096 A 
ATOM     19  C   UNL     1      14.987  11.148  23.495  0.00  0.00    +0.172 C 
BRANCH  18  21
ATOM     21  C   UNL     1      10.977  13.366  22.138  0.00  0.00    +0.044 A 
ATOM     22  C   UNL     1      10.100  13.590  23.199  0.00  0.00    +0.129 A 
ATOM     23  C   UNL     1      10.889  14.145  20.985  0.00  0.00    +0.014 A 
ATOM     25  C   UNL     1       9.135  14.594  23.107  0.00  0.00    +0.046 A 
ATOM     26  C   UNL     1       9.925  15.148  20.892  0.00  0.00    +0.001 A 
ATOM     27  C   UNL     1       9.048  15.373  21.953  0.00  0.00    +0.004 A 
BRANCH  22   2
ATOM      2  O   UNL     1      10.162  12.844  24.339  0.00  0.00    -0.494 OA
ATOM     29  C   UNL     1      10.568  13.515  25.530  0.00  0.00    +0.277 C 
ENDBRANCH  22   2
ENDBRANCH  18  21
ENDBRANCH   9  15
BRANCH  10  16
ATOM     16  C   UNL     1      12.395   8.485  17.908  0.00  0.00    +0.124 C 
BRANCH  16   5
ATOM      1  O   UNL     1      13.202   8.865  15.176  0.00  0.00    -0.253 OA
ATOM      5  N   UNL     1      12.638   9.733  17.253  0.00  0.00    -0.298 N 
ATOM      7  N   UNL     1      13.199  11.160  15.524  0.00  0.00    -0.295 N 
ATOM     20  C   UNL     1      13.030   9.834  15.913  0.00  0.00    +0.300 C 
ATOM     35  H   UNL     1      12.566  10.586  17.799  0.00  0.00    +0.150 HD
ATOM     36  H   UNL     1      13.008  11.892  16.201  0.00  0.00    +0.151 HD
BRANCH   7  24
ATOM     24  C   UNL     1      13.601  11.548  14.193  0.00  0.00    +0.141 C 
BRANCH  24  28
ATOM     28  C   UNL     1      15.064  11.880  14.122  0.00  0.00    -0.030 A 
ATOM     30  C   UNL     1      15.657  12.160  12.890  0.00  0.00    +0.005 A 
ATOM     31  C   UNL     1      15.831  11.907  15.286  0.00  0.00    +0.005 A 
ATOM     32  C   UNL     1      17.016  12.468  12.824  0.00  0.00    +0.000 A 
ATOM     33  C   UNL     1      17.189  12.215  15.221  0.00  0.00    +0.000 A 
ATOM     34  C   UNL     1      17.782  12.495  13.989  0.00  0.00    +0.000 A 
ENDBRANCH  24  28
ENDBRANCH   7  24
ENDBRANCH  16   5
ENDBRANCH  10  16
TORSDOF 7
ENDMDL
MODEL 7
REMARK VINA RESULT:      -5.4     28.990     31.021
REMARK  Name = 26742334
REMARK  9 active torsions:
REMARK  status: ('A' for Active; 'I' for Inactive)
REMARK    1  A    between atoms: O_2  and  C_22
REMARK    2  A    between atoms: O_2  and  C_29
REMARK    3  A    between atoms: N_4  and  C_19
REMARK    4  A    between atoms: N_5  and  C_16
REMARK    5  A    between atoms: N_7  and  C_24
REMARK    6  A    between atoms: C_9  and  C_15
REMARK    7  A    between atoms: C_10  and  C_16
REMARK    8  A    between atoms: C_18  and  C_21
REMARK    9  A    between atoms: C_24  and  C_28
REMARK                            x       y       z     vdW  Elec       q    Type
REMARK                         _______ _______ _______ _____ _____    ______ ____
ROOT
ATOM      3  N   UNL     1      -3.684  -9.616  10.211  0.00  0.00    -0.297 NA
ATOM      8  C   UNL     1      -6.080 -10.469   9.653  0.00  0.00    +0.002 C 
ATOM      9  C   UNL     1      -6.134  -9.392  10.771  0.00  0.00    +0.055 C 
ATOM     10  C   UNL     1      -3.709 -11.102  10.222  0.00  0.00    +0.074 C 
ATOM     11  C   UNL     1      -5.158 -11.622  10.099  0.00  0.00    +0.024 C 
ATOM     12  C   UNL     1      -5.417  -9.805   8.427  0.00  0.00    +0.019 C 
ATOM     13  C   UNL     1      -4.667  -9.083  11.188  0.00  0.00    +0.094 C 
ATOM     14  C   UNL     1      -4.086  -9.164   8.857  0.00  0.00    +0.085 C 
ENDROOT
BRANCH   9  15
ATOM      4  N   UNL     1      -8.394  -9.633  11.899  0.00  0.00    -0.270 N 
ATOM      6  N   UNL     1      -9.004  -9.881  13.071  0.00  0.00    -0.171 NA
ATOM     15  C   UNL     1      -7.033  -9.647  11.973  0.00  0.00    +0.044 A 
ATOM     17  C   UNL     1      -6.730  -9.922  13.284  0.00  0.00    +0.053 A 
ATOM     18  C   UNL     1      -7.982 -10.056  13.913  0.00  0.00    +0.096 A 
ATOM     19  C   UNL     1      -9.198  -9.385  10.725  0.00  0.00    +0.172 C 
BRANCH  18  21
ATOM     21  C   UNL     1      -8.221 -10.347  15.303  0.00  0.00    +0.044 A 
ATOM     22  C   UNL     1      -8.220 -11.662  15.769  0.00  0.00    +0.129 A 
ATOM     23  C   UNL     1      -8.458  -9.295  16.186  0.00  0.00    +0.014 A 
ATOM     25  C   UNL     1      -8.454 -11.924  17.120  0.00  0.00    +0.046 A 
ATOM     26  C   UNL     1      -8.692  -9.556  17.536  0.00  0.00    +0.001 A 
ATOM     27  C   UNL     1      -8.690 -10.870  18.003  0.00  0.00    +0.004 A 
BRANCH  22   2
ATOM      2  O   UNL     1      -7.992 -12.711  14.929  0.00  0.00    -0.494 OA
ATOM     29  C   UNL     1      -8.279 -14.015  15.429  0.00  0.00    +0.277 C 
ENDBRANCH  22   2
ENDBRANCH  18  21
ENDBRANCH   9  15
BRANCH  10  16
ATOM     16  C   UNL     1      -2.995 -11.688  11.441  0.00  0.00    +0.124 C 
BRANCH  16   5
ATOM      1  O   UNL     1      -2.407 -12.739  14.052  0.00  0.00    -0.253 OA
ATOM      5  N   UNL     1      -3.938 -12.182  12.398  0.00  0.00    -0.298 N 
ATOM      7  N   UNL     1      -4.677 -13.094  14.388  0.00  0.00    -0.295 N 
ATOM     20  C   UNL     1      -3.570 -12.679  13.653  0.00  0.00    +0.300 C 
ATOM     35  H   UNL     1      -4.917 -12.215  12.135  0.00  0.00    +0.150 HD
ATOM     36  H   UNL     1      -5.600 -12.981  13.980  0.00  0.00    +0.151 HD
BRANCH   7  24
ATOM     24  C   UNL     1      -4.582 -13.649  15.718  0.00  0.00    +0.141 C 
BRANCH  24  28
ATOM     28  C   UNL     1      -4.801 -12.608  16.777  0.00  0.00    -0.030 A 
ATOM     30  C   UNL     1      -4.762 -11.253  16.443  0.00  0.00    +0.005 A 
ATOM     31  C   UNL     1      -5.043 -12.994  18.096  0.00  0.00    +0.005 A 
ATOM     32  C   UNL     1      -4.966 -10.286  17.428  0.00  0.00    +0.000 A 
ATOM     33  C   UNL     1      -5.247 -12.028  19.079  0.00  0.00    +0.000 A 
ATOM     34  C   UNL     1      -5.209 -10.673  18.746  0.00  0.00    +0.000 A 
ENDBRANCH  24  28
ENDBRANCH   7  24
ENDBRANCH  16   5
ENDBRANCH  10  16
TORSDOF 7
ENDMDL
MODEL 8
REMARK VINA RESULT:      -5.4      3.810      6.711
REMARK  Name = 26742334
REMARK  9 active torsions:
REMARK  status: ('A' for Active; 'I' for Inactive)
REMARK    1  A    between atoms: O_2  and  C_22
REMARK    2  A    between atoms: O_2  and  C_29
REMARK    3  A    between atoms: N_4  and  C_19
REMARK    4  A    between atoms: N_5  and  C_16
REMARK    5  A    between atoms: N_7  and  C_24
REMARK    6  A    between atoms: C_9  and  C_15
REMARK    7  A    between atoms: C_10  and  C_16
REMARK    8  A    between atoms: C_18  and  C_21
REMARK    9  A    between atoms: C_24  and  C_28
REMARK                            x       y       z     vdW  Elec       q    Type
REMARK                         _______ _______ _______ _____ _____    ______ ____
ROOT
ATOM      3  N   UNL     1      14.257   6.903  19.130  0.00  0.00    -0.297 NA
ATOM      8  C   UNL     1      15.162   8.803  20.663  0.00  0.00    +0.002 C 
ATOM      9  C   UNL     1      13.951   8.096  21.331  0.00  0.00    +0.055 C 
ATOM     10  C   UNL     1      14.404   8.159  18.349  0.00  0.00    +0.074 C 
ATOM     11  C   UNL     1      14.740   9.343  19.282  0.00  0.00    +0.024 C 
ATOM     12  C   UNL     1      16.232   7.716  20.419  0.00  0.00    +0.019 C 
ATOM     13  C   UNL     1      13.345   7.122  20.280  0.00  0.00    +0.094 C 
ATOM     14  C   UNL     1      15.593   6.539  19.662  0.00  0.00    +0.085 C 
ENDROOT
BRANCH   9  15
ATOM      4  N   UNL     1      11.608   8.543  22.197  0.00  0.00    -0.270 N 
ATOM      6  N   UNL     1      10.826   9.456  22.797  0.00  0.00    -0.171 NA
ATOM     15  C   UNL     1      12.889   8.962  21.994  0.00  0.00    +0.044 A 
ATOM     17  C   UNL     1      12.951  10.239  22.497  0.00  0.00    +0.053 A 
ATOM     18  C   UNL     1      11.652  10.491  22.978  0.00  0.00    +0.096 A 
ATOM     19  C   UNL     1      11.045   7.262  21.836  0.00  0.00    +0.172 C 
BRANCH  18  21
ATOM     21  C   UNL     1      11.185  11.700  23.605  0.00  0.00    +0.044 A 
ATOM     22  C   UNL     1      10.811  12.804  22.839  0.00  0.00    +0.129 A 
ATOM     23  C   UNL     1      11.109  11.757  24.996  0.00  0.00    +0.014 A 
ATOM     25  C   UNL     1      10.360  13.967  23.466  0.00  0.00    +0.046 A 
ATOM     26  C   UNL     1      10.660  12.920  25.623  0.00  0.00    +0.001 A 
ATOM     27  C   UNL     1      10.285  14.024  24.858  0.00  0.00    +0.004 A 
BRANCH  22   2
ATOM      2  O   UNL     1      10.874  12.776  21.478  0.00  0.00    -0.494 OA
ATOM     29  C   UNL     1      11.946  13.490  20.866  0.00  0.00    +0.277 C 
ENDBRANCH  22   2
ENDBRANCH  18  21
ENDBRANCH   9  15
BRANCH  10  16
ATOM     16  C   UNL     1      13.182   8.450  17.477  0.00  0.00    +0.124 C 
BRANCH  16   5
ATOM      1  O   UNL     1      14.323   9.301  14.979  0.00  0.00    -0.253 OA
ATOM      5  N   UNL     1      13.224   9.785  16.966  0.00  0.00    -0.298 N 
ATOM      7  N   UNL     1      13.709  11.484  15.476  0.00  0.00    -0.295 N 
ATOM     20  C   UNL     1      13.801  10.119  15.735  0.00  0.00    +0.300 C 
ATOM     35  H   UNL     1      12.858  10.534  17.545  0.00  0.00    +0.150 HD
ATOM     36  H   UNL     1      13.236  12.075  16.153  0.00  0.00    +0.151 HD
BRANCH   7  24
ATOM     24  C   UNL     1      14.224  12.098  14.275  0.00  0.00    +0.141 C 
BRANCH  24  28
ATOM     28  C   UNL     1      13.129  12.670  13.422  0.00  0.00    -0.030 A 
ATOM     30  C   UNL     1      11.962  11.937  13.201  0.00  0.00    +0.005 A 
ATOM     31  C   UNL     1      13.278  13.933  12.849  0.00  0.00    +0.005 A 
ATOM     32  C   UNL     1      10.945  12.468  12.408  0.00  0.00    +0.000 A 
ATOM     33  C   UNL     1      12.261  14.464  12.057  0.00  0.00    +0.000 A 
ATOM     34  C   UNL     1      11.094  13.732  11.836  0.00  0.00    +0.000 A 
ENDBRANCH  24  28
ENDBRANCH   7  24
ENDBRANCH  16   5
ENDBRANCH  10  16
TORSDOF 7
ENDMDL
MODEL 9
REMARK VINA RESULT:      -5.4     28.877     31.520
REMARK  Name = 26742334
REMARK  9 active torsions:
REMARK  status: ('A' for Active; 'I' for Inactive)
REMARK    1  A    between atoms: O_2  and  C_22
REMARK    2  A    between atoms: O_2  and  C_29
REMARK    3  A    between atoms: N_4  and  C_19
REMARK    4  A    between atoms: N_5  and  C_16
REMARK    5  A    between atoms: N_7  and  C_24
REMARK    6  A    between atoms: C_9  and  C_15
REMARK    7  A    between atoms: C_10  and  C_16
REMARK    8  A    between atoms: C_18  and  C_21
REMARK    9  A    between atoms: C_24  and  C_28
REMARK                            x       y       z     vdW  Elec       q    Type
REMARK                         _______ _______ _______ _____ _____    ______ ____
ROOT
ATOM      3  N   UNL     1      -5.716 -12.126  16.983  0.00  0.00    -0.297 NA
ATOM      8  C   UNL     1      -6.590 -11.007  19.166  0.00  0.00    +0.002 C 
ATOM      9  C   UNL     1      -7.775 -11.556  18.325  0.00  0.00    +0.055 C 
ATOM     10  C   UNL     1      -5.112 -10.776  17.139  0.00  0.00    +0.074 C 
ATOM     11  C   UNL     1      -5.772 -10.018  18.311  0.00  0.00    +0.024 C 
ATOM     12  C   UNL     1      -5.670 -12.208  19.476  0.00  0.00    +0.019 C 
ATOM     13  C   UNL     1      -7.197 -12.021  16.958  0.00  0.00    +0.094 C 
ATOM     14  C   UNL     1      -5.330 -12.936  18.164  0.00  0.00    +0.085 C 
ENDROOT
BRANCH   9  15
ATOM      4  N   UNL     1     -10.060 -10.705  19.028  0.00  0.00    -0.270 N 
ATOM      6  N   UNL     1     -11.050  -9.855  18.707  0.00  0.00    -0.171 NA
ATOM     15  C   UNL     1      -9.008 -10.679  18.161  0.00  0.00    +0.044 A 
ATOM     17  C   UNL     1      -9.332  -9.747  17.206  0.00  0.00    +0.053 A 
ATOM     18  C   UNL     1     -10.599  -9.273  17.592  0.00  0.00    +0.096 A 
ATOM     19  C   UNL     1     -10.195 -11.532  20.205  0.00  0.00    +0.172 C 
BRANCH  18  21
ATOM     21  C   UNL     1     -11.389  -8.276  16.917  0.00  0.00    +0.044 A 
ATOM     22  C   UNL     1     -12.636  -8.594  16.381  0.00  0.00    +0.129 A 
ATOM     23  C   UNL     1     -10.891  -6.979  16.803  0.00  0.00    +0.014 A 
ATOM     25  C   UNL     1     -13.387  -7.613  15.730  0.00  0.00    +0.046 A 
ATOM     26  C   UNL     1     -11.640  -5.998  16.152  0.00  0.00    +0.001 A 
ATOM     27  C   UNL     1     -12.888  -6.316  15.615  0.00  0.00    +0.004 A 
BRANCH  22   2
ATOM      2  O   UNL     1     -13.148  -9.854  16.477  0.00  0.00    -0.494 OA
ATOM     29  C   UNL     1     -14.485  -9.973  16.959  0.00  0.00    +0.277 C 
ENDBRANCH  22   2
ENDBRANCH  18  21
ENDBRANCH   9  15
BRANCH  10  16
ATOM     16  C   UNL     1      -5.152  -9.967  15.842  0.00  0.00    +0.124 C 
BRANCH  16   5
ATOM      1  O   UNL     1      -5.082 -11.450  13.381  0.00  0.00    -0.253 OA
ATOM      5  N   UNL     1      -4.000 -10.236  15.037  0.00  0.00    -0.298 N 
ATOM      7  N   UNL     1      -2.792 -11.085  13.259  0.00  0.00    -0.295 N 
ATOM     20  C   UNL     1      -4.050 -10.969  13.846  0.00  0.00    +0.300 C 
ATOM     35  H   UNL     1      -3.096  -9.917  15.368  0.00  0.00    +0.150 HD
ATOM     36  H   UNL     1      -2.004 -10.630  13.709  0.00  0.00    +0.151 HD
BRANCH   7  24
ATOM     24  C   UNL     1      -2.559 -11.792  12.022  0.00  0.00    +0.141 C 
BRANCH  24  28
ATOM     28  C   UNL     1      -3.207 -11.109  10.853  0.00  0.00    -0.030 A 
ATOM     30  C   UNL     1      -3.056  -9.733  10.677  0.00  0.00    +0.005 A 
ATOM     31  C   UNL     1      -3.962 -11.849   9.942  0.00  0.00    +0.005 A 
ATOM     32  C   UNL     1      -3.658  -9.098   9.591  0.00  0.00    +0.000 A 
ATOM     33  C   UNL     1      -4.563 -11.215   8.857  0.00  0.00    +0.000 A 
ATOM     34  C   UNL     1      -4.412  -9.839   8.680  0.00  0.00    +0.000 A 
ENDBRANCH  24  28
ENDBRANCH   7  24
ENDBRANCH  16   5
ENDBRANCH  10  16
TORSDOF 7
ENDMDL
MODEL 10
REMARK VINA RESULT:      -5.4     28.533     31.775
REMARK  Name = 26742334
REMARK  9 active torsions:
REMARK  status: ('A' for Active; 'I' for Inactive)
REMARK    1  A    between atoms: O_2  and  C_22
REMARK    2  A    between atoms: O_2  and  C_29
REMARK    3  A    between atoms: N_4  and  C_19
REMARK    4  A    between atoms: N_5  and  C_16
REMARK    5  A    between atoms: N_7  and  C_24
REMARK    6  A    between atoms: C_9  and  C_15
REMARK    7  A    between atoms: C_10  and  C_16
REMARK    8  A    between atoms: C_18  and  C_21
REMARK    9  A    between atoms: C_24  and  C_28
REMARK                            x       y       z     vdW  Elec       q    Type
REMARK                         _______ _______ _______ _____ _____    ______ ____
ROOT
ATOM      3  N   UNL     1      -5.111 -10.186  11.377  0.00  0.00    -0.297 NA
ATOM      8  C   UNL     1      -4.459  -8.965   9.172  0.00  0.00    +0.002 C 
ATOM      9  C   UNL     1      -5.319 -10.222   8.863  0.00  0.00    +0.055 C 
ATOM     10  C   UNL     1      -3.649  -9.919  11.358  0.00  0.00    +0.074 C 
ATOM     11  C   UNL     1      -3.212  -9.385   9.977  0.00  0.00    +0.024 C 
ATOM     12  C   UNL     1      -5.308  -8.059  10.089  0.00  0.00    +0.019 C 
ATOM     13  C   UNL     1      -5.495 -11.002  10.198  0.00  0.00    +0.094 C 
ATOM     14  C   UNL     1      -5.813  -8.883  11.286  0.00  0.00    +0.085 C 
ENDROOT
BRANCH   9  15
ATOM      4  N   UNL     1      -5.269 -10.928   6.426  0.00  0.00    -0.270 N 
ATOM      6  N   UNL     1      -4.779 -11.838   5.567  0.00  0.00    -0.171 NA
ATOM     15  C   UNL     1      -4.885 -11.127   7.719  0.00  0.00    +0.044 A 
ATOM     17  C   UNL     1      -4.088 -12.246   7.706  0.00  0.00    +0.053 A 
ATOM     18  C   UNL     1      -4.058 -12.641   6.355  0.00  0.00    +0.096 A 
ATOM     19  C   UNL     1      -6.120  -9.873   5.926  0.00  0.00    +0.172 C 
BRANCH  18  21
ATOM     21  C   UNL     1      -3.356 -13.770   5.803  0.00  0.00    +0.044 A 
ATOM     22  C   UNL     1      -3.955 -15.028   5.750  0.00  0.00    +0.129 A 
ATOM     23  C   UNL     1      -2.061 -13.593   5.318  0.00  0.00    +0.014 A 
ATOM     25  C   UNL     1      -3.259 -16.111   5.211  0.00  0.00    +0.046 A 
ATOM     26  C   UNL     1      -1.364 -14.675   4.780  0.00  0.00    +0.001 A 
ATOM     27  C   UNL     1      -1.963 -15.934   4.726  0.00  0.00    +0.004 A 
BRANCH  22   2
ATOM      2  O   UNL     1      -5.220 -15.231   6.217  0.00  0.00    -0.494 OA
ATOM     29  C   UNL     1      -5.351 -15.961   7.435  0.00  0.00    +0.277 C 
ENDBRANCH  22   2
ENDBRANCH  18  21
ENDBRANCH   9  15
BRANCH  10  16
ATOM     16  C   UNL     1      -2.828 -11.138  11.784  0.00  0.00    +0.124 C 
BRANCH  16   5
ATOM      1  O   UNL     1      -1.983 -10.046  14.306  0.00  0.00    -0.253 OA
ATOM      5  N   UNL     1      -3.218 -11.587  13.086  0.00  0.00    -0.298 N 
ATOM      7  N   UNL     1      -3.292 -11.624  15.395  0.00  0.00    -0.295 N 
ATOM     20  C   UNL     1      -2.760 -10.999  14.270  0.00  0.00    +0.300 C 
ATOM     35  H   UNL     1      -3.822 -12.400  13.153  0.00  0.00    +0.150 HD
ATOM     36  H   UNL     1      -3.946 -12.389  15.261  0.00  0.00    +0.151 HD
BRANCH   7  24
ATOM     24  C   UNL     1      -2.985 -11.218  16.746  0.00  0.00    +0.141 C 
BRANCH  24  28
ATOM     28  C   UNL     1      -4.221 -11.080  17.586  0.00  0.00    -0.030 A 
ATOM     30  C   UNL     1      -4.293 -11.711  18.829  0.00  0.00    +0.005 A 
ATOM     31  C   UNL     1      -5.298 -10.323  17.126  0.00  0.00    +0.005 A 
ATOM     32  C   UNL     1      -5.442 -11.584  19.610  0.00  0.00    +0.000 A 
ATOM     33  C   UNL     1      -6.446 -10.195  17.906  0.00  0.00    +0.000 A 
ATOM     34  C   UNL     1      -6.519 -10.826  19.149  0.00  0.00    +0.000 A 
ENDBRANCH  24  28
ENDBRANCH   7  24
ENDBRANCH  16   5
ENDBRANCH  10  16
TORSDOF 7
ENDMDL
