MODEL 1
REMARK VINA RESULT:      -7.7      0.000      0.000
REMARK  Name = 11886479
REMARK  5 active torsions:
REMARK  status: ('A' for Active; 'I' for Inactive)
REMARK    1  A    between atoms: O_4  and  C_27
REMARK    2  A    between atoms: O_4  and  C_32
REMARK    3  A    between atoms: N_5  and  C_15
REMARK    4  A    between atoms: N_7  and  C_23
REMARK    5  A    between atoms: N_8  and  C_26
REMARK                            x       y       z     vdW  Elec       q    Type
REMARK                         _______ _______ _______ _____ _____    ______ ____
ROOT
ATOM      2  O   UNL     1     -15.470   7.073  20.493  0.00  0.00    -0.266 OA
ATOM      5  N   UNL     1     -12.333   9.250  17.246  0.00  0.00    -0.298 NA
ATOM      6  N   UNL     1     -13.545   8.318  20.047  0.00  0.00    -0.310 N 
ATOM      9  C   UNL     1     -13.604  10.617  18.918  0.00  0.00    +0.024 C 
ATOM     10  C   UNL     1     -11.454   9.632  19.553  0.00  0.00    +0.050 C 
ATOM     11  C   UNL     1     -12.328  10.874  19.709  0.00  0.00    +0.017 C 
ATOM     12  C   UNL     1     -13.265  10.368  17.433  0.00  0.00    +0.090 C 
ATOM     13  C   UNL     1     -11.119   9.419  18.059  0.00  0.00    +0.094 C 
ATOM     14  C   UNL     1     -14.355   9.442  19.557  0.00  0.00    +0.130 C 
ATOM     16  C   UNL     1     -12.151   8.408  20.121  0.00  0.00    +0.026 A 
ATOM     19  C   UNL     1     -11.436   7.415  20.672  0.00  0.00    +0.024 A 
ATOM     20  C   UNL     1     -14.245   7.191  20.524  0.00  0.00    +0.273 A 
ATOM     23  C   UNL     1     -13.411   6.094  21.109  0.00  0.00    +0.100 A 
ATOM     24  C   UNL     1     -12.082   6.234  21.173  0.00  0.00    +0.030 A 
ENDROOT
BRANCH   5  15
ATOM      1  O   UNL     1     -11.530   7.316  13.606  0.00  0.00    -0.380 OA
ATOM     15  C   UNL     1     -11.997   9.079  15.834  0.00  0.00    +0.061 C 
ATOM     17  C   UNL     1     -13.139   8.396  15.074  0.00  0.00    +0.047 C 
ATOM     18  C   UNL     1     -10.708   8.264  15.688  0.00  0.00    +0.047 C 
ATOM     21  C   UNL     1     -12.719   8.106  13.637  0.00  0.00    +0.161 C 
ATOM     22  C   UNL     1     -10.424   7.981  14.217  0.00  0.00    +0.161 C 
ENDBRANCH   5  15
BRANCH  23   7
ATOM      3  O   UNL     1     -14.884   5.891  23.533  0.00  0.00    -0.252 OA
ATOM      7  N   UNL     1     -14.049   4.981  21.570  0.00  0.00    -0.265 N 
ATOM      8  N   UNL     1     -15.299   3.652  22.962  0.00  0.00    -0.266 N 
ATOM     25  C   UNL     1     -14.763   4.931  22.775  0.00  0.00    +0.308 C 
ATOM     33  H   UNL     1     -13.791   4.094  21.147  0.00  0.00    +0.157 HD
ATOM     34  H   UNL     1     -15.106   2.966  22.238  0.00  0.00    +0.156 HD
BRANCH   8  26
ATOM     26  C   UNL     1     -16.081   3.189  24.046  0.00  0.00    +0.077 A 
ATOM     27  C   UNL     1     -17.049   2.218  23.838  0.00  0.00    +0.141 A 
ATOM     28  C   UNL     1     -15.857   3.724  25.306  0.00  0.00    +0.027 A 
ATOM     29  C   UNL     1     -17.812   1.772  24.918  0.00  0.00    +0.047 A 
ATOM     30  C   UNL     1     -16.621   3.276  26.385  0.00  0.00    +0.002 A 
ATOM     31  C   UNL     1     -17.598   2.300  26.191  0.00  0.00    +0.004 A 
BRANCH  27   4
ATOM      4  O   UNL     1     -17.274   1.688  22.603  0.00  0.00    -0.493 OA
ATOM     32  C   UNL     1     -18.478   2.072  21.944  0.00  0.00    +0.277 C 
ENDBRANCH  27   4
ENDBRANCH   8  26
ENDBRANCH  23   7
TORSDOF 4
ENDMDL
MODEL 2
REMARK VINA RESULT:      -7.5     19.483     22.439
REMARK  Name = 11886479
REMARK  5 active torsions:
REMARK  status: ('A' for Active; 'I' for Inactive)
REMARK    1  A    between atoms: O_4  and  C_27
REMARK    2  A    between atoms: O_4  and  C_32
REMARK    3  A    between atoms: N_5  and  C_15
REMARK    4  A    between atoms: N_7  and  C_23
REMARK    5  A    between atoms: N_8  and  C_26
REMARK                            x       y       z     vdW  Elec       q    Type
REMARK                         _______ _______ _______ _____ _____    ______ ____
ROOT
ATOM      2  O   UNL     1      -5.644 -11.758   9.695  0.00  0.00    -0.266 OA
ATOM      5  N   UNL     1      -3.859 -11.016  14.320  0.00  0.00    -0.298 NA
ATOM      6  N   UNL     1      -3.850 -11.443  11.157  0.00  0.00    -0.310 N 
ATOM      9  C   UNL     1      -3.280 -13.089  13.036  0.00  0.00    +0.024 C 
ATOM     10  C   UNL     1      -1.925 -11.071  12.738  0.00  0.00    +0.050 C 
ATOM     11  C   UNL     1      -1.854 -12.593  12.837  0.00  0.00    +0.017 C 
ATOM     12  C   UNL     1      -3.876 -12.484  14.324  0.00  0.00    +0.090 C 
ATOM     13  C   UNL     1      -2.510 -10.495  14.048  0.00  0.00    +0.094 C 
ATOM     14  C   UNL     1      -4.103 -12.747  11.787  0.00  0.00    +0.130 C 
ATOM     16  C   UNL     1      -2.768 -10.648  11.548  0.00  0.00    +0.026 A 
ATOM     19  C   UNL     1      -2.488  -9.513  10.888  0.00  0.00    +0.024 A 
ATOM     20  C   UNL     1      -4.689 -11.084  10.084  0.00  0.00    +0.273 A 
ATOM     23  C   UNL     1      -4.360  -9.799   9.389  0.00  0.00    +0.100 A 
ATOM     24  C   UNL     1      -3.305  -9.081   9.788  0.00  0.00    +0.030 A 
ENDROOT
BRANCH   5  15
ATOM      1  O   UNL     1      -6.259 -10.684  17.749  0.00  0.00    -0.380 OA
ATOM     15  C   UNL     1      -4.382 -10.482  15.575  0.00  0.00    +0.061 C 
ATOM     17  C   UNL     1      -4.210 -11.488  16.717  0.00  0.00    +0.047 C 
ATOM     18  C   UNL     1      -5.860 -10.111  15.421  0.00  0.00    +0.047 C 
ATOM     21  C   UNL     1      -4.880 -10.970  17.985  0.00  0.00    +0.161 C 
ATOM     22  C   UNL     1      -6.439  -9.669  16.760  0.00  0.00    +0.161 C 
ENDBRANCH   5  15
BRANCH  23   7
ATOM      3  O   UNL     1      -6.923  -8.585   9.608  0.00  0.00    -0.252 OA
ATOM      7  N   UNL     1      -5.156  -9.410   8.353  0.00  0.00    -0.265 N 
ATOM      8  N   UNL     1      -6.975  -8.534   7.262  0.00  0.00    -0.266 N 
ATOM     25  C   UNL     1      -6.415  -8.815   8.512  0.00  0.00    +0.308 C 
ATOM     33  H   UNL     1      -4.936  -9.789   7.436  0.00  0.00    +0.157 HD
ATOM     34  H   UNL     1      -6.424  -8.789   6.447  0.00  0.00    +0.156 HD
BRANCH   8  26
ATOM     26  C   UNL     1      -8.228  -7.937   6.986  0.00  0.00    +0.077 A 
ATOM     27  C   UNL     1      -9.075  -8.504   6.046  0.00  0.00    +0.141 A 
ATOM     28  C   UNL     1      -8.582  -6.785   7.671  0.00  0.00    +0.027 A 
ATOM     29  C   UNL     1     -10.306  -7.903   5.785  0.00  0.00    +0.047 A 
ATOM     30  C   UNL     1      -9.814  -6.185   7.410  0.00  0.00    +0.002 A 
ATOM     31  C   UNL     1     -10.677  -6.744   6.467  0.00  0.00    +0.004 A 
BRANCH  27   4
ATOM      4  O   UNL     1      -8.733  -9.637   5.369  0.00  0.00    -0.493 OA
ATOM     32  C   UNL     1      -8.280  -9.476   4.027  0.00  0.00    +0.277 C 
ENDBRANCH  27   4
ENDBRANCH   8  26
ENDBRANCH  23   7
TORSDOF 4
ENDMDL
MODEL 3
REMARK VINA RESULT:      -7.5     19.660     22.698
REMARK  Name = 11886479
REMARK  5 active torsions:
REMARK  status: ('A' for Active; 'I' for Inactive)
REMARK    1  A    between atoms: O_4  and  C_27
REMARK    2  A    between atoms: O_4  and  C_32
REMARK    3  A    between atoms: N_5  and  C_15
REMARK    4  A    between atoms: N_7  and  C_23
REMARK    5  A    between atoms: N_8  and  C_26
REMARK                            x       y       z     vdW  Elec       q    Type
REMARK                         _______ _______ _______ _____ _____    ______ ____
ROOT
ATOM      2  O   UNL     1      -5.107 -12.054   8.772  0.00  0.00    -0.266 OA
ATOM      5  N   UNL     1      -4.460 -11.592  13.721  0.00  0.00    -0.298 NA
ATOM      6  N   UNL     1      -3.768 -11.512  10.607  0.00  0.00    -0.310 N 
ATOM      9  C   UNL     1      -3.094 -13.221  12.393  0.00  0.00    +0.024 C 
ATOM     10  C   UNL     1      -2.343 -10.899  12.591  0.00  0.00    +0.050 C 
ATOM     11  C   UNL     1      -1.858 -12.346  12.553  0.00  0.00    +0.017 C 
ATOM     12  C   UNL     1      -4.058 -12.997  13.577  0.00  0.00    +0.090 C 
ATOM     13  C   UNL     1      -3.292 -10.703  13.796  0.00  0.00    +0.094 C 
ATOM     14  C   UNL     1      -3.745 -12.916  11.037  0.00  0.00    +0.130 C 
ATOM     16  C   UNL     1      -3.045 -10.532  11.296  0.00  0.00    +0.026 A 
ATOM     19  C   UNL     1      -2.990  -9.276  10.826  0.00  0.00    +0.024 A 
ATOM     20  C   UNL     1      -4.470 -11.223   9.420  0.00  0.00    +0.273 A 
ATOM     23  C   UNL     1      -4.404  -9.806   8.941  0.00  0.00    +0.100 A 
ATOM     24  C   UNL     1      -3.686  -8.908   9.624  0.00  0.00    +0.030 A 
ENDROOT
BRANCH   5  15
ATOM      1  O   UNL     1      -5.739 -10.305  17.507  0.00  0.00    -0.380 OA
ATOM     15  C   UNL     1      -5.329 -11.413  14.881  0.00  0.00    +0.061 C 
ATOM     17  C   UNL     1      -5.649  -9.931  15.107  0.00  0.00    +0.047 C 
ATOM     18  C   UNL     1      -4.676 -12.005  16.133  0.00  0.00    +0.047 C 
ATOM     21  C   UNL     1      -6.444  -9.751  16.396  0.00  0.00    +0.161 C 
ATOM     22  C   UNL     1      -5.525 -11.710  17.365  0.00  0.00    +0.161 C 
ENDBRANCH   5  15
BRANCH  23   7
ATOM      3  O   UNL     1      -7.180  -9.218   8.750  0.00  0.00    -0.252 OA
ATOM      7  N   UNL     1      -5.080  -9.482   7.802  0.00  0.00    -0.265 N 
ATOM      8  N   UNL     1      -6.842  -8.906   6.449  0.00  0.00    -0.266 N 
ATOM     25  C   UNL     1      -6.452  -9.201   7.759  0.00  0.00    +0.308 C 
ATOM     33  H   UNL     1      -4.623  -9.694   6.919  0.00  0.00    +0.157 HD
ATOM     34  H   UNL     1      -6.114  -8.937   5.739  0.00  0.00    +0.156 HD
BRANCH   8  26
ATOM     26  C   UNL     1      -8.134  -8.571   5.981  0.00  0.00    +0.077 A 
ATOM     27  C   UNL     1      -8.724  -7.378   6.369  0.00  0.00    +0.141 A 
ATOM     28  C   UNL     1      -8.787  -9.456   5.136  0.00  0.00    +0.027 A 
ATOM     29  C   UNL     1      -9.999  -7.062   5.899  0.00  0.00    +0.047 A 
ATOM     30  C   UNL     1     -10.062  -9.138   4.667  0.00  0.00    +0.002 A 
ATOM     31  C   UNL     1     -10.669  -7.942   5.049  0.00  0.00    +0.004 A 
BRANCH  27   4
ATOM      4  O   UNL     1      -8.087  -6.504   7.199  0.00  0.00    -0.493 OA
ATOM     32  C   UNL     1      -8.852  -5.956   8.270  0.00  0.00    +0.277 C 
ENDBRANCH  27   4
ENDBRANCH   8  26
ENDBRANCH  23   7
TORSDOF 4
ENDMDL
MODEL 4
REMARK VINA RESULT:      -7.4     19.955     21.426
REMARK  Name = 11886479
REMARK  5 active torsions:
REMARK  status: ('A' for Active; 'I' for Inactive)
REMARK    1  A    between atoms: O_4  and  C_27
REMARK    2  A    between atoms: O_4  and  C_32
REMARK    3  A    between atoms: N_5  and  C_15
REMARK    4  A    between atoms: N_7  and  C_23
REMARK    5  A    between atoms: N_8  and  C_26
REMARK                            x       y       z     vdW  Elec       q    Type
REMARK                         _______ _______ _______ _____ _____    ______ ____
ROOT
ATOM      2  O   UNL     1      -6.443  -9.798  14.052  0.00  0.00    -0.266 OA
ATOM      5  N   UNL     1      -3.186 -13.452  12.970  0.00  0.00    -0.298 NA
ATOM      6  N   UNL     1      -4.252 -10.598  13.919  0.00  0.00    -0.310 N 
ATOM      9  C   UNL     1      -3.153 -11.286  11.709  0.00  0.00    +0.024 C 
ATOM     10  C   UNL     1      -1.896 -11.480  13.802  0.00  0.00    +0.050 C 
ATOM     11  C   UNL     1      -1.857 -10.880  12.398  0.00  0.00    +0.017 C 
ATOM     12  C   UNL     1      -3.260 -12.824  11.645  0.00  0.00    +0.090 C 
ATOM     13  C   UNL     1      -1.986 -13.020  13.703  0.00  0.00    +0.094 C 
ATOM     14  C   UNL     1      -4.331 -10.643  12.452  0.00  0.00    +0.130 C 
ATOM     16  C   UNL     1      -3.070 -10.928  14.590  0.00  0.00    +0.026 A 
ATOM     19  C   UNL     1      -2.982 -10.776  15.921  0.00  0.00    +0.024 A 
ATOM     20  C   UNL     1      -5.387 -10.115  14.601  0.00  0.00    +0.273 A 
ATOM     23  C   UNL     1      -5.257  -9.983  16.087  0.00  0.00    +0.100 A 
ATOM     24  C   UNL     1      -4.102 -10.295  16.683  0.00  0.00    +0.030 A 
ENDROOT
BRANCH   5  15
ATOM      1  O   UNL     1      -1.844 -17.411  12.577  0.00  0.00    -0.380 OA
ATOM     15  C   UNL     1      -3.238 -14.908  12.863  0.00  0.00    +0.061 C 
ATOM     17  C   UNL     1      -2.497 -15.573  14.028  0.00  0.00    +0.047 C 
ATOM     18  C   UNL     1      -2.639 -15.366  11.531  0.00  0.00    +0.047 C 
ATOM     21  C   UNL     1      -2.447 -17.084  13.830  0.00  0.00    +0.161 C 
ATOM     22  C   UNL     1      -2.581 -16.889  11.471  0.00  0.00    +0.161 C 
ENDBRANCH   5  15
BRANCH  23   7
ATOM      3  O   UNL     1      -7.532 -11.518  16.835  0.00  0.00    -0.252 OA
ATOM      7  N   UNL     1      -6.338  -9.531  16.786  0.00  0.00    -0.265 N 
ATOM      8  N   UNL     1      -8.374  -9.574  17.843  0.00  0.00    -0.266 N 
ATOM     25  C   UNL     1      -7.437 -10.329  17.130  0.00  0.00    +0.308 C 
ATOM     33  H   UNL     1      -6.460  -8.524  16.843  0.00  0.00    +0.157 HD
ATOM     34  H   UNL     1      -8.145  -8.597  18.004  0.00  0.00    +0.156 HD
BRANCH   8  26
ATOM     26  C   UNL     1      -9.615 -10.002  18.369  0.00  0.00    +0.077 A 
ATOM     27  C   UNL     1      -9.648 -10.868  19.452  0.00  0.00    +0.141 A 
ATOM     28  C   UNL     1     -10.783  -9.540  17.781  0.00  0.00    +0.027 A 
ATOM     29  C   UNL     1     -10.880 -11.281  19.959  0.00  0.00    +0.047 A 
ATOM     30  C   UNL     1     -12.015  -9.954  18.290  0.00  0.00    +0.002 A 
ATOM     31  C   UNL     1     -12.064 -10.825  19.378  0.00  0.00    +0.004 A 
BRANCH  27   4
ATOM      4  O   UNL     1      -8.504 -11.325  20.034  0.00  0.00    -0.493 OA
ATOM     32  C   UNL     1      -8.257 -12.727  19.961  0.00  0.00    +0.277 C 
ENDBRANCH  27   4
ENDBRANCH   8  26
ENDBRANCH  23   7
TORSDOF 4
ENDMDL
MODEL 5
REMARK VINA RESULT:      -7.3     18.995     20.528
REMARK  Name = 11886479
REMARK  5 active torsions:
REMARK  status: ('A' for Active; 'I' for Inactive)
REMARK    1  A    between atoms: O_4  and  C_27
REMARK    2  A    between atoms: O_4  and  C_32
REMARK    3  A    between atoms: N_5  and  C_15
REMARK    4  A    between atoms: N_7  and  C_23
REMARK    5  A    between atoms: N_8  and  C_26
REMARK                            x       y       z     vdW  Elec       q    Type
REMARK                         _______ _______ _______ _____ _____    ______ ____
ROOT
ATOM      2  O   UNL     1      -4.609 -10.744  17.920  0.00  0.00    -0.266 OA
ATOM      5  N   UNL     1      -3.795 -11.086  12.986  0.00  0.00    -0.298 NA
ATOM      6  N   UNL     1      -3.747 -11.887  16.075  0.00  0.00    -0.310 N 
ATOM      9  C   UNL     1      -1.880 -10.940  14.598  0.00  0.00    +0.024 C 
ATOM     10  C   UNL     1      -2.850 -13.127  14.075  0.00  0.00    +0.050 C 
ATOM     11  C   UNL     1      -1.535 -12.403  14.352  0.00  0.00    +0.017 C 
ATOM     12  C   UNL     1      -2.582 -10.346  13.358  0.00  0.00    +0.090 C 
ATOM     13  C   UNL     1      -3.520 -12.521  12.820  0.00  0.00    +0.094 C 
ATOM     14  C   UNL     1      -2.738 -10.840  15.866  0.00  0.00    +0.130 C 
ATOM     16  C   UNL     1      -3.780 -13.031  15.271  0.00  0.00    +0.026 A 
ATOM     19  C   UNL     1      -4.638 -14.027  15.546  0.00  0.00    +0.024 A 
ATOM     20  C   UNL     1      -4.610 -11.726  17.177  0.00  0.00    +0.273 A 
ATOM     23  C   UNL     1      -5.569 -12.846  17.435  0.00  0.00    +0.100 A 
ATOM     24  C   UNL     1      -5.551 -13.929  16.650  0.00  0.00    +0.030 A 
ENDROOT
BRANCH   5  15
ATOM      1  O   UNL     1      -4.972  -8.224  10.148  0.00  0.00    -0.380 OA
ATOM     15  C   UNL     1      -4.401 -10.526  11.781  0.00  0.00    +0.061 C 
ATOM     17  C   UNL     1      -3.343  -9.872  10.885  0.00  0.00    +0.047 C 
ATOM     18  C   UNL     1      -5.480  -9.505  12.151  0.00  0.00    +0.047 C 
ATOM     21  C   UNL     1      -4.008  -9.179   9.701  0.00  0.00    +0.161 C 
ATOM     22  C   UNL     1      -6.026  -8.831  10.897  0.00  0.00    +0.161 C 
ENDBRANCH   5  15
BRANCH  23   7
ATOM      3  O   UNL     1      -8.270 -11.966  17.295  0.00  0.00    -0.252 OA
ATOM      7  N   UNL     1      -6.430 -12.723  18.486  0.00  0.00    -0.265 N 
ATOM      8  N   UNL     1      -8.372 -12.268  19.620  0.00  0.00    -0.266 N 
ATOM     25  C   UNL     1      -7.755 -12.283  18.365  0.00  0.00    +0.308 C 
ATOM     33  H   UNL     1      -6.022 -12.715  19.416  0.00  0.00    +0.157 HD
ATOM     34  H   UNL     1      -7.805 -12.560  20.411  0.00  0.00    +0.156 HD
BRANCH   8  26
ATOM     26  C   UNL     1      -9.699 -11.889  19.930  0.00  0.00    +0.077 A 
ATOM     27  C   UNL     1     -10.613 -12.844  20.350  0.00  0.00    +0.141 A 
ATOM     28  C   UNL     1     -10.058 -10.556  19.804  0.00  0.00    +0.027 A 
ATOM     29  C   UNL     1     -11.918 -12.454  20.652  0.00  0.00    +0.047 A 
ATOM     30  C   UNL     1     -11.364 -10.167  20.107  0.00  0.00    +0.002 A 
ATOM     31  C   UNL     1     -12.294 -11.116  20.531  0.00  0.00    +0.004 A 
BRANCH  27   4
ATOM      4  O   UNL     1     -10.267 -14.156  20.475  0.00  0.00    -0.493 OA
ATOM     32  C   UNL     1     -10.148 -14.669  21.800  0.00  0.00    +0.277 C 
ENDBRANCH  27   4
ENDBRANCH   8  26
ENDBRANCH  23   7
TORSDOF 4
ENDMDL
MODEL 6
REMARK VINA RESULT:      -7.2     29.407     35.757
REMARK  Name = 11886479
REMARK  5 active torsions:
REMARK  status: ('A' for Active; 'I' for Inactive)
REMARK    1  A    between atoms: O_4  and  C_27
REMARK    2  A    between atoms: O_4  and  C_32
REMARK    3  A    between atoms: N_5  and  C_15
REMARK    4  A    between atoms: N_7  and  C_23
REMARK    5  A    between atoms: N_8  and  C_26
REMARK                            x       y       z     vdW  Elec       q    Type
REMARK                         _______ _______ _______ _____ _____    ______ ____
ROOT
ATOM      2  O   UNL     1      14.267   6.843  -0.230  0.00  0.00    -0.266 OA
ATOM      5  N   UNL     1      11.033   5.858   3.471  0.00  0.00    -0.298 NA
ATOM      6  N   UNL     1      12.737   5.417   0.809  0.00  0.00    -0.310 N 
ATOM      9  C   UNL     1      10.258   6.000   1.091  0.00  0.00    +0.024 C 
ATOM     10  C   UNL     1      11.110   3.873   1.955  0.00  0.00    +0.050 C 
ATOM     11  C   UNL     1      10.050   4.493   1.047  0.00  0.00    +0.017 C 
ATOM     12  C   UNL     1      10.107   6.514   2.538  0.00  0.00    +0.090 C 
ATOM     13  C   UNL     1      10.921   4.393   3.398  0.00  0.00    +0.094 C 
ATOM     14  C   UNL     1      11.631   6.329   0.489  0.00  0.00    +0.130 C 
ATOM     16  C   UNL     1      12.505   4.196   1.452  0.00  0.00    +0.026 A 
ATOM     19  C   UNL     1      13.512   3.327   1.637  0.00  0.00    +0.024 A 
ATOM     20  C   UNL     1      14.018   5.787   0.352  0.00  0.00    +0.273 A 
ATOM     23  C   UNL     1      15.118   4.802   0.600  0.00  0.00    +0.100 A 
ATOM     24  C   UNL     1      14.845   3.641   1.204  0.00  0.00    +0.030 A 
ENDROOT
BRANCH   5  15
ATOM      1  O   UNL     1      11.324   6.028   7.656  0.00  0.00    -0.380 OA
ATOM     15  C   UNL     1      10.824   6.332   4.837  0.00  0.00    +0.061 C 
ATOM     17  C   UNL     1      12.148   6.747   5.485  0.00  0.00    +0.047 C 
ATOM     18  C   UNL     1      10.145   5.247   5.679  0.00  0.00    +0.047 C 
ATOM     21  C   UNL     1      11.930   7.112   6.949  0.00  0.00    +0.161 C 
ATOM     22  C   UNL     1      10.038   5.694   7.132  0.00  0.00    +0.161 C 
ENDBRANCH   5  15
BRANCH  23   7
ATOM      3  O   UNL     1      16.144   4.502  -2.036  0.00  0.00    -0.252 OA
ATOM      7  N   UNL     1      16.375   5.129   0.185  0.00  0.00    -0.265 N 
ATOM      8  N   UNL     1      18.162   5.390  -1.231  0.00  0.00    -0.266 N 
ATOM     25  C   UNL     1      16.835   4.961  -1.128  0.00  0.00    +0.308 C 
ATOM     33  H   UNL     1      17.077   5.268   0.907  0.00  0.00    +0.157 HD
ATOM     34  H   UNL     1      18.594   5.745  -0.382  0.00  0.00    +0.156 HD
BRANCH   8  26
ATOM     26  C   UNL     1      18.989   5.387  -2.379  0.00  0.00    +0.077 A 
ATOM     27  C   UNL     1      19.811   4.302  -2.640  0.00  0.00    +0.141 A 
ATOM     28  C   UNL     1      18.956   6.485  -3.225  0.00  0.00    +0.027 A 
ATOM     29  C   UNL     1      20.620   4.315  -3.776  0.00  0.00    +0.047 A 
ATOM     30  C   UNL     1      19.766   6.497  -4.362  0.00  0.00    +0.002 A 
ATOM     31  C   UNL     1      20.599   5.412  -4.637  0.00  0.00    +0.004 A 
BRANCH  27   4
ATOM      4  O   UNL     1      19.847   3.219  -1.812  0.00  0.00    -0.493 OA
ATOM     32  C   UNL     1      21.133   2.692  -1.495  0.00  0.00    +0.277 C 
ENDBRANCH  27   4
ENDBRANCH   8  26
ENDBRANCH  23   7
TORSDOF 4
ENDMDL
MODEL 7
REMARK VINA RESULT:      -7.2     26.677     32.083
REMARK  Name = 11886479
REMARK  5 active torsions:
REMARK  status: ('A' for Active; 'I' for Inactive)
REMARK    1  A    between atoms: O_4  and  C_27
REMARK    2  A    between atoms: O_4  and  C_32
REMARK    3  A    between atoms: N_5  and  C_15
REMARK    4  A    between atoms: N_7  and  C_23
REMARK    5  A    between atoms: N_8  and  C_26
REMARK                            x       y       z     vdW  Elec       q    Type
REMARK                         _______ _______ _______ _____ _____    ______ ____
ROOT
ATOM      2  O   UNL     1      10.340   6.259   0.959  0.00  0.00    -0.266 OA
ATOM      5  N   UNL     1      12.144   4.109  -3.194  0.00  0.00    -0.298 NA
ATOM      6  N   UNL     1      12.124   5.385  -0.269  0.00  0.00    -0.310 N 
ATOM      9  C   UNL     1      12.909   6.390  -2.491  0.00  0.00    +0.024 C 
ATOM     10  C   UNL     1      14.035   4.411  -1.589  0.00  0.00    +0.050 C 
ATOM     11  C   UNL     1      14.269   5.833  -2.093  0.00  0.00    +0.017 C 
ATOM     12  C   UNL     1      12.282   5.514  -3.596  0.00  0.00    +0.090 C 
ATOM     13  C   UNL     1      13.422   3.556  -2.722  0.00  0.00    +0.094 C 
ATOM     14  C   UNL     1      12.026   6.483  -1.240  0.00  0.00    +0.130 C 
ATOM     16  C   UNL     1      13.125   4.414  -0.374  0.00  0.00    +0.026 A 
ATOM     19  C   UNL     1      13.266   3.482   0.582  0.00  0.00    +0.024 A 
ATOM     20  C   UNL     1      11.226   5.416   0.817  0.00  0.00    +0.273 A 
ATOM     23  C   UNL     1      11.401   4.346   1.849  0.00  0.00    +0.100 A 
ATOM     24  C   UNL     1      12.383   3.449   1.715  0.00  0.00    +0.030 A 
ENDROOT
BRANCH   5  15
ATOM      1  O   UNL     1      10.428   3.179  -6.911  0.00  0.00    -0.380 OA
ATOM     15  C   UNL     1      11.596   3.304  -4.283  0.00  0.00    +0.061 C 
ATOM     17  C   UNL     1      12.428   3.463  -5.559  0.00  0.00    +0.047 C 
ATOM     18  C   UNL     1      10.140   3.693  -4.554  0.00  0.00    +0.047 C 
ATOM     21  C   UNL     1      11.768   2.723  -6.718  0.00  0.00    +0.161 C 
ATOM     22  C   UNL     1       9.606   2.941  -5.768  0.00  0.00    +0.161 C 
ENDBRANCH   5  15
BRANCH  23   7
ATOM      3  O   UNL     1      11.597   5.963   4.181  0.00  0.00    -0.252 OA
ATOM      7  N   UNL     1      10.544   4.334   2.910  0.00  0.00    -0.265 N 
ATOM      8  N   UNL     1       9.648   4.901   4.945  0.00  0.00    -0.266 N 
ATOM     25  C   UNL     1      10.684   5.152   4.040  0.00  0.00    +0.308 C 
ATOM     33  H   UNL     1       9.926   3.532   2.993  0.00  0.00    +0.157 HD
ATOM     34  H   UNL     1       8.969   4.194   4.677  0.00  0.00    +0.156 HD
BRANCH   8  26
ATOM     26  C   UNL     1       9.426   5.512   6.201  0.00  0.00    +0.077 A 
ATOM     27  C   UNL     1       8.762   6.727   6.275  0.00  0.00    +0.141 A 
ATOM     28  C   UNL     1       9.886   4.874   7.343  0.00  0.00    +0.027 A 
ATOM     29  C   UNL     1       8.551   7.317   7.521  0.00  0.00    +0.047 A 
ATOM     30  C   UNL     1       9.674   5.464   8.589  0.00  0.00    +0.002 A 
ATOM     31  C   UNL     1       9.007   6.686   8.679  0.00  0.00    +0.004 A 
BRANCH  27   4
ATOM      4  O   UNL     1       8.308   7.360   5.156  0.00  0.00    -0.493 OA
ATOM     32  C   UNL     1       8.558   8.761   5.059  0.00  0.00    +0.277 C 
ENDBRANCH  27   4
ENDBRANCH   8  26
ENDBRANCH  23   7
TORSDOF 4
ENDMDL
MODEL 8
REMARK VINA RESULT:      -7.2     15.131     16.950
REMARK  Name = 11886479
REMARK  5 active torsions:
REMARK  status: ('A' for Active; 'I' for Inactive)
REMARK    1  A    between atoms: O_4  and  C_27
REMARK    2  A    between atoms: O_4  and  C_32
REMARK    3  A    between atoms: N_5  and  C_15
REMARK    4  A    between atoms: N_7  and  C_23
REMARK    5  A    between atoms: N_8  and  C_26
REMARK                            x       y       z     vdW  Elec       q    Type
REMARK                         _______ _______ _______ _____ _____    ______ ____
ROOT
ATOM      2  O   UNL     1     -10.294  -9.172  13.760  0.00  0.00    -0.266 OA
ATOM      5  N   UNL     1     -13.726  -5.751  12.479  0.00  0.00    -0.298 NA
ATOM      6  N   UNL     1     -12.246  -7.977  14.223  0.00  0.00    -0.310 N 
ATOM      9  C   UNL     1     -14.362  -8.156  12.789  0.00  0.00    +0.024 C 
ATOM     10  C   UNL     1     -14.332  -6.659  14.727  0.00  0.00    +0.050 C 
ATOM     11  C   UNL     1     -15.090  -7.819  14.083  0.00  0.00    +0.017 C 
ATOM     12  C   UNL     1     -14.345  -6.928  11.855  0.00  0.00    +0.090 C 
ATOM     13  C   UNL     1     -14.348  -5.441  13.775  0.00  0.00    +0.094 C 
ATOM     14  C   UNL     1     -12.952  -8.658  13.129  0.00  0.00    +0.130 C 
ATOM     16  C   UNL     1     -12.905  -7.062  15.051  0.00  0.00    +0.026 A 
ATOM     19  C   UNL     1     -12.275  -6.533  16.112  0.00  0.00    +0.024 A 
ATOM     20  C   UNL     1     -10.910  -8.361  14.452  0.00  0.00    +0.273 A 
ATOM     23  C   UNL     1     -10.234  -7.731  15.630  0.00  0.00    +0.100 A 
ATOM     24  C   UNL     1     -10.910  -6.874  16.403  0.00  0.00    +0.030 A 
ENDROOT
BRANCH   5  15
ATOM      1  O   UNL     1     -15.112  -3.172   9.470  0.00  0.00    -0.380 OA
ATOM     15  C   UNL     1     -13.776  -4.597  11.585  0.00  0.00    +0.061 C 
ATOM     17  C   UNL     1     -15.042  -3.767  11.826  0.00  0.00    +0.047 C 
ATOM     18  C   UNL     1     -13.717  -5.052  10.124  0.00  0.00    +0.047 C 
ATOM     21  C   UNL     1     -15.143  -2.646  10.798  0.00  0.00    +0.161 C 
ATOM     22  C   UNL     1     -13.893  -3.859   9.190  0.00  0.00    +0.161 C 
ENDBRANCH   5  15
BRANCH  23   7
ATOM      3  O   UNL     1      -9.341  -9.788  17.379  0.00  0.00    -0.252 OA
ATOM      7  N   UNL     1      -8.936  -8.067  15.879  0.00  0.00    -0.265 N 
ATOM      8  N   UNL     1      -7.151  -9.186  16.788  0.00  0.00    -0.266 N 
ATOM     25  C   UNL     1      -8.546  -9.091  16.752  0.00  0.00    +0.308 C 
ATOM     33  H   UNL     1      -8.226  -7.391  15.611  0.00  0.00    +0.157 HD
ATOM     34  H   UNL     1      -6.634  -8.531  16.208  0.00  0.00    +0.156 HD
BRANCH   8  26
ATOM     26  C   UNL     1      -6.361 -10.086  17.542  0.00  0.00    +0.077 A 
ATOM     27  C   UNL     1      -5.294 -10.740  16.944  0.00  0.00    +0.141 A 
ATOM     28  C   UNL     1      -6.678 -10.295  18.875  0.00  0.00    +0.027 A 
ATOM     29  C   UNL     1      -4.525 -11.625  17.701  0.00  0.00    +0.047 A 
ATOM     30  C   UNL     1      -5.908 -11.180  19.630  0.00  0.00    +0.002 A 
ATOM     31  C   UNL     1      -4.831 -11.845  19.044  0.00  0.00    +0.004 A 
BRANCH  27   4
ATOM      4  O   UNL     1      -4.977 -10.539  15.634  0.00  0.00    -0.493 OA
ATOM     32  C   UNL     1      -3.633 -10.812  15.245  0.00  0.00    +0.277 C 
ENDBRANCH  27   4
ENDBRANCH   8  26
ENDBRANCH  23   7
TORSDOF 4
ENDMDL
MODEL 9
REMARK VINA RESULT:      -7.2     10.759     15.476
REMARK  Name = 11886479
REMARK  5 active torsions:
REMARK  status: ('A' for Active; 'I' for Inactive)
REMARK    1  A    between atoms: O_4  and  C_27
REMARK    2  A    between atoms: O_4  and  C_32
REMARK    3  A    between atoms: N_5  and  C_15
REMARK    4  A    between atoms: N_7  and  C_23
REMARK    5  A    between atoms: N_8  and  C_26
REMARK                            x       y       z     vdW  Elec       q    Type
REMARK                         _______ _______ _______ _____ _____    ______ ____
ROOT
ATOM      2  O   UNL     1     -13.962   5.511  35.435  0.00  0.00    -0.266 OA
ATOM      5  N   UNL     1     -13.497  10.360  36.618  0.00  0.00    -0.298 NA
ATOM      6  N   UNL     1     -12.855   7.558  35.232  0.00  0.00    -0.310 N 
ATOM      9  C   UNL     1     -11.698   8.716  37.203  0.00  0.00    +0.024 C 
ATOM     10  C   UNL     1     -11.688   9.777  34.996  0.00  0.00    +0.050 C 
ATOM     11  C   UNL     1     -10.786   9.301  36.133  0.00  0.00    +0.017 C 
ATOM     12  C   UNL     1     -12.687   9.791  37.702  0.00  0.00    +0.090 C 
ATOM     13  C   UNL     1     -12.654  10.863  35.523  0.00  0.00    +0.094 C 
ATOM     14  C   UNL     1     -12.407   7.482  36.630  0.00  0.00    +0.130 C 
ATOM     16  C   UNL     1     -12.466   8.616  34.404  0.00  0.00    +0.026 A 
ATOM     19  C   UNL     1     -12.794   8.612  33.102  0.00  0.00    +0.024 A 
ATOM     20  C   UNL     1     -13.609   6.470  34.748  0.00  0.00    +0.273 A 
ATOM     23  C   UNL     1     -13.975   6.515  33.297  0.00  0.00    +0.100 A 
ATOM     24  C   UNL     1     -13.566   7.539  32.540  0.00  0.00    +0.030 A 
ENDROOT
BRANCH   5  15
ATOM      1  O   UNL     1     -16.935  12.164  38.216  0.00  0.00    -0.380 OA
ATOM     15  C   UNL     1     -14.382  11.408  37.120  0.00  0.00    +0.061 C 
ATOM     17  C   UNL     1     -14.752  11.161  38.587  0.00  0.00    +0.047 C 
ATOM     18  C   UNL     1     -15.651  11.489  36.266  0.00  0.00    +0.047 C 
ATOM     21  C   UNL     1     -15.778  12.188  39.054  0.00  0.00    +0.161 C 
ATOM     22  C   UNL     1     -16.628  12.497  36.862  0.00  0.00    +0.161 C 
ENDBRANCH   5  15
BRANCH  23   7
ATOM      3  O   UNL     1     -12.957   4.096  32.199  0.00  0.00    -0.252 OA
ATOM      7  N   UNL     1     -14.716   5.487  32.792  0.00  0.00    -0.265 N 
ATOM      8  N   UNL     1     -15.185   3.458  31.828  0.00  0.00    -0.266 N 
ATOM     25  C   UNL     1     -14.166   4.313  32.260  0.00  0.00    +0.308 C 
ATOM     33  H   UNL     1     -15.687   5.686  32.569  0.00  0.00    +0.157 HD
ATOM     34  H   UNL     1     -16.139   3.788  31.949  0.00  0.00    +0.156 HD
BRANCH   8  26
ATOM     26  C   UNL     1     -15.054   2.181  31.234  0.00  0.00    +0.077 A 
ATOM     27  C   UNL     1     -14.997   2.060  29.854  0.00  0.00    +0.141 A 
ATOM     28  C   UNL     1     -14.986   1.067  32.057  0.00  0.00    +0.027 A 
ATOM     29  C   UNL     1     -14.867   0.794  29.283  0.00  0.00    +0.047 A 
ATOM     30  C   UNL     1     -14.856  -0.199  31.485  0.00  0.00    +0.002 A 
ATOM     31  C   UNL     1     -14.797  -0.336  30.098  0.00  0.00    +0.004 A 
BRANCH  27   4
ATOM      4  O   UNL     1     -15.063   3.151  29.039  0.00  0.00    -0.493 OA
ATOM     32  C   UNL     1     -15.960   3.079  27.934  0.00  0.00    +0.277 C 
ENDBRANCH  27   4
ENDBRANCH   8  26
ENDBRANCH  23   7
TORSDOF 4
ENDMDL
MODEL 10
REMARK VINA RESULT:      -6.9     27.156     31.979
REMARK  Name = 11886479
REMARK  5 active torsions:
REMARK  status: ('A' for Active; 'I' for Inactive)
REMARK    1  A    between atoms: O_4  and  C_27
REMARK    2  A    between atoms: O_4  and  C_32
REMARK    3  A    between atoms: N_5  and  C_15
REMARK    4  A    between atoms: N_7  and  C_23
REMARK    5  A    between atoms: N_8  and  C_26
REMARK                            x       y       z     vdW  Elec       q    Type
REMARK                         _______ _______ _______ _____ _____    ______ ____
ROOT
ATOM      2  O   UNL     1      12.966   7.155   1.089  0.00  0.00    -0.266 OA
ATOM      5  N   UNL     1      10.850   4.895  -2.853  0.00  0.00    -0.298 NA
ATOM      6  N   UNL     1      12.915   5.424  -0.479  0.00  0.00    -0.310 N 
ATOM      9  C   UNL     1      13.176   5.817  -2.997  0.00  0.00    +0.024 C 
ATOM     10  C   UNL     1      12.832   3.545  -2.153  0.00  0.00    +0.050 C 
ATOM     11  C   UNL     1      13.756   4.410  -3.007  0.00  0.00    +0.017 C 
ATOM     12  C   UNL     1      11.746   5.805  -3.577  0.00  0.00    +0.090 C 
ATOM     13  C   UNL     1      11.414   3.539  -2.769  0.00  0.00    +0.094 C 
ATOM     14  C   UNL     1      13.226   6.364  -1.564  0.00  0.00    +0.130 C 
ATOM     16  C   UNL     1      12.789   4.053  -0.723  0.00  0.00    +0.026 A 
ATOM     19  C   UNL     1      12.613   3.197   0.297  0.00  0.00    +0.024 A 
ATOM     20  C   UNL     1      12.847   5.958   0.824  0.00  0.00    +0.273 A 
ATOM     23  C   UNL     1      12.625   4.975   1.930  0.00  0.00    +0.100 A 
ATOM     24  C   UNL     1      12.528   3.671   1.650  0.00  0.00    +0.030 A 
ENDROOT
BRANCH   5  15
ATOM      1  O   UNL     1       7.520   6.184  -5.062  0.00  0.00    -0.380 OA
ATOM     15  C   UNL     1       9.523   4.871  -3.463  0.00  0.00    +0.061 C 
ATOM     17  C   UNL     1       9.616   4.955  -4.990  0.00  0.00    +0.047 C 
ATOM     18  C   UNL     1       8.669   6.024  -2.926  0.00  0.00    +0.047 C 
ATOM     21  C   UNL     1       8.223   5.064  -5.601  0.00  0.00    +0.161 C 
ATOM     22  C   UNL     1       7.329   6.074  -3.651  0.00  0.00    +0.161 C 
ENDBRANCH   5  15
BRANCH  23   7
ATOM      3  O   UNL     1      10.238   5.308   3.441  0.00  0.00    -0.252 OA
ATOM      7  N   UNL     1      12.540   5.454   3.205  0.00  0.00    -0.265 N 
ATOM      8  N   UNL     1      11.587   6.113   5.185  0.00  0.00    -0.266 N 
ATOM     25  C   UNL     1      11.337   5.600   3.908  0.00  0.00    +0.308 C 
ATOM     33  H   UNL     1      13.351   5.951   3.564  0.00  0.00    +0.157 HD
ATOM     34  H   UNL     1      12.558   6.304   5.418  0.00  0.00    +0.156 HD
BRANCH   8  26
ATOM     26  C   UNL     1      10.648   6.407   6.202  0.00  0.00    +0.077 A 
ATOM     27  C   UNL     1      10.087   7.673   6.284  0.00  0.00    +0.141 A 
ATOM     28  C   UNL     1      10.308   5.409   7.103  0.00  0.00    +0.027 A 
ATOM     29  C   UNL     1       9.163   7.947   7.292  0.00  0.00    +0.047 A 
ATOM     30  C   UNL     1       9.383   5.685   8.111  0.00  0.00    +0.002 A 
ATOM     31  C   UNL     1       8.811   6.953   8.206  0.00  0.00    +0.004 A 
BRANCH  27   4
ATOM      4  O   UNL     1      10.417   8.657   5.401  0.00  0.00    -0.493 OA
ATOM     32  C   UNL     1       9.451   8.982   4.404  0.00  0.00    +0.277 C 
ENDBRANCH  27   4
ENDBRANCH   8  26
ENDBRANCH  23   7
TORSDOF 4
ENDMDL
