MODEL 1
REMARK VINA RESULT:      -8.0      0.000      0.000
REMARK  Name = 26743124
REMARK  7 active torsions:
REMARK  status: ('A' for Active; 'I' for Inactive)
REMARK    1  A    between atoms: S_1  and  C_25
REMARK    2  A    between atoms: S_1  and  C_30
REMARK    3  A    between atoms: C_9  and  C_13
REMARK    4  A    between atoms: C_10  and  C_15
REMARK    5  A    between atoms: C_13  and  C_16
REMARK    6  A    between atoms: C_15  and  C_17
REMARK    7  A    between atoms: C_24  and  C_25
REMARK                            x       y       z     vdW  Elec       q    Type
REMARK                         _______ _______ _______ _____ _____    ______ ____
ROOT
ATOM      4  N   UNL     1      11.588   9.065  23.063  0.00  0.00    -0.316 NA
ATOM      9  C   UNL     1      12.039   7.894  20.392  0.00  0.00    +0.004 C 
ATOM     10  C   UNL     1      13.187   8.458  21.261  0.00  0.00    +0.012 C 
ATOM     11  C   UNL     1      10.872   7.483  21.305  0.00  0.00    +0.019 C 
ATOM     12  C   UNL     1      12.687   9.548  22.226  0.00  0.00    +0.085 C 
ATOM     14  C   UNL     1      10.457   8.601  22.260  0.00  0.00    +0.081 C 
ATOM     36  H   UNL     1      11.279   9.814  23.680  0.00  0.00    +0.122 HD
ENDROOT
BRANCH   9  13
ATOM     13  C   UNL     1      11.561   8.850  19.293  0.00  0.00    +0.100 C 
BRANCH  13  16
ATOM      2  O   UNL     1      11.832   7.322  17.497  0.00  0.00    -0.276 OA
ATOM      5  N   UNL     1      12.958   9.347  17.321  0.00  0.00    -0.298 N 
ATOM      6  N   UNL     1      14.527  11.258  15.816  0.00  0.00    -0.312 N 
ATOM      8  N   UNL     1      16.397  12.684  15.604  0.00  0.00    -0.240 NA
ATOM     16  C   UNL     1      12.122   8.428  17.957  0.00  0.00    +0.216 C 
ATOM     18  C   UNL     1      13.544   9.010  16.027  0.00  0.00    +0.126 C 
ATOM     19  C   UNL     1      13.291  10.665  17.865  0.00  0.00    +0.126 C 
ATOM     20  C   UNL     1      13.716  10.241  15.140  0.00  0.00    +0.125 C 
ATOM     21  C   UNL     1      14.584  11.236  17.281  0.00  0.00    +0.125 C 
ATOM     23  C   UNL     1      15.250  12.195  15.083  0.00  0.00    +0.121 A 
ATOM     26  C   UNL     1      14.738  12.567  13.850  0.00  0.00    +0.043 A 
ATOM     27  C   UNL     1      15.448  13.502  13.105  0.00  0.00    +0.005 A 
ATOM     28  C   UNL     1      17.060  13.590  14.852  0.00  0.00    +0.113 A 
ATOM     29  C   UNL     1      16.633  14.028  13.608  0.00  0.00    +0.020 A 
ENDBRANCH  13  16
ENDBRANCH   9  13
BRANCH  10  15
ATOM     15  C   UNL     1      14.368   8.972  20.436  0.00  0.00    +0.064 C 
BRANCH  15  17
ATOM      3  O   UNL     1      16.131   5.981  19.481  0.00  0.00    -0.359 OA
ATOM      7  N   UNL     1      14.981   6.758  19.566  0.00  0.00    -0.083 NA
ATOM     17  C   UNL     1      15.367   7.882  20.174  0.00  0.00    +0.084 A 
ATOM     22  C   UNL     1      16.736   7.873  20.494  0.00  0.00    +0.071 A 
ATOM     24  C   UNL     1      17.169   6.656  20.037  0.00  0.00    +0.148 A 
BRANCH  24  25
ATOM     25  C   UNL     1      18.471   5.977  20.032  0.00  0.00    +0.151 C 
BRANCH  25   1
ATOM      1  S   UNL     1      19.737   6.839  21.030  0.00  0.00    -0.117 S 
BRANCH   1  30
ATOM     30  C   UNL     1      20.791   5.473  21.497  0.00  0.00    +0.008 A 
ATOM     31  C   UNL     1      20.857   4.337  20.692  0.00  0.00    +0.015 A 
ATOM     32  C   UNL     1      21.548   5.546  22.666  0.00  0.00    +0.015 A 
ATOM     33  C   UNL     1      21.679   3.270  21.058  0.00  0.00    +0.001 A 
ATOM     34  C   UNL     1      22.371   4.480  23.031  0.00  0.00    +0.001 A 
ATOM     35  C   UNL     1      22.436   3.342  22.226  0.00  0.00    +0.000 A 
ENDBRANCH   1  30
ENDBRANCH  25   1
ENDBRANCH  24  25
ENDBRANCH  15  17
ENDBRANCH  10  15
TORSDOF 7
ENDMDL
MODEL 2
REMARK VINA RESULT:      -7.7      2.504      8.443
REMARK  Name = 26743124
REMARK  7 active torsions:
REMARK  status: ('A' for Active; 'I' for Inactive)
REMARK    1  A    between atoms: S_1  and  C_25
REMARK    2  A    between atoms: S_1  and  C_30
REMARK    3  A    between atoms: C_9  and  C_13
REMARK    4  A    between atoms: C_10  and  C_15
REMARK    5  A    between atoms: C_13  and  C_16
REMARK    6  A    between atoms: C_15  and  C_17
REMARK    7  A    between atoms: C_24  and  C_25
REMARK                            x       y       z     vdW  Elec       q    Type
REMARK                         _______ _______ _______ _____ _____    ______ ____
ROOT
ATOM      4  N   UNL     1      10.147   8.306  21.709  0.00  0.00    -0.316 NA
ATOM      9  C   UNL     1      12.813   9.379  21.044  0.00  0.00    +0.004 C 
ATOM     10  C   UNL     1      12.051   8.403  20.117  0.00  0.00    +0.012 C 
ATOM     11  C   UNL     1      11.802  10.127  21.928  0.00  0.00    +0.019 C 
ATOM     12  C   UNL     1      11.079   7.511  20.909  0.00  0.00    +0.085 C 
ATOM     14  C   UNL     1      10.846   9.179  22.650  0.00  0.00    +0.081 C 
ATOM     36  H   UNL     1       9.526   7.682  22.224  0.00  0.00    +0.122 HD
ENDROOT
BRANCH   9  13
ATOM     13  C   UNL     1      13.896   8.711  21.900  0.00  0.00    +0.100 C 
BRANCH  13  16
ATOM      2  O   UNL     1      15.260  10.641  21.676  0.00  0.00    -0.276 OA
ATOM      5  N   UNL     1      16.335   8.585  21.553  0.00  0.00    -0.298 N 
ATOM      6  N   UNL     1      18.742   6.980  21.450  0.00  0.00    -0.312 N 
ATOM      8  N   UNL     1      20.047   5.275  20.467  0.00  0.00    -0.240 NA
ATOM     16  C   UNL     1      15.219   9.409  21.701  0.00  0.00    +0.216 C 
ATOM     18  C   UNL     1      17.651   9.185  21.352  0.00  0.00    +0.126 C 
ATOM     19  C   UNL     1      16.286   7.122  21.595  0.00  0.00    +0.126 C 
ATOM     20  C   UNL     1      18.763   8.347  21.978  0.00  0.00    +0.125 C 
ATOM     21  C   UNL     1      17.482   6.470  20.902  0.00  0.00    +0.125 C 
ATOM     23  C   UNL     1      19.898   6.205  21.437  0.00  0.00    +0.121 A 
ATOM     26  C   UNL     1      20.831   6.441  22.434  0.00  0.00    +0.043 A 
ATOM     27  C   UNL     1      21.992   5.675  22.436  0.00  0.00    +0.005 A 
ATOM     28  C   UNL     1      21.187   4.549  20.500  0.00  0.00    +0.113 A 
ATOM     29  C   UNL     1      22.181   4.709  21.453  0.00  0.00    +0.020 A 
ENDBRANCH  13  16
ENDBRANCH   9  13
BRANCH  10  15
ATOM     15  C   UNL     1      12.979   7.549  19.252  0.00  0.00    +0.064 C 
BRANCH  15  17
ATOM      3  O   UNL     1      13.750   8.383  15.835  0.00  0.00    -0.359 OA
ATOM      7  N   UNL     1      13.552   7.470  16.864  0.00  0.00    -0.083 NA
ATOM     17  C   UNL     1      13.261   8.213  17.934  0.00  0.00    +0.084 A 
ATOM     22  C   UNL     1      13.262   9.589  17.646  0.00  0.00    +0.071 A 
ATOM     24  C   UNL     1      13.575   9.642  16.313  0.00  0.00    +0.148 A 
BRANCH  24  25
ATOM     25  C   UNL     1      13.749  10.738  15.353  0.00  0.00    +0.151 C 
BRANCH  25   1
ATOM      1  S   UNL     1      14.954  11.997  15.905  0.00  0.00    -0.117 S 
BRANCH   1  30
ATOM     30  C   UNL     1      15.881  12.265  14.401  0.00  0.00    +0.008 A 
ATOM     31  C   UNL     1      15.402  11.770  13.189  0.00  0.00    +0.015 A 
ATOM     32  C   UNL     1      17.084  12.970  14.441  0.00  0.00    +0.015 A 
ATOM     33  C   UNL     1      16.127  11.979  12.015  0.00  0.00    +0.001 A 
ATOM     34  C   UNL     1      17.809  13.179  13.267  0.00  0.00    +0.001 A 
ATOM     35  C   UNL     1      17.330  12.683  12.054  0.00  0.00    +0.000 A 
ENDBRANCH   1  30
ENDBRANCH  25   1
ENDBRANCH  24  25
ENDBRANCH  15  17
ENDBRANCH  10  15
TORSDOF 7
ENDMDL
MODEL 3
REMARK VINA RESULT:      -7.5      4.352     10.212
REMARK  Name = 26743124
REMARK  7 active torsions:
REMARK  status: ('A' for Active; 'I' for Inactive)
REMARK    1  A    between atoms: S_1  and  C_25
REMARK    2  A    between atoms: S_1  and  C_30
REMARK    3  A    between atoms: C_9  and  C_13
REMARK    4  A    between atoms: C_10  and  C_15
REMARK    5  A    between atoms: C_13  and  C_16
REMARK    6  A    between atoms: C_15  and  C_17
REMARK    7  A    between atoms: C_24  and  C_25
REMARK                            x       y       z     vdW  Elec       q    Type
REMARK                         _______ _______ _______ _____ _____    ______ ____
ROOT
ATOM      4  N   UNL     1      15.217   7.282  19.215  0.00  0.00    -0.316 NA
ATOM      9  C   UNL     1      17.195   7.503  21.394  0.00  0.00    +0.004 C 
ATOM     10  C   UNL     1      16.131   8.591  21.118  0.00  0.00    +0.012 C 
ATOM     11  C   UNL     1      16.690   6.157  20.849  0.00  0.00    +0.019 C 
ATOM     12  C   UNL     1      15.694   8.598  19.643  0.00  0.00    +0.085 C 
ATOM     14  C   UNL     1      16.238   6.250  19.393  0.00  0.00    +0.081 C 
ATOM     36  H   UNL     1      14.946   7.323  18.234  0.00  0.00    +0.122 HD
ENDROOT
BRANCH   9  13
ATOM     13  C   UNL     1      18.584   7.832  20.835  0.00  0.00    +0.100 C 
BRANCH  13  16
ATOM      2  O   UNL     1      19.602   8.483  22.878  0.00  0.00    -0.276 OA
ATOM      5  N   UNL     1      20.566   6.690  21.757  0.00  0.00    -0.298 N 
ATOM      6  N   UNL     1      22.437   4.485  21.631  0.00  0.00    -0.312 N 
ATOM      8  N   UNL     1      24.148   3.289  20.527  0.00  0.00    -0.240 NA
ATOM     16  C   UNL     1      19.624   7.706  21.921  0.00  0.00    +0.216 C 
ATOM     18  C   UNL     1      21.608   6.507  22.765  0.00  0.00    +0.126 C 
ATOM     19  C   UNL     1      20.583   5.761  20.626  0.00  0.00    +0.126 C 
ATOM     20  C   UNL     1      22.004   5.040  22.916  0.00  0.00    +0.125 C 
ATOM     21  C   UNL     1      21.955   5.125  20.403  0.00  0.00    +0.125 C 
ATOM     23  C   UNL     1      23.310   3.401  21.582  0.00  0.00    +0.121 A 
ATOM     26  C   UNL     1      23.259   2.499  22.632  0.00  0.00    +0.043 A 
ATOM     27  C   UNL     1      24.125   1.410  22.598  0.00  0.00    +0.005 A 
ATOM     28  C   UNL     1      24.975   2.219  20.528  0.00  0.00    +0.113 A 
ATOM     29  C   UNL     1      25.002   1.261  21.529  0.00  0.00    +0.020 A 
ENDBRANCH  13  16
ENDBRANCH   9  13
BRANCH  10  15
ATOM     15  C   UNL     1      16.575   9.989  21.552  0.00  0.00    +0.064 C 
BRANCH  15  17
ATOM      3  O   UNL     1      14.098  12.404  22.550  0.00  0.00    -0.359 OA
ATOM      7  N   UNL     1      15.188  12.003  21.787  0.00  0.00    -0.083 NA
ATOM     17  C   UNL     1      15.443  10.752  22.178  0.00  0.00    +0.084 A 
ATOM     22  C   UNL     1      14.556  10.314  23.176  0.00  0.00    +0.071 A 
ATOM     24  C   UNL     1      13.731  11.389  23.374  0.00  0.00    +0.148 A 
BRANCH  24  25
ATOM     25  C   UNL     1      12.586  11.644  24.257  0.00  0.00    +0.151 C 
BRANCH  25   1
ATOM      1  S   UNL     1      10.983  11.636  23.379  0.00  0.00    -0.117 S 
BRANCH   1  30
ATOM     30  C   UNL     1      11.198  10.235  22.289  0.00  0.00    +0.008 A 
ATOM     31  C   UNL     1      11.656  10.428  20.987  0.00  0.00    +0.015 A 
ATOM     32  C   UNL     1      10.906   8.949  22.744  0.00  0.00    +0.015 A 
ATOM     33  C   UNL     1      11.821   9.334  20.137  0.00  0.00    +0.001 A 
ATOM     34  C   UNL     1      11.072   7.855  21.894  0.00  0.00    +0.001 A 
ATOM     35  C   UNL     1      11.530   8.049  20.590  0.00  0.00    +0.000 A 
ENDBRANCH   1  30
ENDBRANCH  25   1
ENDBRANCH  24  25
ENDBRANCH  15  17
ENDBRANCH  10  15
TORSDOF 7
ENDMDL
MODEL 4
REMARK VINA RESULT:      -7.5     28.575     30.953
REMARK  Name = 26743124
REMARK  7 active torsions:
REMARK  status: ('A' for Active; 'I' for Inactive)
REMARK    1  A    between atoms: S_1  and  C_25
REMARK    2  A    between atoms: S_1  and  C_30
REMARK    3  A    between atoms: C_9  and  C_13
REMARK    4  A    between atoms: C_10  and  C_15
REMARK    5  A    between atoms: C_13  and  C_16
REMARK    6  A    between atoms: C_15  and  C_17
REMARK    7  A    between atoms: C_24  and  C_25
REMARK                            x       y       z     vdW  Elec       q    Type
REMARK                         _______ _______ _______ _____ _____    ______ ____
ROOT
ATOM      4  N   UNL     1      -8.091 -10.948  19.734  0.00  0.00    -0.316 NA
ATOM      9  C   UNL     1      -6.322 -10.185  17.499  0.00  0.00    +0.004 C 
ATOM     10  C   UNL     1      -7.824  -9.820  17.537  0.00  0.00    +0.012 C 
ATOM     11  C   UNL     1      -5.819 -10.394  18.937  0.00  0.00    +0.019 C 
ATOM     12  C   UNL     1      -8.631 -10.824  18.379  0.00  0.00    +0.085 C 
ATOM     14  C   UNL     1      -6.691 -11.371  19.723  0.00  0.00    +0.081 C 
ATOM     36  H   UNL     1      -8.645 -11.626  20.257  0.00  0.00    +0.122 HD
ENDROOT
BRANCH   9  13
ATOM     13  C   UNL     1      -5.996 -11.401  16.625  0.00  0.00    +0.100 C 
BRANCH  13  16
ATOM      2  O   UNL     1      -3.638 -11.190  16.444  0.00  0.00    -0.276 OA
ATOM      5  N   UNL     1      -4.863 -10.911  14.489  0.00  0.00    -0.298 N 
ATOM      6  N   UNL     1      -5.022 -10.598  11.616  0.00  0.00    -0.312 N 
ATOM      8  N   UNL     1      -5.818  -9.465   9.703  0.00  0.00    -0.240 NA
ATOM     16  C   UNL     1      -4.721 -11.161  15.855  0.00  0.00    +0.216 C 
ATOM     18  C   UNL     1      -3.675 -10.664  13.676  0.00  0.00    +0.126 C 
ATOM     19  C   UNL     1      -6.148 -10.888  13.789  0.00  0.00    +0.126 C 
ATOM     20  C   UNL     1      -3.840 -11.187  12.251  0.00  0.00    +0.125 C 
ATOM     21  C   UNL     1      -6.096 -10.099  12.481  0.00  0.00    +0.125 C 
ATOM     23  C   UNL     1      -5.104 -10.484  10.231  0.00  0.00    +0.121 A 
ATOM     26  C   UNL     1      -4.437 -11.436   9.477  0.00  0.00    +0.043 A 
ATOM     27  C   UNL     1      -4.509 -11.336   8.091  0.00  0.00    +0.005 A 
ATOM     28  C   UNL     1      -5.865  -9.400   8.353  0.00  0.00    +0.113 A 
ATOM     29  C   UNL     1      -5.234 -10.301   7.511  0.00  0.00    +0.020 A 
ENDBRANCH  13  16
ENDBRANCH   9  13
BRANCH  10  15
ATOM     15  C   UNL     1      -8.440  -9.670  16.145  0.00  0.00    +0.064 C 
BRANCH  15  17
ATOM      3  O   UNL     1     -10.694  -6.944  16.818  0.00  0.00    -0.359 OA
ATOM      7  N   UNL     1      -9.609  -7.751  17.139  0.00  0.00    -0.083 NA
ATOM     17  C   UNL     1      -9.521  -8.628  16.135  0.00  0.00    +0.084 A 
ATOM     22  C   UNL     1     -10.515  -8.426  15.162  0.00  0.00    +0.071 A 
ATOM     24  C   UNL     1     -11.226  -7.357  15.638  0.00  0.00    +0.148 A 
BRANCH  24  25
ATOM     25  C   UNL     1     -12.389  -6.609  15.146  0.00  0.00    +0.151 C 
BRANCH  25   1
ATOM      1  S   UNL     1     -12.985  -7.193  13.520  0.00  0.00    -0.117 S 
BRANCH   1  30
ATOM     30  C   UNL     1     -12.596  -5.785  12.488  0.00  0.00    +0.008 A 
ATOM     31  C   UNL     1     -12.530  -4.509  13.046  0.00  0.00    +0.015 A 
ATOM     32  C   UNL     1     -12.360  -5.966  11.126  0.00  0.00    +0.015 A 
ATOM     33  C   UNL     1     -12.227  -3.411  12.240  0.00  0.00    +0.001 A 
ATOM     34  C   UNL     1     -12.057  -4.867  10.320  0.00  0.00    +0.001 A 
ATOM     35  C   UNL     1     -11.991  -3.590  10.878  0.00  0.00    +0.000 A 
ENDBRANCH   1  30
ENDBRANCH  25   1
ENDBRANCH  24  25
ENDBRANCH  15  17
ENDBRANCH  10  15
TORSDOF 7
ENDMDL
MODEL 5
REMARK VINA RESULT:      -7.3      3.359      9.158
REMARK  Name = 26743124
REMARK  7 active torsions:
REMARK  status: ('A' for Active; 'I' for Inactive)
REMARK    1  A    between atoms: S_1  and  C_25
REMARK    2  A    between atoms: S_1  and  C_30
REMARK    3  A    between atoms: C_9  and  C_13
REMARK    4  A    between atoms: C_10  and  C_15
REMARK    5  A    between atoms: C_13  and  C_16
REMARK    6  A    between atoms: C_15  and  C_17
REMARK    7  A    between atoms: C_24  and  C_25
REMARK                            x       y       z     vdW  Elec       q    Type
REMARK                         _______ _______ _______ _____ _____    ______ ____
ROOT
ATOM      4  N   UNL     1      17.164  13.886  21.547  0.00  0.00    -0.316 NA
ATOM      9  C   UNL     1      16.523  11.092  20.849  0.00  0.00    +0.004 C 
ATOM     10  C   UNL     1      15.644  11.938  21.800  0.00  0.00    +0.012 C 
ATOM     11  C   UNL     1      17.309  12.031  19.921  0.00  0.00    +0.019 C 
ATOM     12  C   UNL     1      16.462  13.033  22.506  0.00  0.00    +0.085 C 
ATOM     14  C   UNL     1      18.064  13.115  20.690  0.00  0.00    +0.081 C 
ATOM     36  H   UNL     1      17.700  14.592  22.051  0.00  0.00    +0.122 HD
ENDROOT
BRANCH   9  13
ATOM     13  C   UNL     1      17.467  10.122  21.570  0.00  0.00    +0.100 C 
BRANCH  13  16
ATOM      2  O   UNL     1      16.393   8.479  20.236  0.00  0.00    -0.276 OA
ATOM      5  N   UNL     1      18.335   7.825  21.332  0.00  0.00    -0.298 N 
ATOM      6  N   UNL     1      20.454   5.915  21.820  0.00  0.00    -0.312 N 
ATOM      8  N   UNL     1      21.781   4.635  23.296  0.00  0.00    -0.240 NA
ATOM     16  C   UNL     1      17.341   8.739  20.980  0.00  0.00    +0.216 C 
ATOM     18  C   UNL     1      18.280   6.465  20.804  0.00  0.00    +0.126 C 
ATOM     19  C   UNL     1      19.466   8.140  22.206  0.00  0.00    +0.126 C 
ATOM     20  C   UNL     1      19.674   5.882  20.580  0.00  0.00    +0.125 C 
ATOM     21  C   UNL     1      20.084   6.896  22.845  0.00  0.00    +0.125 C 
ATOM     23  C   UNL     1      21.495   5.014  22.030  0.00  0.00    +0.121 A 
ATOM     26  C   UNL     1      22.175   4.561  20.912  0.00  0.00    +0.043 A 
ATOM     27  C   UNL     1      23.218   3.660  21.105  0.00  0.00    +0.005 A 
ATOM     28  C   UNL     1      22.800   3.759  23.444  0.00  0.00    +0.113 A 
ATOM     29  C   UNL     1      23.542   3.246  22.392  0.00  0.00    +0.020 A 
ENDBRANCH  13  16
ENDBRANCH   9  13
BRANCH  10  15
ATOM     15  C   UNL     1      14.880  11.095  22.821  0.00  0.00    +0.064 C 
BRANCH  15  17
ATOM      3  O   UNL     1      11.625  10.339  21.482  0.00  0.00    -0.359 OA
ATOM      7  N   UNL     1      12.544  11.201  22.068  0.00  0.00    -0.083 NA
ATOM     17  C   UNL     1      13.655  10.475  22.212  0.00  0.00    +0.084 A 
ATOM     22  C   UNL     1      13.499   9.160  21.740  0.00  0.00    +0.071 A 
ATOM     24  C   UNL     1      12.205   9.126  21.292  0.00  0.00    +0.148 A 
BRANCH  24  25
ATOM     25  C   UNL     1      11.369   8.088  20.678  0.00  0.00    +0.151 C 
BRANCH  25   1
ATOM      1  S   UNL     1      12.326   6.884  19.690  0.00  0.00    -0.117 S 
BRANCH   1  30
ATOM     30  C   UNL     1      12.597   7.813  18.188  0.00  0.00    +0.008 A 
ATOM     31  C   UNL     1      13.878   7.900  17.644  0.00  0.00    +0.015 A 
ATOM     32  C   UNL     1      11.527   8.450  17.560  0.00  0.00    +0.015 A 
ATOM     33  C   UNL     1      14.090   8.627  16.471  0.00  0.00    +0.001 A 
ATOM     34  C   UNL     1      11.739   9.177  16.388  0.00  0.00    +0.001 A 
ATOM     35  C   UNL     1      13.021   9.264  15.844  0.00  0.00    +0.000 A 
ENDBRANCH   1  30
ENDBRANCH  25   1
ENDBRANCH  24  25
ENDBRANCH  15  17
ENDBRANCH  10  15
TORSDOF 7
ENDMDL
MODEL 6
REMARK VINA RESULT:      -7.3      4.439      8.069
REMARK  Name = 26743124
REMARK  7 active torsions:
REMARK  status: ('A' for Active; 'I' for Inactive)
REMARK    1  A    between atoms: S_1  and  C_25
REMARK    2  A    between atoms: S_1  and  C_30
REMARK    3  A    between atoms: C_9  and  C_13
REMARK    4  A    between atoms: C_10  and  C_15
REMARK    5  A    between atoms: C_13  and  C_16
REMARK    6  A    between atoms: C_15  and  C_17
REMARK    7  A    between atoms: C_24  and  C_25
REMARK                            x       y       z     vdW  Elec       q    Type
REMARK                         _______ _______ _______ _____ _____    ______ ____
ROOT
ATOM      4  N   UNL     1      22.327   7.567  23.354  0.00  0.00    -0.316 NA
ATOM      9  C   UNL     1      20.174   6.142  21.926  0.00  0.00    +0.004 C 
ATOM     10  C   UNL     1      21.665   5.748  21.797  0.00  0.00    +0.012 C 
ATOM     11  C   UNL     1      19.960   6.867  23.264  0.00  0.00    +0.019 C 
ATOM     12  C   UNL     1      22.593   6.948  22.054  0.00  0.00    +0.085 C 
ATOM     14  C   UNL     1      20.942   8.020  23.467  0.00  0.00    +0.081 C 
ATOM     36  H   UNL     1      22.954   8.360  23.485  0.00  0.00    +0.122 HD
ENDROOT
BRANCH   9  13
ATOM     13  C   UNL     1      19.647   6.984  20.758  0.00  0.00    +0.100 C 
BRANCH  13  16
ATOM      2  O   UNL     1      18.587   5.278  19.493  0.00  0.00    -0.276 OA
ATOM      5  N   UNL     1      17.215   6.948  20.347  0.00  0.00    -0.298 N 
ATOM      6  N   UNL     1      14.594   8.048  20.893  0.00  0.00    -0.312 N 
ATOM      8  N   UNL     1      13.044   9.828  20.813  0.00  0.00    -0.240 NA
ATOM     16  C   UNL     1      18.443   6.318  20.140  0.00  0.00    +0.216 C 
ATOM     18  C   UNL     1      16.003   6.366  19.776  0.00  0.00    +0.126 C 
ATOM     19  C   UNL     1      17.045   8.177  21.124  0.00  0.00    +0.126 C 
ATOM     20  C   UNL     1      14.781   6.614  20.657  0.00  0.00    +0.125 C 
ATOM     21  C   UNL     1      15.761   8.928  20.770  0.00  0.00    +0.125 C 
ATOM     23  C   UNL     1      13.335   8.562  21.190  0.00  0.00    +0.121 A 
ATOM     26  C   UNL     1      12.453   7.731  21.860  0.00  0.00    +0.043 A 
ATOM     27  C   UNL     1      11.190   8.229  22.165  0.00  0.00    +0.005 A 
ATOM     28  C   UNL     1      11.807  10.278  21.125  0.00  0.00    +0.113 A 
ATOM     29  C   UNL     1      10.854   9.526  21.792  0.00  0.00    +0.020 A 
ENDBRANCH  13  16
ENDBRANCH   9  13
BRANCH  10  15
ATOM     15  C   UNL     1      21.997   5.090  20.458  0.00  0.00    +0.064 C 
BRANCH  15  17
ATOM      3  O   UNL     1      24.959   3.045  20.338  0.00  0.00    -0.359 OA
ATOM      7  N   UNL     1      24.224   4.168  19.978  0.00  0.00    -0.083 NA
ATOM     17  C   UNL     1      23.058   4.037  20.615  0.00  0.00    +0.084 A 
ATOM     22  C   UNL     1      22.998   2.862  21.384  0.00  0.00    +0.071 A 
ATOM     24  C   UNL     1      24.217   2.274  21.175  0.00  0.00    +0.148 A 
BRANCH  24  25
ATOM     25  C   UNL     1      24.846   1.038  21.657  0.00  0.00    +0.151 C 
BRANCH  25   1
ATOM      1  S   UNL     1      25.597   1.211  23.315  0.00  0.00    -0.117 S 
BRANCH   1  30
ATOM     30  C   UNL     1      24.307   0.529  24.348  0.00  0.00    +0.008 A 
ATOM     31  C   UNL     1      24.491  -0.706  24.968  0.00  0.00    +0.015 A 
ATOM     32  C   UNL     1      23.117   1.233  24.531  0.00  0.00    +0.015 A 
ATOM     33  C   UNL     1      23.483  -1.239  25.773  0.00  0.00    +0.001 A 
ATOM     34  C   UNL     1      22.109   0.700  25.336  0.00  0.00    +0.001 A 
ATOM     35  C   UNL     1      22.294  -0.536  25.957  0.00  0.00    +0.000 A 
ENDBRANCH   1  30
ENDBRANCH  25   1
ENDBRANCH  24  25
ENDBRANCH  15  17
ENDBRANCH  10  15
TORSDOF 7
ENDMDL
MODEL 7
REMARK VINA RESULT:      -7.2     16.437     20.047
REMARK  Name = 26743124
REMARK  7 active torsions:
REMARK  status: ('A' for Active; 'I' for Inactive)
REMARK    1  A    between atoms: S_1  and  C_25
REMARK    2  A    between atoms: S_1  and  C_30
REMARK    3  A    between atoms: C_9  and  C_13
REMARK    4  A    between atoms: C_10  and  C_15
REMARK    5  A    between atoms: C_13  and  C_16
REMARK    6  A    between atoms: C_15  and  C_17
REMARK    7  A    between atoms: C_24  and  C_25
REMARK                            x       y       z     vdW  Elec       q    Type
REMARK                         _______ _______ _______ _____ _____    ______ ____
ROOT
ATOM      4  N   UNL     1      16.127   3.774   1.013  0.00  0.00    -0.316 NA
ATOM      9  C   UNL     1      13.600   4.606  -0.264  0.00  0.00    +0.004 C 
ATOM     10  C   UNL     1      13.705   4.277   1.243  0.00  0.00    +0.012 C 
ATOM     11  C   UNL     1      14.984   5.026  -0.785  0.00  0.00    +0.019 C 
ATOM     12  C   UNL     1      14.847   3.287   1.530  0.00  0.00    +0.085 C 
ATOM     14  C   UNL     1      16.073   4.016  -0.428  0.00  0.00    +0.081 C 
ATOM     36  H   UNL     1      16.855   3.090   1.214  0.00  0.00    +0.122 HD
ENDROOT
BRANCH   9  13
ATOM     13  C   UNL     1      13.021   3.468  -1.113  0.00  0.00    +0.100 C 
BRANCH  13  16
ATOM      2  O   UNL     1      13.406   3.787  -3.434  0.00  0.00    -0.276 OA
ATOM      5  N   UNL     1      11.431   4.660  -2.575  0.00  0.00    -0.298 N 
ATOM      6  N   UNL     1       8.837   5.894  -2.927  0.00  0.00    -0.312 N 
ATOM      8  N   UNL     1       7.259   7.571  -2.403  0.00  0.00    -0.240 NA
ATOM     16  C   UNL     1      12.647   3.981  -2.482  0.00  0.00    +0.216 C 
ATOM     18  C   UNL     1      11.001   5.190  -3.867  0.00  0.00    +0.126 C 
ATOM     19  C   UNL     1      10.525   4.879  -1.446  0.00  0.00    +0.126 C 
ATOM     20  C   UNL     1       9.482   5.159  -4.019  0.00  0.00    +0.125 C 
ATOM     21  C   UNL     1       9.574   6.055  -1.671  0.00  0.00    +0.125 C 
ATOM     23  C   UNL     1       7.573   6.454  -3.096  0.00  0.00    +0.121 A 
ATOM     26  C   UNL     1       6.711   5.819  -3.975  0.00  0.00    +0.043 A 
ATOM     27  C   UNL     1       5.445   6.365  -4.155  0.00  0.00    +0.005 A 
ATOM     28  C   UNL     1       6.020   8.074  -2.604  0.00  0.00    +0.113 A 
ATOM     29  C   UNL     1       5.085   7.515  -3.460  0.00  0.00    +0.020 A 
ENDBRANCH  13  16
ENDBRANCH   9  13
BRANCH  10  15
ATOM     15  C   UNL     1      12.392   3.769   1.839  0.00  0.00    +0.064 C 
BRANCH  15  17
ATOM      3  O   UNL     1      11.392   6.757   3.583  0.00  0.00    -0.359 OA
ATOM      7  N   UNL     1      12.317   5.993   2.881  0.00  0.00    -0.083 NA
ATOM     17  C   UNL     1      11.684   4.850   2.605  0.00  0.00    +0.084 A 
ATOM     22  C   UNL     1      10.370   4.834   3.103  0.00  0.00    +0.071 A 
ATOM     24  C   UNL     1      10.236   6.055   3.709  0.00  0.00    +0.148 A 
BRANCH  24  25
ATOM     25  C   UNL     1       9.142   6.718   4.429  0.00  0.00    +0.151 C 
BRANCH  25   1
ATOM      1  S   UNL     1       9.702   7.612   5.922  0.00  0.00    -0.117 S 
BRANCH   1  30
ATOM     30  C   UNL     1       9.584   6.324   7.156  0.00  0.00    +0.008 A 
ATOM     31  C   UNL     1       9.132   6.627   8.440  0.00  0.00    +0.015 A 
ATOM     32  C   UNL     1       9.945   5.016   6.833  0.00  0.00    +0.015 A 
ATOM     33  C   UNL     1       9.042   5.622   9.403  0.00  0.00    +0.001 A 
ATOM     34  C   UNL     1       9.855   4.010   7.797  0.00  0.00    +0.001 A 
ATOM     35  C   UNL     1       9.403   4.314   9.081  0.00  0.00    +0.000 A 
ENDBRANCH   1  30
ENDBRANCH  25   1
ENDBRANCH  24  25
ENDBRANCH  15  17
ENDBRANCH  10  15
TORSDOF 7
ENDMDL
MODEL 8
REMARK VINA RESULT:      -7.2     28.456     31.106
REMARK  Name = 26743124
REMARK  7 active torsions:
REMARK  status: ('A' for Active; 'I' for Inactive)
REMARK    1  A    between atoms: S_1  and  C_25
REMARK    2  A    between atoms: S_1  and  C_30
REMARK    3  A    between atoms: C_9  and  C_13
REMARK    4  A    between atoms: C_10  and  C_15
REMARK    5  A    between atoms: C_13  and  C_16
REMARK    6  A    between atoms: C_15  and  C_17
REMARK    7  A    between atoms: C_24  and  C_25
REMARK                            x       y       z     vdW  Elec       q    Type
REMARK                         _______ _______ _______ _____ _____    ______ ____
ROOT
ATOM      4  N   UNL     1     -10.831 -11.746  18.670  0.00  0.00    -0.316 NA
ATOM      9  C   UNL     1      -7.907 -11.356  18.614  0.00  0.00    +0.004 C 
ATOM     10  C   UNL     1      -8.904 -10.264  18.160  0.00  0.00    +0.012 C 
ATOM     11  C   UNL     1      -8.611 -12.301  19.601  0.00  0.00    +0.019 C 
ATOM     12  C   UNL     1     -10.226 -10.874  17.663  0.00  0.00    +0.085 C 
ATOM     14  C   UNL     1      -9.934 -12.835  19.055  0.00  0.00    +0.081 C 
ATOM     36  H   UNL     1     -11.698 -12.136  18.303  0.00  0.00    +0.122 HD
ENDROOT
BRANCH   9  13
ATOM     13  C   UNL     1      -7.277 -12.145  17.460  0.00  0.00    +0.100 C 
BRANCH  13  16
ATOM      2  O   UNL     1      -5.025 -11.701  18.063  0.00  0.00    -0.276 OA
ATOM      5  N   UNL     1      -5.662 -11.107  15.909  0.00  0.00    -0.298 N 
ATOM      6  N   UNL     1      -5.033 -10.190  13.237  0.00  0.00    -0.312 N 
ATOM      8  N   UNL     1      -5.402  -8.738  11.412  0.00  0.00    -0.240 NA
ATOM     16  C   UNL     1      -5.884 -11.635  17.182  0.00  0.00    +0.216 C 
ATOM     18  C   UNL     1      -4.340 -10.590  15.566  0.00  0.00    +0.126 C 
ATOM     19  C   UNL     1      -6.681 -11.041  14.861  0.00  0.00    +0.126 C 
ATOM     20  C   UNL     1      -4.010 -10.802  14.090  0.00  0.00    +0.125 C 
ATOM     21  C   UNL     1      -6.371  -9.984  13.800  0.00  0.00    +0.125 C 
ATOM     23  C   UNL     1      -4.728  -9.784  11.941  0.00  0.00    +0.121 A 
ATOM     26  C   UNL     1      -3.742 -10.489  11.272  0.00  0.00    +0.043 A 
ATOM     27  C   UNL     1      -3.425 -10.097   9.975  0.00  0.00    +0.005 A 
ATOM     28  C   UNL     1      -5.068  -8.385  10.150  0.00  0.00    +0.113 A 
ATOM     29  C   UNL     1      -4.096  -9.025   9.397  0.00  0.00    +0.020 A 
ENDBRANCH  13  16
ENDBRANCH   9  13
BRANCH  10  15
ATOM     15  C   UNL     1      -8.321  -9.318  17.110  0.00  0.00    +0.064 C 
BRANCH  15  17
ATOM      3  O   UNL     1     -10.722  -7.885  14.841  0.00  0.00    -0.359 OA
ATOM      7  N   UNL     1      -9.700  -8.776  15.150  0.00  0.00    -0.083 NA
ATOM     17  C   UNL     1      -9.399  -8.527  16.427  0.00  0.00    +0.084 A 
ATOM     22  C   UNL     1     -10.190  -7.500  16.972  0.00  0.00    +0.071 A 
ATOM     24  C   UNL     1     -11.004  -7.130  15.934  0.00  0.00    +0.148 A 
BRANCH  24  25
ATOM     25  C   UNL     1     -12.067  -6.130  15.783  0.00  0.00    +0.151 C 
BRANCH  25   1
ATOM      1  S   UNL     1     -13.334  -6.606  14.553  0.00  0.00    -0.117 S 
BRANCH   1  30
ATOM     30  C   UNL     1     -12.828  -5.626  13.146  0.00  0.00    +0.008 A 
ATOM     31  C   UNL     1     -12.578  -6.243  11.921  0.00  0.00    +0.015 A 
ATOM     32  C   UNL     1     -12.684  -4.245  13.274  0.00  0.00    +0.015 A 
ATOM     33  C   UNL     1     -12.182  -5.479  10.823  0.00  0.00    +0.001 A 
ATOM     34  C   UNL     1     -12.289  -3.480  12.176  0.00  0.00    +0.001 A 
ATOM     35  C   UNL     1     -12.038  -4.098  10.951  0.00  0.00    +0.000 A 
ENDBRANCH   1  30
ENDBRANCH  25   1
ENDBRANCH  24  25
ENDBRANCH  15  17
ENDBRANCH  10  15
TORSDOF 7
ENDMDL
MODEL 9
REMARK VINA RESULT:      -7.0     28.261     31.644
REMARK  Name = 26743124
REMARK  7 active torsions:
REMARK  status: ('A' for Active; 'I' for Inactive)
REMARK    1  A    between atoms: S_1  and  C_25
REMARK    2  A    between atoms: S_1  and  C_30
REMARK    3  A    between atoms: C_9  and  C_13
REMARK    4  A    between atoms: C_10  and  C_15
REMARK    5  A    between atoms: C_13  and  C_16
REMARK    6  A    between atoms: C_15  and  C_17
REMARK    7  A    between atoms: C_24  and  C_25
REMARK                            x       y       z     vdW  Elec       q    Type
REMARK                         _______ _______ _______ _____ _____    ______ ____
ROOT
ATOM      4  N   UNL     1     -12.535 -11.269  19.016  0.00  0.00    -0.316 NA
ATOM      9  C   UNL     1      -9.764 -10.258  18.958  0.00  0.00    +0.004 C 
ATOM     10  C   UNL     1     -10.840  -9.804  17.944  0.00  0.00    +0.012 C 
ATOM     11  C   UNL     1     -10.456 -10.743  20.242  0.00  0.00    +0.019 C 
ATOM     12  C   UNL     1     -11.923 -10.878  17.745  0.00  0.00    +0.085 C 
ATOM     14  C   UNL     1     -11.545 -11.778  19.963  0.00  0.00    +0.081 C 
ATOM     36  H   UNL     1     -13.240 -11.986  18.845  0.00  0.00    +0.122 HD
ENDROOT
BRANCH   9  13
ATOM     13  C   UNL     1      -8.808 -11.327  18.417  0.00  0.00    +0.100 C 
BRANCH  13  16
ATOM      2  O   UNL     1      -7.020 -10.629  19.814  0.00  0.00    -0.276 OA
ATOM      5  N   UNL     1      -6.535 -10.900  17.557  0.00  0.00    -0.298 N 
ATOM      6  N   UNL     1      -4.652 -11.029  15.363  0.00  0.00    -0.312 N 
ATOM      8  N   UNL     1      -3.945 -10.374  13.207  0.00  0.00    -0.240 NA
ATOM     16  C   UNL     1      -7.377 -10.920  18.670  0.00  0.00    +0.216 C 
ATOM     18  C   UNL     1      -5.137 -10.512  17.721  0.00  0.00    +0.126 C 
ATOM     19  C   UNL     1      -6.959 -11.257  16.202  0.00  0.00    +0.126 C 
ATOM     20  C   UNL     1      -4.222 -11.250  16.746  0.00  0.00    +0.125 C 
ATOM     21  C   UNL     1      -6.052 -10.664  15.124  0.00  0.00    +0.125 C 
ATOM     23  C   UNL     1      -3.745 -11.128  14.311  0.00  0.00    +0.121 A 
ATOM     26  C   UNL     1      -2.685 -12.005  14.470  0.00  0.00    +0.043 A 
ATOM     27  C   UNL     1      -1.769 -12.116  13.428  0.00  0.00    +0.005 A 
ATOM     28  C   UNL     1      -3.035 -10.508  12.216  0.00  0.00    +0.113 A 
ATOM     29  C   UNL     1      -1.941 -11.356  12.276  0.00  0.00    +0.020 A 
ENDBRANCH  13  16
ENDBRANCH   9  13
BRANCH  10  15
ATOM     15  C   UNL     1     -10.253  -9.377  16.598  0.00  0.00    +0.064 C 
BRANCH  15  17
ATOM      3  O   UNL     1     -11.261  -5.935  16.281  0.00  0.00    -0.359 OA
ATOM      7  N   UNL     1     -10.677  -6.987  16.977  0.00  0.00    -0.083 NA
ATOM     17  C   UNL     1     -10.789  -8.042  16.166  0.00  0.00    +0.084 A 
ATOM     22  C   UNL     1     -11.429  -7.721  14.957  0.00  0.00    +0.071 A 
ATOM     24  C   UNL     1     -11.706  -6.385  15.080  0.00  0.00    +0.148 A 
BRANCH  24  25
ATOM     25  C   UNL     1     -12.354  -5.397  14.209  0.00  0.00    +0.151 C 
BRANCH  25   1
ATOM      1  S   UNL     1     -13.456  -6.150  12.961  0.00  0.00    -0.117 S 
BRANCH   1  30
ATOM     30  C   UNL     1     -13.165  -5.081  11.558  0.00  0.00    +0.008 A 
ATOM     31  C   UNL     1     -14.170  -4.224  11.114  0.00  0.00    +0.015 A 
ATOM     32  C   UNL     1     -11.931  -5.106  10.909  0.00  0.00    +0.015 A 
ATOM     33  C   UNL     1     -13.942  -3.390  10.018  0.00  0.00    +0.001 A 
ATOM     34  C   UNL     1     -11.703  -4.273   9.813  0.00  0.00    +0.001 A 
ATOM     35  C   UNL     1     -12.709  -3.415   9.368  0.00  0.00    +0.000 A 
ENDBRANCH   1  30
ENDBRANCH  25   1
ENDBRANCH  24  25
ENDBRANCH  15  17
ENDBRANCH  10  15
TORSDOF 7
ENDMDL
MODEL 10
REMARK VINA RESULT:      -6.9      4.799     12.109
REMARK  Name = 26743124
REMARK  7 active torsions:
REMARK  status: ('A' for Active; 'I' for Inactive)
REMARK    1  A    between atoms: S_1  and  C_25
REMARK    2  A    between atoms: S_1  and  C_30
REMARK    3  A    between atoms: C_9  and  C_13
REMARK    4  A    between atoms: C_10  and  C_15
REMARK    5  A    between atoms: C_13  and  C_16
REMARK    6  A    between atoms: C_15  and  C_17
REMARK    7  A    between atoms: C_24  and  C_25
REMARK                            x       y       z     vdW  Elec       q    Type
REMARK                         _______ _______ _______ _____ _____    ______ ____
ROOT
ATOM      4  N   UNL     1      21.413  10.019  21.743  0.00  0.00    -0.316 NA
ATOM      9  C   UNL     1      21.505   7.274  20.663  0.00  0.00    +0.004 C 
ATOM     10  C   UNL     1      20.213   7.905  21.232  0.00  0.00    +0.012 C 
ATOM     11  C   UNL     1      22.447   8.395  20.194  0.00  0.00    +0.019 C 
ATOM     12  C   UNL     1      20.523   8.988  22.280  0.00  0.00    +0.085 C 
ATOM     14  C   UNL     1      22.677   9.453  21.272  0.00  0.00    +0.081 C 
ATOM     36  H   UNL     1      21.602  10.712  22.466  0.00  0.00    +0.122 HD
ENDROOT
BRANCH   9  13
ATOM     13  C   UNL     1      22.222   6.332  21.637  0.00  0.00    +0.100 C 
BRANCH  13  16
ATOM      2  O   UNL     1      22.587   4.987  19.715  0.00  0.00    -0.276 OA
ATOM      5  N   UNL     1      22.833   3.946  21.778  0.00  0.00    -0.298 N 
ATOM      6  N   UNL     1      23.620   1.683  23.402  0.00  0.00    -0.312 N 
ATOM      8  N   UNL     1      23.169   0.100  25.096  0.00  0.00    -0.240 NA
ATOM     16  C   UNL     1      22.563   5.034  20.947  0.00  0.00    +0.216 C 
ATOM     18  C   UNL     1      23.168   2.654  21.185  0.00  0.00    +0.126 C 
ATOM     19  C   UNL     1      22.816   4.007  23.241  0.00  0.00    +0.126 C 
ATOM     20  C   UNL     1      24.151   1.867  22.049  0.00  0.00    +0.125 C 
ATOM     21  C   UNL     1      22.618   2.636  23.888  0.00  0.00    +0.125 C 
ATOM     23  C   UNL     1      24.032   0.610  24.188  0.00  0.00    +0.121 A 
ATOM     26  C   UNL     1      25.315   0.131  23.984  0.00  0.00    +0.043 A 
ATOM     27  C   UNL     1      25.743  -0.941  24.761  0.00  0.00    +0.005 A 
ATOM     28  C   UNL     1      23.619  -0.941  25.833  0.00  0.00    +0.113 A 
ATOM     29  C   UNL     1      24.883  -1.493  25.705  0.00  0.00    +0.020 A 
ENDBRANCH  13  16
ENDBRANCH   9  13
BRANCH  10  15
ATOM     15  C   UNL     1      19.241   6.870  21.802  0.00  0.00    +0.064 C 
BRANCH  15  17
ATOM      3  O   UNL     1      16.946   6.048  19.152  0.00  0.00    -0.359 OA
ATOM      7  N   UNL     1      18.214   6.063  19.721  0.00  0.00    -0.083 NA
ATOM     17  C   UNL     1      18.058   6.675  20.897  0.00  0.00    +0.084 A 
ATOM     22  C   UNL     1      16.727   7.066  21.123  0.00  0.00    +0.071 A 
ATOM     24  C   UNL     1      16.069   6.649  19.997  0.00  0.00    +0.148 A 
BRANCH  24  25
ATOM     25  C   UNL     1      14.673   6.721  19.550  0.00  0.00    +0.151 C 
BRANCH  25   1
ATOM      1  S   UNL     1      14.014   8.426  19.518  0.00  0.00    -0.117 S 
BRANCH   1  30
ATOM     30  C   UNL     1      12.642   8.283  20.656  0.00  0.00    +0.008 A 
ATOM     31  C   UNL     1      11.979   7.065  20.799  0.00  0.00    +0.015 A 
ATOM     32  C   UNL     1      12.236   9.391  21.399  0.00  0.00    +0.015 A 
ATOM     33  C   UNL     1      10.908   6.954  21.686  0.00  0.00    +0.001 A 
ATOM     34  C   UNL     1      11.165   9.280  22.286  0.00  0.00    +0.001 A 
ATOM     35  C   UNL     1      10.501   8.061  22.429  0.00  0.00    +0.000 A 
ENDBRANCH   1  30
ENDBRANCH  25   1
ENDBRANCH  24  25
ENDBRANCH  15  17
ENDBRANCH  10  15
TORSDOF 7
ENDMDL
