MODEL 1
REMARK VINA RESULT:      -7.2      0.000      0.000
REMARK  Name = 45361027
REMARK  9 active torsions:
REMARK  status: ('A' for Active; 'I' for Inactive)
REMARK    1  A    between atoms: N_4  and  C_17
REMARK    2  A    between atoms: N_5  and  C_19
REMARK    3  A    between atoms: N_7  and  C_25
REMARK    4  A    between atoms: N_9  and  C_28
REMARK    5  A    between atoms: C_14  and  C_18
REMARK    6  A    between atoms: C_17  and  C_20
REMARK    7  A    between atoms: C_18  and  C_21
REMARK    8  A    between atoms: C_21  and  C_22
REMARK    9  A    between atoms: C_28  and  C_31
REMARK                            x       y       z     vdW  Elec       q    Type
REMARK                         _______ _______ _______ _____ _____    ______ ____
ROOT
ATOM      2  O   UNL     1      20.217   6.348  23.984  0.00  0.00    -0.274 OA
ATOM      4  N   UNL     1      21.282   5.357  21.709  0.00  0.00    -0.283 NA
ATOM      5  N   UNL     1      18.147   6.998  20.777  0.00  0.00    -0.296 NA
ATOM      6  N   UNL     1      19.439   8.272  23.020  0.00  0.00    -0.312 N 
ATOM     10  C   UNL     1      19.511   6.493  20.500  0.00  0.00    +0.084 C 
ATOM     11  C   UNL     1      20.600   6.659  21.600  0.00  0.00    +0.161 C 
ATOM     12  C   UNL     1      19.571   4.981  20.215  0.00  0.00    +0.036 C 
ATOM     13  C   UNL     1      21.023   4.633  20.469  0.00  0.00    +0.087 C 
ATOM     14  C   UNL     1      18.063   8.473  20.969  0.00  0.00    +0.074 C 
ATOM     15  C   UNL     1      20.071   7.044  22.980  0.00  0.00    +0.232 C 
ATOM     16  C   UNL     1      19.180   9.077  21.843  0.00  0.00    +0.123 C 
ATOM     19  C   UNL     1      17.206   6.566  19.729  0.00  0.00    +0.105 C 
ATOM     35  H   UNL     1      19.084   8.598  23.914  0.00  0.00    +0.149 HD
ENDROOT
BRANCH   4  17
ATOM     17  C   UNL     1      22.708   5.473  21.987  0.00  0.00    +0.159 C 
BRANCH  17  20
ATOM      7  N   UNL     1      24.228   3.540  21.478  0.00  0.00    -0.330 N 
ATOM      8  N   UNL     1      23.093   3.427  23.386  0.00  0.00    -0.231 NA
ATOM     20  C   UNL     1      23.328   4.144  22.311  0.00  0.00    +0.125 A 
ATOM     23  C   UNL     1      24.600   2.353  22.056  0.00  0.00    +0.069 A 
ATOM     24  C   UNL     1      23.877   2.305  23.245  0.00  0.00    +0.089 A 
ATOM     25  C   UNL     1      24.706   4.056  20.216  0.00  0.00    +0.150 C 
ATOM     26  C   UNL     1      25.479   1.347  21.653  0.00  0.00    +0.028 A 
ATOM     27  C   UNL     1      24.030   1.196  24.095  0.00  0.00    +0.030 A 
ATOM     29  C   UNL     1      25.617   0.250  22.510  0.00  0.00    +0.002 A 
ATOM     30  C   UNL     1      24.906   0.175  23.710  0.00  0.00    +0.002 A 
ENDBRANCH  17  20
ENDBRANCH   4  17
BRANCH  14  18
ATOM     18  C   UNL     1      16.713   8.857  21.611  0.00  0.00    +0.029 C 
BRANCH  18  21
ATOM     21  C   UNL     1      16.115  10.068  20.920  0.00  0.00    +0.097 C 
BRANCH  21  22
ATOM      3  O   UNL     1      14.891   9.128  19.055  0.00  0.00    -0.276 OA
ATOM      9  N   UNL     1      13.715  10.113  20.796  0.00  0.00    -0.311 N 
ATOM     22  C   UNL     1      14.866   9.708  20.137  0.00  0.00    +0.213 C 
ATOM     36  H   UNL     1      13.800  10.582  21.694  0.00  0.00    +0.149 HD
BRANCH   9  28
ATOM     28  C   UNL     1      12.396   9.887  20.254  0.00  0.00    +0.146 C 
BRANCH  28  31
ATOM      1  S   UNL     1      12.215   7.122  20.448  0.00  0.00    -0.100 S 
ATOM     31  C   UNL     1      11.724   8.703  20.887  0.00  0.00    +0.007 A 
ATOM     32  C   UNL     1      10.713   8.689  21.822  0.00  0.00    +0.013 A 
ATOM     33  C   UNL     1      10.335   7.363  22.182  0.00  0.00    +0.008 A 
ATOM     34  C   UNL     1      11.072   6.414  21.510  0.00  0.00    +0.045 A 
ENDBRANCH  28  31
ENDBRANCH   9  28
ENDBRANCH  21  22
ENDBRANCH  18  21
ENDBRANCH  14  18
TORSDOF 7
ENDMDL
MODEL 2
REMARK VINA RESULT:      -7.2     28.171     31.068
REMARK  Name = 45361027
REMARK  9 active torsions:
REMARK  status: ('A' for Active; 'I' for Inactive)
REMARK    1  A    between atoms: N_4  and  C_17
REMARK    2  A    between atoms: N_5  and  C_19
REMARK    3  A    between atoms: N_7  and  C_25
REMARK    4  A    between atoms: N_9  and  C_28
REMARK    5  A    between atoms: C_14  and  C_18
REMARK    6  A    between atoms: C_17  and  C_20
REMARK    7  A    between atoms: C_18  and  C_21
REMARK    8  A    between atoms: C_21  and  C_22
REMARK    9  A    between atoms: C_28  and  C_31
REMARK                            x       y       z     vdW  Elec       q    Type
REMARK                         _______ _______ _______ _____ _____    ______ ____
ROOT
ATOM      2  O   UNL     1      -1.955 -11.058  16.437  0.00  0.00    -0.274 OA
ATOM      4  N   UNL     1      -2.461 -12.993  14.622  0.00  0.00    -0.283 NA
ATOM      5  N   UNL     1      -5.592 -12.386  16.416  0.00  0.00    -0.296 NA
ATOM      6  N   UNL     1      -3.973 -10.010  16.181  0.00  0.00    -0.312 N 
ATOM     10  C   UNL     1      -4.800 -12.831  15.247  0.00  0.00    +0.084 C 
ATOM     11  C   UNL     1      -3.537 -12.012  14.852  0.00  0.00    +0.161 C 
ATOM     12  C   UNL     1      -4.228 -14.255  15.386  0.00  0.00    +0.036 C 
ATOM     13  C   UNL     1      -3.100 -14.281  14.376  0.00  0.00    +0.087 C 
ATOM     14  C   UNL     1      -6.222 -11.046  16.259  0.00  0.00    +0.074 C 
ATOM     15  C   UNL     1      -3.062 -11.011  15.902  0.00  0.00    +0.232 C 
ATOM     16  C   UNL     1      -5.313  -9.971  15.630  0.00  0.00    +0.123 C 
ATOM     19  C   UNL     1      -6.610 -13.389  16.772  0.00  0.00    +0.105 C 
ATOM     35  H   UNL     1      -3.709  -9.298  16.855  0.00  0.00    +0.149 HD
ENDROOT
BRANCH   4  17
ATOM     17  C   UNL     1      -1.556 -12.615  13.543  0.00  0.00    +0.159 C 
BRANCH  17  20
ATOM      7  N   UNL     1      -2.214 -10.667  12.101  0.00  0.00    -0.330 N 
ATOM      8  N   UNL     1      -3.060 -12.643  11.535  0.00  0.00    -0.231 NA
ATOM     20  C   UNL     1      -2.289 -12.002  12.384  0.00  0.00    +0.125 A 
ATOM     23  C   UNL     1      -2.988 -10.430  10.994  0.00  0.00    +0.069 A 
ATOM     24  C   UNL     1      -3.507 -11.678  10.660  0.00  0.00    +0.089 A 
ATOM     25  C   UNL     1      -1.455  -9.678  12.834  0.00  0.00    +0.150 C 
ATOM     26  C   UNL     1      -3.272  -9.267  10.279  0.00  0.00    +0.028 A 
ATOM     27  C   UNL     1      -4.359 -11.791   9.549  0.00  0.00    +0.030 A 
ATOM     29  C   UNL     1      -4.123  -9.397   9.176  0.00  0.00    +0.002 A 
ATOM     30  C   UNL     1      -4.657 -10.637   8.816  0.00  0.00    +0.002 A 
ENDBRANCH  17  20
ENDBRANCH   4  17
BRANCH  14  18
ATOM     18  C   UNL     1      -6.697 -10.510  17.625  0.00  0.00    +0.029 C 
BRANCH  18  21
ATOM     21  C   UNL     1      -7.526  -9.251  17.450  0.00  0.00    +0.097 C 
BRANCH  21  22
ATOM      3  O   UNL     1      -9.465 -10.698  17.372  0.00  0.00    -0.276 OA
ATOM      9  N   UNL     1      -9.774  -8.399  17.453  0.00  0.00    -0.311 N 
ATOM     22  C   UNL     1      -9.012  -9.557  17.420  0.00  0.00    +0.213 C 
ATOM     36  H   UNL     1      -9.303  -7.500  17.498  0.00  0.00    +0.149 HD
BRANCH   9  28
ATOM     28  C   UNL     1     -11.217  -8.425  17.432  0.00  0.00    +0.146 C 
BRANCH  28  31
ATOM      1  S   UNL     1     -10.738  -6.355  15.644  0.00  0.00    -0.100 S 
ATOM     31  C   UNL     1     -11.783  -7.460  16.430  0.00  0.00    +0.007 A 
ATOM     32  C   UNL     1     -13.090  -7.316  16.021  0.00  0.00    +0.013 A 
ATOM     33  C   UNL     1     -13.236  -6.285  15.049  0.00  0.00    +0.008 A 
ATOM     34  C   UNL     1     -12.035  -5.680  14.752  0.00  0.00    +0.045 A 
ENDBRANCH  28  31
ENDBRANCH   9  28
ENDBRANCH  21  22
ENDBRANCH  18  21
ENDBRANCH  14  18
TORSDOF 7
ENDMDL
MODEL 3
REMARK VINA RESULT:      -7.1     28.359     32.653
REMARK  Name = 45361027
REMARK  9 active torsions:
REMARK  status: ('A' for Active; 'I' for Inactive)
REMARK    1  A    between atoms: N_4  and  C_17
REMARK    2  A    between atoms: N_5  and  C_19
REMARK    3  A    between atoms: N_7  and  C_25
REMARK    4  A    between atoms: N_9  and  C_28
REMARK    5  A    between atoms: C_14  and  C_18
REMARK    6  A    between atoms: C_17  and  C_20
REMARK    7  A    between atoms: C_18  and  C_21
REMARK    8  A    between atoms: C_21  and  C_22
REMARK    9  A    between atoms: C_28  and  C_31
REMARK                            x       y       z     vdW  Elec       q    Type
REMARK                         _______ _______ _______ _____ _____    ______ ____
ROOT
ATOM      2  O   UNL     1      -7.992  -9.547  15.746  0.00  0.00    -0.274 OA
ATOM      4  N   UNL     1      -8.828 -11.004  17.860  0.00  0.00    -0.283 NA
ATOM      5  N   UNL     1      -5.709 -12.525  16.699  0.00  0.00    -0.296 NA
ATOM      6  N   UNL     1      -5.771  -9.670  16.281  0.00  0.00    -0.312 N 
ATOM     10  C   UNL     1      -6.734 -12.223  17.723  0.00  0.00    +0.084 C 
ATOM     11  C   UNL     1      -7.373 -10.803  17.736  0.00  0.00    +0.161 C 
ATOM     12  C   UNL     1      -7.975 -13.132  17.652  0.00  0.00    +0.036 C 
ATOM     13  C   UNL     1      -9.031 -12.345  18.398  0.00  0.00    +0.087 C 
ATOM     14  C   UNL     1      -4.467 -11.709  16.811  0.00  0.00    +0.074 C 
ATOM     15  C   UNL     1      -7.106  -9.963  16.490  0.00  0.00    +0.232 C 
ATOM     16  C   UNL     1      -4.698 -10.211  17.092  0.00  0.00    +0.123 C 
ATOM     19  C   UNL     1      -5.378 -13.960  16.696  0.00  0.00    +0.105 C 
ATOM     35  H   UNL     1      -5.527  -9.095  15.481  0.00  0.00    +0.149 HD
ENDROOT
BRANCH   4  17
ATOM     17  C   UNL     1      -9.485  -9.985  18.668  0.00  0.00    +0.159 C 
BRANCH  17  20
ATOM      7  N   UNL     1     -11.577  -9.375  17.417  0.00  0.00    -0.330 N 
ATOM      8  N   UNL     1      -9.946  -7.864  17.410  0.00  0.00    -0.231 NA
ATOM     20  C   UNL     1     -10.314  -9.053  17.831  0.00  0.00    +0.125 A 
ATOM     23  C   UNL     1     -12.056  -8.322  16.680  0.00  0.00    +0.069 A 
ATOM     24  C   UNL     1     -11.020  -7.392  16.689  0.00  0.00    +0.089 A 
ATOM     25  C   UNL     1     -12.283 -10.603  17.703  0.00  0.00    +0.150 C 
ATOM     26  C   UNL     1     -13.270  -8.111  16.025  0.00  0.00    +0.028 A 
ATOM     27  C   UNL     1     -11.189  -6.173  16.012  0.00  0.00    +0.030 A 
ATOM     29  C   UNL     1     -13.420  -6.893  15.355  0.00  0.00    +0.002 A 
ATOM     30  C   UNL     1     -12.399  -5.939  15.348  0.00  0.00    +0.002 A 
ENDBRANCH  17  20
ENDBRANCH   4  17
BRANCH  14  18
ATOM     18  C   UNL     1      -3.634 -11.816  15.516  0.00  0.00    +0.029 C 
BRANCH  18  21
ATOM     21  C   UNL     1      -2.331 -11.049  15.652  0.00  0.00    +0.097 C 
BRANCH  21  22
ATOM      3  O   UNL     1      -1.083  -9.541  14.227  0.00  0.00    -0.276 OA
ATOM      9  N   UNL     1      -2.474 -11.124  13.253  0.00  0.00    -0.311 N 
ATOM     22  C   UNL     1      -1.879 -10.472  14.323  0.00  0.00    +0.213 C 
ATOM     36  H   UNL     1      -3.117 -11.889  13.438  0.00  0.00    +0.149 HD
BRANCH   9  28
ATOM     28  C   UNL     1      -2.207 -10.757  11.883  0.00  0.00    +0.146 C 
BRANCH  28  31
ATOM      1  S   UNL     1      -4.894 -10.062  11.998  0.00  0.00    -0.100 S 
ATOM     31  C   UNL     1      -3.343  -9.985  11.275  0.00  0.00    +0.007 A 
ATOM     32  C   UNL     1      -3.331  -9.176  10.161  0.00  0.00    +0.013 A 
ATOM     33  C   UNL     1      -4.612  -8.611   9.896  0.00  0.00    +0.008 A 
ATOM     34  C   UNL     1      -5.554  -9.011  10.818  0.00  0.00    +0.045 A 
ENDBRANCH  28  31
ENDBRANCH   9  28
ENDBRANCH  21  22
ENDBRANCH  18  21
ENDBRANCH  14  18
TORSDOF 7
ENDMDL
MODEL 4
REMARK VINA RESULT:      -7.0     28.338     31.436
REMARK  Name = 45361027
REMARK  9 active torsions:
REMARK  status: ('A' for Active; 'I' for Inactive)
REMARK    1  A    between atoms: N_4  and  C_17
REMARK    2  A    between atoms: N_5  and  C_19
REMARK    3  A    between atoms: N_7  and  C_25
REMARK    4  A    between atoms: N_9  and  C_28
REMARK    5  A    between atoms: C_14  and  C_18
REMARK    6  A    between atoms: C_17  and  C_20
REMARK    7  A    between atoms: C_18  and  C_21
REMARK    8  A    between atoms: C_21  and  C_22
REMARK    9  A    between atoms: C_28  and  C_31
REMARK                            x       y       z     vdW  Elec       q    Type
REMARK                         _______ _______ _______ _____ _____    ______ ____
ROOT
ATOM      2  O   UNL     1      -2.088 -11.030  16.275  0.00  0.00    -0.274 OA
ATOM      4  N   UNL     1      -2.563 -13.059  14.558  0.00  0.00    -0.283 NA
ATOM      5  N   UNL     1      -5.720 -12.373  16.276  0.00  0.00    -0.296 NA
ATOM      6  N   UNL     1      -4.106 -10.005  15.938  0.00  0.00    -0.312 N 
ATOM     10  C   UNL     1      -4.911 -12.875  15.143  0.00  0.00    +0.084 C 
ATOM     11  C   UNL     1      -3.646 -12.072  14.722  0.00  0.00    +0.161 C 
ATOM     12  C   UNL     1      -4.336 -14.287  15.364  0.00  0.00    +0.036 C 
ATOM     13  C   UNL     1      -3.195 -14.361  14.372  0.00  0.00    +0.087 C 
ATOM     14  C   UNL     1      -6.353 -11.045  16.041  0.00  0.00    +0.074 C 
ATOM     15  C   UNL     1      -3.188 -11.016  15.724  0.00  0.00    +0.232 C 
ATOM     16  C   UNL     1      -5.439 -10.001  15.368  0.00  0.00    +0.123 C 
ATOM     19  C   UNL     1      -6.739 -13.360  16.671  0.00  0.00    +0.105 C 
ATOM     35  H   UNL     1      -3.854  -9.257  16.577  0.00  0.00    +0.149 HD
ENDROOT
BRANCH   4  17
ATOM     17  C   UNL     1      -1.646 -12.735  13.473  0.00  0.00    +0.159 C 
BRANCH  17  20
ATOM      7  N   UNL     1      -2.209 -10.733  12.065  0.00  0.00    -0.330 N 
ATOM      8  N   UNL     1      -3.146 -12.658  11.464  0.00  0.00    -0.231 NA
ATOM     20  C   UNL     1      -2.347 -12.068  12.325  0.00  0.00    +0.125 A 
ATOM     23  C   UNL     1      -2.970 -10.441  10.961  0.00  0.00    +0.069 A 
ATOM     24  C   UNL     1      -3.545 -11.658  10.606  0.00  0.00    +0.089 A 
ATOM     25  C   UNL     1      -1.406  -9.794  12.815  0.00  0.00    +0.150 C 
ATOM     26  C   UNL     1      -3.197  -9.254  10.266  0.00  0.00    +0.028 A 
ATOM     27  C   UNL     1      -4.400 -11.712   9.492  0.00  0.00    +0.030 A 
ATOM     29  C   UNL     1      -4.052  -9.325   9.161  0.00  0.00    +0.002 A 
ATOM     30  C   UNL     1      -4.643 -10.532   8.779  0.00  0.00    +0.002 A 
ENDBRANCH  17  20
ENDBRANCH   4  17
BRANCH  14  18
ATOM     18  C   UNL     1      -6.848 -10.440  17.371  0.00  0.00    +0.029 C 
BRANCH  18  21
ATOM     21  C   UNL     1      -7.905  -9.380  17.118  0.00  0.00    +0.097 C 
BRANCH  21  22
ATOM      3  O   UNL     1     -10.291  -9.292  17.513  0.00  0.00    -0.276 OA
ATOM      9  N   UNL     1      -8.936 -10.405  19.034  0.00  0.00    -0.311 N 
ATOM     22  C   UNL     1      -9.183  -9.670  17.883  0.00  0.00    +0.213 C 
ATOM     36  H   UNL     1      -7.980 -10.675  19.250  0.00  0.00    +0.149 HD
BRANCH   9  28
ATOM     28  C   UNL     1      -9.991 -10.805  19.933  0.00  0.00    +0.146 C 
BRANCH  28  31
ATOM      1  S   UNL     1     -11.372 -13.049  20.812  0.00  0.00    -0.100 S 
ATOM     31  C   UNL     1      -9.966 -12.282  20.207  0.00  0.00    +0.007 A 
ATOM     32  C   UNL     1      -8.925 -13.168  20.038  0.00  0.00    +0.013 A 
ATOM     33  C   UNL     1      -9.287 -14.495  20.411  0.00  0.00    +0.008 A 
ATOM     34  C   UNL     1     -10.589 -14.572  20.850  0.00  0.00    +0.045 A 
ENDBRANCH  28  31
ENDBRANCH   9  28
ENDBRANCH  21  22
ENDBRANCH  18  21
ENDBRANCH  14  18
TORSDOF 7
ENDMDL
MODEL 5
REMARK VINA RESULT:      -7.0      4.047      7.271
REMARK  Name = 45361027
REMARK  9 active torsions:
REMARK  status: ('A' for Active; 'I' for Inactive)
REMARK    1  A    between atoms: N_4  and  C_17
REMARK    2  A    between atoms: N_5  and  C_19
REMARK    3  A    between atoms: N_7  and  C_25
REMARK    4  A    between atoms: N_9  and  C_28
REMARK    5  A    between atoms: C_14  and  C_18
REMARK    6  A    between atoms: C_17  and  C_20
REMARK    7  A    between atoms: C_18  and  C_21
REMARK    8  A    between atoms: C_21  and  C_22
REMARK    9  A    between atoms: C_28  and  C_31
REMARK                            x       y       z     vdW  Elec       q    Type
REMARK                         _______ _______ _______ _____ _____    ______ ____
ROOT
ATOM      2  O   UNL     1      15.425   9.526  22.791  0.00  0.00    -0.274 OA
ATOM      4  N   UNL     1      14.818   7.812  20.795  0.00  0.00    -0.283 NA
ATOM      5  N   UNL     1      11.641   8.935  22.220  0.00  0.00    -0.296 NA
ATOM      6  N   UNL     1      13.693  10.958  22.360  0.00  0.00    -0.312 N 
ATOM     10  C   UNL     1      12.487   8.398  21.131  0.00  0.00    +0.084 C 
ATOM     11  C   UNL     1      13.923   8.972  20.957  0.00  0.00    +0.161 C 
ATOM     12  C   UNL     1      12.758   6.885  21.239  0.00  0.00    +0.036 C 
ATOM     13  C   UNL     1      13.988   6.686  20.379  0.00  0.00    +0.087 C 
ATOM     14  C   UNL     1      11.300  10.379  22.081  0.00  0.00    +0.074 C 
ATOM     15  C   UNL     1      14.430   9.812  22.126  0.00  0.00    +0.232 C 
ATOM     16  C   UNL     1      12.472  11.283  21.649  0.00  0.00    +0.123 C 
ATOM     19  C   UNL     1      10.414   8.135  22.374  0.00  0.00    +0.105 C 
ATOM     35  H   UNL     1      13.991  11.574  23.110  0.00  0.00    +0.149 HD
ENDROOT
BRANCH   4  17
ATOM     17  C   UNL     1      15.916   8.054  19.867  0.00  0.00    +0.159 C 
BRANCH  17  20
ATOM      7  N   UNL     1      17.753   6.347  19.716  0.00  0.00    -0.330 N 
ATOM      8  N   UNL     1      17.916   7.830  21.364  0.00  0.00    -0.231 NA
ATOM     20  C   UNL     1      17.198   7.431  20.339  0.00  0.00    +0.125 A 
ATOM     23  C   UNL     1      18.907   6.027  20.384  0.00  0.00    +0.069 A 
ATOM     24  C   UNL     1      18.986   6.966  21.409  0.00  0.00    +0.089 A 
ATOM     25  C   UNL     1      17.221   5.661  18.561  0.00  0.00    +0.150 C 
ATOM     26  C   UNL     1      19.858   5.026  20.186  0.00  0.00    +0.028 A 
ATOM     27  C   UNL     1      20.074   6.919  22.297  0.00  0.00    +0.030 A 
ATOM     29  C   UNL     1      20.933   4.993  21.081  0.00  0.00    +0.002 A 
ATOM     30  C   UNL     1      21.041   5.923  22.118  0.00  0.00    +0.002 A 
ENDBRANCH  17  20
ENDBRANCH   4  17
BRANCH  14  18
ATOM     18  C   UNL     1      10.752  10.935  23.412  0.00  0.00    +0.029 C 
BRANCH  18  21
ATOM     21  C   UNL     1      10.870  12.447  23.451  0.00  0.00    +0.097 C 
BRANCH  21  22
ATOM      3  O   UNL     1      10.260  12.946  25.740  0.00  0.00    -0.276 OA
ATOM      9  N   UNL     1      12.415  13.417  25.018  0.00  0.00    -0.311 N 
ATOM     22  C   UNL     1      11.117  12.954  24.861  0.00  0.00    +0.213 C 
ATOM     36  H   UNL     1      13.053  13.375  24.227  0.00  0.00    +0.149 HD
BRANCH   9  28
ATOM     28  C   UNL     1      12.896  13.953  26.269  0.00  0.00    +0.146 C 
BRANCH  28  31
ATOM      1  S   UNL     1      14.637  11.812  25.955  0.00  0.00    -0.100 S 
ATOM     31  C   UNL     1      13.968  13.093  26.874  0.00  0.00    +0.007 A 
ATOM     32  C   UNL     1      14.530  13.178  28.128  0.00  0.00    +0.013 A 
ATOM     33  C   UNL     1      15.523  12.179  28.339  0.00  0.00    +0.008 A 
ATOM     34  C   UNL     1      15.683  11.368  27.237  0.00  0.00    +0.045 A 
ENDBRANCH  28  31
ENDBRANCH   9  28
ENDBRANCH  21  22
ENDBRANCH  18  21
ENDBRANCH  14  18
TORSDOF 7
ENDMDL
MODEL 6
REMARK VINA RESULT:      -6.9      2.857      4.505
REMARK  Name = 45361027
REMARK  9 active torsions:
REMARK  status: ('A' for Active; 'I' for Inactive)
REMARK    1  A    between atoms: N_4  and  C_17
REMARK    2  A    between atoms: N_5  and  C_19
REMARK    3  A    between atoms: N_7  and  C_25
REMARK    4  A    between atoms: N_9  and  C_28
REMARK    5  A    between atoms: C_14  and  C_18
REMARK    6  A    between atoms: C_17  and  C_20
REMARK    7  A    between atoms: C_18  and  C_21
REMARK    8  A    between atoms: C_21  and  C_22
REMARK    9  A    between atoms: C_28  and  C_31
REMARK                            x       y       z     vdW  Elec       q    Type
REMARK                         _______ _______ _______ _____ _____    ______ ____
ROOT
ATOM      2  O   UNL     1      18.012   6.069  19.215  0.00  0.00    -0.274 OA
ATOM      4  N   UNL     1      18.763   7.577  21.325  0.00  0.00    -0.283 NA
ATOM      5  N   UNL     1      15.693   9.066  20.007  0.00  0.00    -0.296 NA
ATOM      6  N   UNL     1      15.772   6.203  19.659  0.00  0.00    -0.312 N 
ATOM     10  C   UNL     1      16.676   8.790  21.077  0.00  0.00    +0.084 C 
ATOM     11  C   UNL     1      17.314   7.372  21.149  0.00  0.00    +0.161 C 
ATOM     12  C   UNL     1      17.919   9.699  21.034  0.00  0.00    +0.036 C 
ATOM     13  C   UNL     1      18.945   8.930  21.840  0.00  0.00    +0.087 C 
ATOM     14  C   UNL     1      14.447   8.253  20.088  0.00  0.00    +0.074 C 
ATOM     15  C   UNL     1      17.097   6.502  19.914  0.00  0.00    +0.232 C 
ATOM     16  C   UNL     1      14.667   6.762  20.414  0.00  0.00    +0.123 C 
ATOM     19  C   UNL     1      15.361  10.501  19.956  0.00  0.00    +0.105 C 
ATOM     35  H   UNL     1      15.560   5.609  18.864  0.00  0.00    +0.149 HD
ENDROOT
BRANCH   4  17
ATOM     17  C   UNL     1      19.388   6.578  22.182  0.00  0.00    +0.159 C 
BRANCH  17  20
ATOM      7  N   UNL     1      21.313   5.387  21.092  0.00  0.00    -0.330 N 
ATOM      8  N   UNL     1      21.820   7.182  22.301  0.00  0.00    -0.231 NA
ATOM     20  C   UNL     1      20.849   6.407  21.875  0.00  0.00    +0.125 A 
ATOM     23  C   UNL     1      22.676   5.513  21.006  0.00  0.00    +0.069 A 
ATOM     24  C   UNL     1      22.968   6.640  21.770  0.00  0.00    +0.089 A 
ATOM     25  C   UNL     1      20.513   4.359  20.464  0.00  0.00    +0.150 C 
ATOM     26  C   UNL     1      23.648   4.760  20.347  0.00  0.00    +0.028 A 
ATOM     27  C   UNL     1      24.305   7.055  21.893  0.00  0.00    +0.030 A 
ATOM     29  C   UNL     1      24.973   5.187  20.482  0.00  0.00    +0.002 A 
ATOM     30  C   UNL     1      25.298   6.315  21.240  0.00  0.00    +0.002 A 
ENDBRANCH  17  20
ENDBRANCH   4  17
BRANCH  14  18
ATOM     18  C   UNL     1      13.666   8.327  18.760  0.00  0.00    +0.029 C 
BRANCH  18  21
ATOM     21  C   UNL     1      12.426   9.188  18.914  0.00  0.00    +0.097 C 
BRANCH  21  22
ATOM      3  O   UNL     1      11.055   7.714  20.259  0.00  0.00    -0.276 OA
ATOM      9  N   UNL     1      11.610   9.809  21.089  0.00  0.00    -0.311 N 
ATOM     22  C   UNL     1      11.621   8.798  20.140  0.00  0.00    +0.213 C 
ATOM     36  H   UNL     1      12.116  10.670  20.898  0.00  0.00    +0.149 HD
BRANCH   9  28
ATOM     28  C   UNL     1      10.910   9.680  22.345  0.00  0.00    +0.146 C 
BRANCH  28  31
ATOM      1  S   UNL     1      11.173  12.445  22.369  0.00  0.00    -0.100 S 
ATOM     31  C   UNL     1      10.983  10.939  23.161  0.00  0.00    +0.007 A 
ATOM     32  C   UNL     1      10.918  11.078  24.529  0.00  0.00    +0.013 A 
ATOM     33  C   UNL     1      11.025  12.441  24.934  0.00  0.00    +0.008 A 
ATOM     34  C   UNL     1      11.169  13.289  23.859  0.00  0.00    +0.045 A 
ENDBRANCH  28  31
ENDBRANCH   9  28
ENDBRANCH  21  22
ENDBRANCH  18  21
ENDBRANCH  14  18
TORSDOF 7
ENDMDL
MODEL 7
REMARK VINA RESULT:      -6.9      3.353     11.830
REMARK  Name = 45361027
REMARK  9 active torsions:
REMARK  status: ('A' for Active; 'I' for Inactive)
REMARK    1  A    between atoms: N_4  and  C_17
REMARK    2  A    between atoms: N_5  and  C_19
REMARK    3  A    between atoms: N_7  and  C_25
REMARK    4  A    between atoms: N_9  and  C_28
REMARK    5  A    between atoms: C_14  and  C_18
REMARK    6  A    between atoms: C_17  and  C_20
REMARK    7  A    between atoms: C_18  and  C_21
REMARK    8  A    between atoms: C_21  and  C_22
REMARK    9  A    between atoms: C_28  and  C_31
REMARK                            x       y       z     vdW  Elec       q    Type
REMARK                         _______ _______ _______ _____ _____    ______ ____
ROOT
ATOM      2  O   UNL     1      16.573  10.198  21.125  0.00  0.00    -0.274 OA
ATOM      4  N   UNL     1      14.324   8.779  20.656  0.00  0.00    -0.283 NA
ATOM      5  N   UNL     1      17.132   6.665  19.642  0.00  0.00    -0.296 NA
ATOM      6  N   UNL     1      17.796   8.403  21.847  0.00  0.00    -0.312 N 
ATOM     10  C   UNL     1      15.746   6.891  20.107  0.00  0.00    +0.084 C 
ATOM     11  C   UNL     1      15.487   8.019  21.148  0.00  0.00    +0.161 C 
ATOM     12  C   UNL     1      14.762   7.262  18.981  0.00  0.00    +0.036 C 
ATOM     13  C   UNL     1      13.613   7.916  19.719  0.00  0.00    +0.087 C 
ATOM     14  C   UNL     1      18.075   6.221  20.707  0.00  0.00    +0.074 C 
ATOM     15  C   UNL     1      16.648   8.990  21.349  0.00  0.00    +0.232 C 
ATOM     16  C   UNL     1      17.942   6.974  22.046  0.00  0.00    +0.123 C 
ATOM     19  C   UNL     1      17.160   5.720  18.512  0.00  0.00    +0.105 C 
ATOM     35  H   UNL     1      18.598   8.998  22.026  0.00  0.00    +0.149 HD
ENDROOT
BRANCH   4  17
ATOM     17  C   UNL     1      13.455   9.260  21.723  0.00  0.00    +0.159 C 
BRANCH  17  20
ATOM      7  N   UNL     1      11.815  11.125  22.101  0.00  0.00    -0.330 N 
ATOM      8  N   UNL     1      13.308  11.436  20.483  0.00  0.00    -0.231 NA
ATOM     20  C   UNL     1      12.880  10.612  21.413  0.00  0.00    +0.125 A 
ATOM     23  C   UNL     1      11.538  12.363  21.580  0.00  0.00    +0.069 A 
ATOM     24  C   UNL     1      12.482  12.534  20.571  0.00  0.00    +0.089 A 
ATOM     25  C   UNL     1      11.107  10.481  23.184  0.00  0.00    +0.150 C 
ATOM     26  C   UNL     1      10.571  13.318  21.895  0.00  0.00    +0.028 A 
ATOM     27  C   UNL     1      12.477  13.723  19.823  0.00  0.00    +0.030 A 
ATOM     29  C   UNL     1      10.580  14.495  21.139  0.00  0.00    +0.002 A 
ATOM     30  C   UNL     1      11.516  14.696  20.121  0.00  0.00    +0.002 A 
ENDBRANCH  17  20
ENDBRANCH   4  17
BRANCH  14  18
ATOM     18  C   UNL     1      19.535   6.373  20.233  0.00  0.00    +0.029 C 
BRANCH  18  21
ATOM     21  C   UNL     1      20.305   5.082  20.443  0.00  0.00    +0.097 C 
BRANCH  21  22
ATOM      3  O   UNL     1      22.313   6.433  20.429  0.00  0.00    -0.276 OA
ATOM      9  N   UNL     1      22.508   4.120  20.433  0.00  0.00    -0.311 N 
ATOM     22  C   UNL     1      21.804   5.315  20.434  0.00  0.00    +0.213 C 
ATOM     36  H   UNL     1      21.993   3.244  20.444  0.00  0.00    +0.149 HD
BRANCH   9  28
ATOM     28  C   UNL     1      23.951   4.075  20.423  0.00  0.00    +0.146 C 
BRANCH  28  31
ATOM      1  S   UNL     1      25.469   3.168  22.564  0.00  0.00    -0.100 S 
ATOM     31  C   UNL     1      24.483   2.899  21.190  0.00  0.00    +0.007 A 
ATOM     32  C   UNL     1      24.289   1.558  20.947  0.00  0.00    +0.013 A 
ATOM     33  C   UNL     1      24.960   0.739  21.901  0.00  0.00    +0.008 A 
ATOM     34  C   UNL     1      25.641   1.486  22.836  0.00  0.00    +0.045 A 
ENDBRANCH  28  31
ENDBRANCH   9  28
ENDBRANCH  21  22
ENDBRANCH  18  21
ENDBRANCH  14  18
TORSDOF 7
ENDMDL
MODEL 8
REMARK VINA RESULT:      -6.9     28.163     32.087
REMARK  Name = 45361027
REMARK  9 active torsions:
REMARK  status: ('A' for Active; 'I' for Inactive)
REMARK    1  A    between atoms: N_4  and  C_17
REMARK    2  A    between atoms: N_5  and  C_19
REMARK    3  A    between atoms: N_7  and  C_25
REMARK    4  A    between atoms: N_9  and  C_28
REMARK    5  A    between atoms: C_14  and  C_18
REMARK    6  A    between atoms: C_17  and  C_20
REMARK    7  A    between atoms: C_18  and  C_21
REMARK    8  A    between atoms: C_21  and  C_22
REMARK    9  A    between atoms: C_28  and  C_31
REMARK                            x       y       z     vdW  Elec       q    Type
REMARK                         _______ _______ _______ _____ _____    ______ ____
ROOT
ATOM      2  O   UNL     1      -6.514  -9.323  16.543  0.00  0.00    -0.274 OA
ATOM      4  N   UNL     1      -7.359 -11.789  17.245  0.00  0.00    -0.283 NA
ATOM      5  N   UNL     1     -10.187  -9.523  17.753  0.00  0.00    -0.296 NA
ATOM      6  N   UNL     1      -8.490  -8.703  15.569  0.00  0.00    -0.312 N 
ATOM     10  C   UNL     1      -9.583 -10.850  17.496  0.00  0.00    +0.084 C 
ATOM     11  C   UNL     1      -8.342 -10.930  16.560  0.00  0.00    +0.161 C 
ATOM     12  C   UNL     1      -9.074 -11.560  18.765  0.00  0.00    +0.036 C 
ATOM     13  C   UNL     1      -8.094 -12.581  18.227  0.00  0.00    +0.087 C 
ATOM     14  C   UNL     1     -10.761  -8.863  16.547  0.00  0.00    +0.074 C 
ATOM     15  C   UNL     1      -7.679  -9.591  16.249  0.00  0.00    +0.232 C 
ATOM     16  C   UNL     1      -9.888  -8.957  15.280  0.00  0.00    +0.123 C 
ATOM     19  C   UNL     1     -11.200  -9.606  18.819  0.00  0.00    +0.105 C 
ATOM     35  H   UNL     1      -8.102  -7.801  15.311  0.00  0.00    +0.149 HD
ENDROOT
BRANCH   4  17
ATOM     17  C   UNL     1      -6.588 -12.625  16.334  0.00  0.00    +0.159 C 
BRANCH  17  20
ATOM      7  N   UNL     1      -4.938 -11.625  14.726  0.00  0.00    -0.330 N 
ATOM      8  N   UNL     1      -4.282 -11.781  16.844  0.00  0.00    -0.231 NA
ATOM     20  C   UNL     1      -5.259 -12.012  15.997  0.00  0.00    +0.125 A 
ATOM     23  C   UNL     1      -3.667 -11.109  14.755  0.00  0.00    +0.069 A 
ATOM     24  C   UNL     1      -3.279 -11.218  16.088  0.00  0.00    +0.089 A 
ATOM     25  C   UNL     1      -5.783 -11.737  13.559  0.00  0.00    +0.150 C 
ATOM     26  C   UNL     1      -2.850 -10.573  13.760  0.00  0.00    +0.028 A 
ATOM     27  C   UNL     1      -2.003 -10.770  16.468  0.00  0.00    +0.030 A 
ATOM     29  C   UNL     1      -1.582 -10.133  14.156  0.00  0.00    +0.002 A 
ATOM     30  C   UNL     1      -1.165 -10.229  15.486  0.00  0.00    +0.002 A 
ENDBRANCH  17  20
ENDBRANCH   4  17
BRANCH  14  18
ATOM     18  C   UNL     1     -11.020  -7.368  16.822  0.00  0.00    +0.029 C 
BRANCH  18  21
ATOM     21  C   UNL     1     -10.813  -6.546  15.563  0.00  0.00    +0.097 C 
BRANCH  21  22
ATOM      3  O   UNL     1     -13.202  -6.152  15.593  0.00  0.00    -0.276 OA
ATOM      9  N   UNL     1     -11.894  -5.045  14.027  0.00  0.00    -0.311 N 
ATOM     22  C   UNL     1     -12.108  -5.913  15.088  0.00  0.00    +0.213 C 
ATOM     36  H   UNL     1     -10.947  -4.910  13.684  0.00  0.00    +0.149 HD
BRANCH   9  28
ATOM     28  C   UNL     1     -12.970  -4.319  13.396  0.00  0.00    +0.146 C 
BRANCH  28  31
ATOM      1  S   UNL     1     -12.361  -5.880  11.181  0.00  0.00    -0.100 S 
ATOM     31  C   UNL     1     -12.921  -4.430  11.899  0.00  0.00    +0.007 A 
ATOM     32  C   UNL     1     -13.278  -3.491  10.957  0.00  0.00    +0.013 A 
ATOM     33  C   UNL     1     -13.089  -3.968   9.628  0.00  0.00    +0.008 A 
ATOM     34  C   UNL     1     -12.594  -5.252   9.605  0.00  0.00    +0.045 A 
ENDBRANCH  28  31
ENDBRANCH   9  28
ENDBRANCH  21  22
ENDBRANCH  18  21
ENDBRANCH  14  18
TORSDOF 7
ENDMDL
MODEL 9
REMARK VINA RESULT:      -6.8     28.463     31.772
REMARK  Name = 45361027
REMARK  9 active torsions:
REMARK  status: ('A' for Active; 'I' for Inactive)
REMARK    1  A    between atoms: N_4  and  C_17
REMARK    2  A    between atoms: N_5  and  C_19
REMARK    3  A    between atoms: N_7  and  C_25
REMARK    4  A    between atoms: N_9  and  C_28
REMARK    5  A    between atoms: C_14  and  C_18
REMARK    6  A    between atoms: C_17  and  C_20
REMARK    7  A    between atoms: C_18  and  C_21
REMARK    8  A    between atoms: C_21  and  C_22
REMARK    9  A    between atoms: C_28  and  C_31
REMARK                            x       y       z     vdW  Elec       q    Type
REMARK                         _______ _______ _______ _____ _____    ______ ____
ROOT
ATOM      2  O   UNL     1      -6.289 -10.396  12.153  0.00  0.00    -0.274 OA
ATOM      4  N   UNL     1      -3.854 -11.468  12.615  0.00  0.00    -0.283 NA
ATOM      5  N   UNL     1      -4.594 -12.023   9.075  0.00  0.00    -0.296 NA
ATOM      6  N   UNL     1      -5.761  -9.583  10.080  0.00  0.00    -0.312 N 
ATOM     10  C   UNL     1      -3.679 -11.855  10.225  0.00  0.00    +0.084 C 
ATOM     11  C   UNL     1      -4.040 -10.802  11.313  0.00  0.00    +0.161 C 
ATOM     12  C   UNL     1      -3.492 -13.132  11.066  0.00  0.00    +0.036 C 
ATOM     13  C   UNL     1      -2.974 -12.610  12.389  0.00  0.00    +0.087 C 
ATOM     14  C   UNL     1      -4.717 -10.819   8.204  0.00  0.00    +0.074 C 
ATOM     15  C   UNL     1      -5.468 -10.267  11.245  0.00  0.00    +0.232 C 
ATOM     16  C   UNL     1      -4.845  -9.482   8.961  0.00  0.00    +0.123 C 
ATOM     19  C   UNL     1      -4.216 -13.197   8.270  0.00  0.00    +0.105 C 
ATOM     35  H   UNL     1      -6.688  -9.181   9.981  0.00  0.00    +0.149 HD
ENDROOT
BRANCH   4  17
ATOM     17  C   UNL     1      -3.343 -10.580  13.650  0.00  0.00    +0.159 C 
BRANCH  17  20
ATOM      7  N   UNL     1      -3.131 -10.984  16.121  0.00  0.00    -0.330 N 
ATOM      8  N   UNL     1      -5.177 -11.143  15.266  0.00  0.00    -0.231 NA
ATOM     20  C   UNL     1      -3.912 -10.905  15.002  0.00  0.00    +0.125 A 
ATOM     23  C   UNL     1      -3.947 -11.294  17.179  0.00  0.00    +0.069 A 
ATOM     24  C   UNL     1      -5.218 -11.389  16.620  0.00  0.00    +0.089 A 
ATOM     25  C   UNL     1      -1.702 -10.778  16.182  0.00  0.00    +0.150 C 
ATOM     26  C   UNL     1      -3.689 -11.494  18.535  0.00  0.00    +0.028 A 
ATOM     27  C   UNL     1      -6.309 -11.700  17.449  0.00  0.00    +0.030 A 
ATOM     29  C   UNL     1      -4.786 -11.804  19.345  0.00  0.00    +0.002 A 
ATOM     30  C   UNL     1      -6.074 -11.905  18.814  0.00  0.00    +0.002 A 
ENDBRANCH  17  20
ENDBRANCH   4  17
BRANCH  14  18
ATOM     18  C   UNL     1      -5.943 -10.947   7.277  0.00  0.00    +0.029 C 
BRANCH  18  21
ATOM     21  C   UNL     1      -5.563 -10.645   5.839  0.00  0.00    +0.097 C 
BRANCH  21  22
ATOM      3  O   UNL     1      -7.140 -10.228   4.051  0.00  0.00    -0.276 OA
ATOM      9  N   UNL     1      -7.019  -8.732   5.822  0.00  0.00    -0.311 N 
ATOM     22  C   UNL     1      -6.653  -9.872   5.121  0.00  0.00    +0.213 C 
ATOM     36  H   UNL     1      -6.560  -8.528   6.705  0.00  0.00    +0.149 HD
BRANCH   9  28
ATOM     28  C   UNL     1      -8.037  -7.827   5.344  0.00  0.00    +0.146 C 
BRANCH  28  31
ATOM      1  S   UNL     1     -10.422  -6.904   6.429  0.00  0.00    -0.100 S 
ATOM     31  C   UNL     1      -8.722  -7.107   6.470  0.00  0.00    +0.007 A 
ATOM     32  C   UNL     1      -8.162  -6.549   7.597  0.00  0.00    +0.013 A 
ATOM     33  C   UNL     1      -9.142  -5.947   8.440  0.00  0.00    +0.008 A 
ATOM     34  C   UNL     1     -10.412  -6.068   7.923  0.00  0.00    +0.045 A 
ENDBRANCH  28  31
ENDBRANCH   9  28
ENDBRANCH  21  22
ENDBRANCH  18  21
ENDBRANCH  14  18
TORSDOF 7
ENDMDL
MODEL 10
REMARK VINA RESULT:      -6.7     28.229     31.808
REMARK  Name = 45361027
REMARK  9 active torsions:
REMARK  status: ('A' for Active; 'I' for Inactive)
REMARK    1  A    between atoms: N_4  and  C_17
REMARK    2  A    between atoms: N_5  and  C_19
REMARK    3  A    between atoms: N_7  and  C_25
REMARK    4  A    between atoms: N_9  and  C_28
REMARK    5  A    between atoms: C_14  and  C_18
REMARK    6  A    between atoms: C_17  and  C_20
REMARK    7  A    between atoms: C_18  and  C_21
REMARK    8  A    between atoms: C_21  and  C_22
REMARK    9  A    between atoms: C_28  and  C_31
REMARK                            x       y       z     vdW  Elec       q    Type
REMARK                         _______ _______ _______ _____ _____    ______ ____
ROOT
ATOM      2  O   UNL     1      -5.881  -9.577  13.097  0.00  0.00    -0.274 OA
ATOM      4  N   UNL     1      -3.708 -10.658  11.912  0.00  0.00    -0.283 NA
ATOM      5  N   UNL     1      -3.102 -10.763  15.519  0.00  0.00    -0.296 NA
ATOM      6  N   UNL     1      -5.897 -11.038  14.858  0.00  0.00    -0.312 N 
ATOM     10  C   UNL     1      -2.906 -11.233  14.129  0.00  0.00    +0.084 C 
ATOM     11  C   UNL     1      -4.139 -11.276  13.180  0.00  0.00    +0.161 C 
ATOM     12  C   UNL     1      -1.907 -10.385  13.319  0.00  0.00    +0.036 C 
ATOM     13  C   UNL     1      -2.251 -10.714  11.882  0.00  0.00    +0.087 C 
ATOM     14  C   UNL     1      -3.999 -11.625  16.339  0.00  0.00    +0.074 C 
ATOM     15  C   UNL     1      -5.370 -10.529  13.686  0.00  0.00    +0.232 C 
ATOM     16  C   UNL     1      -5.275 -12.105  15.618  0.00  0.00    +0.123 C 
ATOM     19  C   UNL     1      -1.808 -10.582  16.199  0.00  0.00    +0.105 C 
ATOM     35  H   UNL     1      -6.731 -10.601  15.237  0.00  0.00    +0.149 HD
ENDROOT
BRANCH   4  17
ATOM     17  C   UNL     1      -4.304 -11.280  10.736  0.00  0.00    +0.159 C 
BRANCH  17  20
ATOM      7  N   UNL     1      -6.710 -10.944  10.094  0.00  0.00    -0.330 N 
ATOM      8  N   UNL     1      -5.341  -9.232   9.724  0.00  0.00    -0.231 NA
ATOM     20  C   UNL     1      -5.434 -10.461  10.179  0.00  0.00    +0.125 A 
ATOM     23  C   UNL     1      -7.494  -9.960   9.548  0.00  0.00    +0.069 A 
ATOM     24  C   UNL     1      -6.617  -8.902   9.325  0.00  0.00    +0.089 A 
ATOM     25  C   UNL     1      -7.156 -12.256  10.505  0.00  0.00    +0.150 C 
ATOM     26  C   UNL     1      -8.853  -9.908   9.238  0.00  0.00    +0.028 A 
ATOM     27  C   UNL     1      -7.109  -7.712   8.762  0.00  0.00    +0.030 A 
ATOM     29  C   UNL     1      -9.325  -8.716   8.677  0.00  0.00    +0.002 A 
ATOM     30  C   UNL     1      -8.469  -7.637   8.443  0.00  0.00    +0.002 A 
ENDBRANCH  17  20
ENDBRANCH   4  17
BRANCH  14  18
ATOM     18  C   UNL     1      -4.441 -10.881  17.617  0.00  0.00    +0.029 C 
BRANCH  18  21
ATOM     21  C   UNL     1      -4.770 -11.865  18.724  0.00  0.00    +0.097 C 
BRANCH  21  22
ATOM      3  O   UNL     1      -6.050 -11.226  20.677  0.00  0.00    -0.276 OA
ATOM      9  N   UNL     1      -7.129 -11.412  18.630  0.00  0.00    -0.311 N 
ATOM     22  C   UNL     1      -6.029 -11.467  19.473  0.00  0.00    +0.213 C 
ATOM     36  H   UNL     1      -7.006 -11.624  17.644  0.00  0.00    +0.149 HD
BRANCH   9  28
ATOM     28  C   UNL     1      -8.446 -11.059  19.104  0.00  0.00    +0.146 C 
BRANCH  28  31
ATOM      1  S   UNL     1      -8.155  -9.212  17.050  0.00  0.00    -0.100 S 
ATOM     31  C   UNL     1      -9.086 -10.003  18.250  0.00  0.00    +0.007 A 
ATOM     32  C   UNL     1     -10.384  -9.543  18.282  0.00  0.00    +0.013 A 
ATOM     33  C   UNL     1     -10.617  -8.528  17.310  0.00  0.00    +0.008 A 
ATOM     34  C   UNL     1      -9.489  -8.251  16.571  0.00  0.00    +0.045 A 
ENDBRANCH  28  31
ENDBRANCH   9  28
ENDBRANCH  21  22
ENDBRANCH  18  21
ENDBRANCH  14  18
TORSDOF 7
ENDMDL
