MODEL 1
REMARK VINA RESULT:      -7.3      0.000      0.000
REMARK  Name = 71693437
REMARK  9 active torsions:
REMARK  status: ('A' for Active; 'I' for Inactive)
REMARK    1  A    between atoms: O_2  and  C_11
REMARK    2  A    between atoms: N_6  and  C_13
REMARK    3  A    between atoms: N_7  and  C_21
REMARK    4  A    between atoms: C_9  and  C_11
REMARK    5  A    between atoms: C_10  and  C_12
REMARK    6  A    between atoms: C_13  and  C_18
REMARK    7  A    between atoms: C_25  and  C_27
REMARK    8  A    between atoms: C_28  and  C_31
REMARK    9  A    between atoms: C_30  and  C_32
REMARK                            x       y       z     vdW  Elec       q    Type
REMARK                         _______ _______ _______ _____ _____    ______ ____
ROOT
ATOM      1  O   UNL     1      12.709   6.810  20.956  0.00  0.00    -0.361 OA
ATOM      3  O   UNL     1      11.275   9.773  21.890  0.00  0.00    -0.273 OA
ATOM      6  N   UNL     1      12.631   9.356  20.037  0.00  0.00    -0.287 N 
ATOM      9  C   UNL     1      13.034   8.370  19.028  0.00  0.00    +0.135 C 
ATOM     10  C   UNL     1      13.287   6.973  19.656  0.00  0.00    +0.171 C 
ATOM     14  C   UNL     1      11.781   8.999  21.080  0.00  0.00    +0.242 C 
ATOM     15  C   UNL     1      11.499   7.516  21.134  0.00  0.00    +0.256 C 
ENDROOT
BRANCH  10  12
ATOM     12  C   UNL     1      14.771   6.693  19.789  0.00  0.00    -0.017 A 
ATOM     16  C   UNL     1      15.359   6.628  21.053  0.00  0.00    +0.008 A 
ATOM     17  C   UNL     1      15.550   6.499  18.647  0.00  0.00    +0.008 A 
ATOM     19  C   UNL     1      16.725   6.369  21.173  0.00  0.00    +0.023 A 
ATOM     20  C   UNL     1      16.914   6.240  18.769  0.00  0.00    +0.023 A 
ATOM     21  C   UNL     1      17.503   6.175  20.032  0.00  0.00    +0.034 A 
BRANCH  21   7
ATOM      5  O   UNL     1      19.696   7.856  21.195  0.00  0.00    -0.270 OA
ATOM      7  N   UNL     1      18.868   5.917  20.154  0.00  0.00    -0.281 N 
ATOM     25  C   UNL     1      19.855   6.741  20.709  0.00  0.00    +0.252 C 
ATOM     34  H   UNL     1      19.156   5.012  19.791  0.00  0.00    +0.155 HD
BRANCH  25  27
ATOM      4  O   UNL     1      23.465   6.047  20.537  0.00  0.00    -0.464 OA
ATOM     27  C   UNL     1      21.228   6.171  20.721  0.00  0.00    +0.078 A 
ATOM     28  C   UNL     1      22.383   6.862  20.435  0.00  0.00    +0.114 A 
ATOM     29  C   UNL     1      21.627   4.846  21.020  0.00  0.00    +0.057 A 
ATOM     30  C   UNL     1      22.997   4.821  20.894  0.00  0.00    +0.103 A 
ATOM     31  C   UNL     1      22.660   8.255  20.053  0.00  0.00    +0.087 C 
ATOM     32  C   UNL     1      24.005   3.766  21.067  0.00  0.00    +0.086 C 
ENDBRANCH  25  27
ENDBRANCH  21   7
ENDBRANCH  10  12
BRANCH   9  11
ATOM     11  C   UNL     1      11.993   8.291  17.904  0.00  0.00    +0.181 C 
BRANCH  11   2
ATOM      2  O   UNL     1      11.906   6.946  17.478  0.00  0.00    -0.393 OA
ATOM     33  H   UNL     1      11.324   6.927  16.699  0.00  0.00    +0.209 HD
ENDBRANCH  11   2
ENDBRANCH   9  11
BRANCH   6  13
ATOM     13  C   UNL     1      13.035  10.740  19.841  0.00  0.00    +0.145 C 
BRANCH  13  18
ATOM      8  N   UNL     1      16.568  11.962  19.277  0.00  0.00    -0.263 NA
ATOM     18  C   UNL     1      14.515  10.924  20.018  0.00  0.00    -0.012 A 
ATOM     22  C   UNL     1      15.203  10.268  21.031  0.00  0.00    +0.008 A 
ATOM     23  C   UNL     1      15.237  11.753  19.173  0.00  0.00    +0.115 A 
ATOM     24  C   UNL     1      16.574  10.458  21.169  0.00  0.00    +0.020 A 
ATOM     26  C   UNL     1      17.204  11.307  20.275  0.00  0.00    +0.111 A 
ENDBRANCH  13  18
ENDBRANCH   6  13
TORSDOF 7
ENDMDL
MODEL 2
REMARK VINA RESULT:      -7.1     17.012     20.428
REMARK  Name = 71693437
REMARK  9 active torsions:
REMARK  status: ('A' for Active; 'I' for Inactive)
REMARK    1  A    between atoms: O_2  and  C_11
REMARK    2  A    between atoms: N_6  and  C_13
REMARK    3  A    between atoms: N_7  and  C_21
REMARK    4  A    between atoms: C_9  and  C_11
REMARK    5  A    between atoms: C_10  and  C_12
REMARK    6  A    between atoms: C_13  and  C_18
REMARK    7  A    between atoms: C_25  and  C_27
REMARK    8  A    between atoms: C_28  and  C_31
REMARK    9  A    between atoms: C_30  and  C_32
REMARK                            x       y       z     vdW  Elec       q    Type
REMARK                         _______ _______ _______ _____ _____    ______ ____
ROOT
ATOM      1  O   UNL     1      11.235   7.552  -1.426  0.00  0.00    -0.361 OA
ATOM      3  O   UNL     1      14.000   6.340  -3.034  0.00  0.00    -0.273 OA
ATOM      6  N   UNL     1      12.222   5.131  -2.128  0.00  0.00    -0.287 N 
ATOM      9  C   UNL     1      10.785   5.127  -1.835  0.00  0.00    +0.135 C 
ATOM     10  C   UNL     1      10.318   6.472  -1.218  0.00  0.00    +0.171 C 
ATOM     14  C   UNL     1      12.843   6.273  -2.628  0.00  0.00    +0.242 C 
ATOM     15  C   UNL     1      11.934   7.479  -2.651  0.00  0.00    +0.256 C 
ENDROOT
BRANCH  10  12
ATOM     12  C   UNL     1      10.108   6.346   0.278  0.00  0.00    -0.017 A 
ATOM     16  C   UNL     1       9.739   7.463   1.029  0.00  0.00    +0.008 A 
ATOM     17  C   UNL     1      10.284   5.112   0.906  0.00  0.00    +0.008 A 
ATOM     19  C   UNL     1       9.546   7.345   2.406  0.00  0.00    +0.023 A 
ATOM     20  C   UNL     1      10.090   4.995   2.282  0.00  0.00    +0.023 A 
ATOM     21  C   UNL     1       9.722   6.111   3.032  0.00  0.00    +0.034 A 
BRANCH  21   7
ATOM      5  O   UNL     1      11.670   6.398   5.293  0.00  0.00    -0.270 OA
ATOM      7  N   UNL     1       9.528   5.995   4.409  0.00  0.00    -0.281 N 
ATOM     25  C   UNL     1      10.478   6.139   5.428  0.00  0.00    +0.252 C 
ATOM     34  H   UNL     1       8.572   5.782   4.680  0.00  0.00    +0.155 HD
BRANCH  25  27
ATOM      4  O   UNL     1       8.946   6.482   8.757  0.00  0.00    -0.464 OA
ATOM     27  C   UNL     1       9.957   5.983   6.812  0.00  0.00    +0.078 A 
ATOM     28  C   UNL     1       9.286   6.948   7.526  0.00  0.00    +0.114 A 
ATOM     29  C   UNL     1      10.033   4.850   7.657  0.00  0.00    +0.057 A 
ATOM     30  C   UNL     1       9.405   5.205   8.829  0.00  0.00    +0.103 A 
ATOM     31  C   UNL     1       8.883   8.331   7.228  0.00  0.00    +0.087 C 
ATOM     32  C   UNL     1       9.146   4.491  10.087  0.00  0.00    +0.086 C 
ENDBRANCH  25  27
ENDBRANCH  21   7
ENDBRANCH  10  12
BRANCH   9  11
ATOM     11  C   UNL     1       9.977   4.786  -3.094  0.00  0.00    +0.181 C 
BRANCH  11   2
ATOM      2  O   UNL     1       9.433   3.492  -2.931  0.00  0.00    -0.393 OA
ATOM     33  H   UNL     1       8.710   3.400  -3.575  0.00  0.00    +0.209 HD
ENDBRANCH  11   2
ENDBRANCH   9  11
BRANCH   6  13
ATOM     13  C   UNL     1      12.949   3.876  -2.008  0.00  0.00    +0.145 C 
BRANCH  13  18
ATOM      8  N   UNL     1      15.715   3.982   0.568  0.00  0.00    -0.263 NA
ATOM     18  C   UNL     1      13.663   3.764  -0.692  0.00  0.00    -0.012 A 
ATOM     22  C   UNL     1      12.994   3.355   0.455  0.00  0.00    +0.008 A 
ATOM     23  C   UNL     1      15.012   4.064  -0.584  0.00  0.00    +0.115 A 
ATOM     24  C   UNL     1      13.683   3.259   1.659  0.00  0.00    +0.020 A 
ATOM     26  C   UNL     1      15.030   3.581   1.663  0.00  0.00    +0.111 A 
ENDBRANCH  13  18
ENDBRANCH   6  13
TORSDOF 7
ENDMDL
MODEL 3
REMARK VINA RESULT:      -6.8     15.320     17.789
REMARK  Name = 71693437
REMARK  9 active torsions:
REMARK  status: ('A' for Active; 'I' for Inactive)
REMARK    1  A    between atoms: O_2  and  C_11
REMARK    2  A    between atoms: N_6  and  C_13
REMARK    3  A    between atoms: N_7  and  C_21
REMARK    4  A    between atoms: C_9  and  C_11
REMARK    5  A    between atoms: C_10  and  C_12
REMARK    6  A    between atoms: C_13  and  C_18
REMARK    7  A    between atoms: C_25  and  C_27
REMARK    8  A    between atoms: C_28  and  C_31
REMARK    9  A    between atoms: C_30  and  C_32
REMARK                            x       y       z     vdW  Elec       q    Type
REMARK                         _______ _______ _______ _____ _____    ______ ____
ROOT
ATOM      1  O   UNL     1      10.011   4.160   6.268  0.00  0.00    -0.361 OA
ATOM      3  O   UNL     1      10.825   5.483   9.316  0.00  0.00    -0.273 OA
ATOM      6  N   UNL     1      10.442   6.620   7.314  0.00  0.00    -0.287 N 
ATOM      9  C   UNL     1       9.695   6.631   6.052  0.00  0.00    +0.135 C 
ATOM     10  C   UNL     1       9.676   5.232   5.380  0.00  0.00    +0.171 C 
ATOM     14  C   UNL     1      10.356   5.534   8.182  0.00  0.00    +0.242 C 
ATOM     15  C   UNL     1       9.589   4.370   7.600  0.00  0.00    +0.256 C 
ENDROOT
BRANCH  10  12
ATOM     12  C   UNL     1      10.648   5.169   4.218  0.00  0.00    -0.017 A 
ATOM     16  C   UNL     1      10.712   4.025   3.422  0.00  0.00    +0.008 A 
ATOM     17  C   UNL     1      11.478   6.256   3.943  0.00  0.00    +0.008 A 
ATOM     19  C   UNL     1      11.606   3.969   2.352  0.00  0.00    +0.023 A 
ATOM     20  C   UNL     1      12.371   6.200   2.874  0.00  0.00    +0.023 A 
ATOM     21  C   UNL     1      12.436   5.056   2.078  0.00  0.00    +0.034 A 
BRANCH  21   7
ATOM      5  O   UNL     1      14.715   3.180   1.557  0.00  0.00    -0.270 OA
ATOM      7  N   UNL     1      13.330   4.999   1.008  0.00  0.00    -0.281 N 
ATOM     25  C   UNL     1      14.383   4.096   0.813  0.00  0.00    +0.252 C 
ATOM     34  H   UNL     1      13.175   5.707   0.296  0.00  0.00    +0.155 HD
BRANCH  25  27
ATOM      4  O   UNL     1      15.583   4.434  -2.650  0.00  0.00    -0.464 OA
ATOM     27  C   UNL     1      15.147   4.273  -0.450  0.00  0.00    +0.078 A 
ATOM     28  C   UNL     1      14.614   4.235  -1.718  0.00  0.00    +0.114 A 
ATOM     29  C   UNL     1      16.532   4.513  -0.614  0.00  0.00    +0.057 A 
ATOM     30  C   UNL     1      16.748   4.602  -1.970  0.00  0.00    +0.103 A 
ATOM     31  C   UNL     1      13.254   4.027  -2.238  0.00  0.00    +0.087 C 
ATOM     32  C   UNL     1      17.948   4.837  -2.785  0.00  0.00    +0.086 C 
ENDBRANCH  25  27
ENDBRANCH  21   7
ENDBRANCH  10  12
BRANCH   9  11
ATOM     11  C   UNL     1       8.271   7.159   6.271  0.00  0.00    +0.181 C 
BRANCH  11   2
ATOM      2  O   UNL     1       7.667   7.335   5.007  0.00  0.00    -0.393 OA
ATOM     33  H   UNL     1       8.030   8.152   4.624  0.00  0.00    +0.209 HD
ENDBRANCH  11   2
ENDBRANCH   9  11
BRANCH   6  13
ATOM     13  C   UNL     1      11.164   7.824   7.693  0.00  0.00    +0.145 C 
BRANCH  13  18
ATOM      8  N   UNL     1      13.732   9.283   5.332  0.00  0.00    -0.263 NA
ATOM     18  C   UNL     1      12.433   7.989   6.908  0.00  0.00    -0.012 A 
ATOM     22  C   UNL     1      13.461   7.058   7.002  0.00  0.00    +0.008 A 
ATOM     23  C   UNL     1      12.616   9.075   6.066  0.00  0.00    +0.115 A 
ATOM     24  C   UNL     1      14.625   7.238   6.262  0.00  0.00    +0.020 A 
ATOM     26  C   UNL     1      14.710   8.356   5.449  0.00  0.00    +0.111 A 
ENDBRANCH  13  18
ENDBRANCH   6  13
TORSDOF 7
ENDMDL
MODEL 4
REMARK VINA RESULT:      -6.7     14.175     15.838
REMARK  Name = 71693437
REMARK  9 active torsions:
REMARK  status: ('A' for Active; 'I' for Inactive)
REMARK    1  A    between atoms: O_2  and  C_11
REMARK    2  A    between atoms: N_6  and  C_13
REMARK    3  A    between atoms: N_7  and  C_21
REMARK    4  A    between atoms: C_9  and  C_11
REMARK    5  A    between atoms: C_10  and  C_12
REMARK    6  A    between atoms: C_13  and  C_18
REMARK    7  A    between atoms: C_25  and  C_27
REMARK    8  A    between atoms: C_28  and  C_31
REMARK    9  A    between atoms: C_30  and  C_32
REMARK                            x       y       z     vdW  Elec       q    Type
REMARK                         _______ _______ _______ _____ _____    ______ ____
ROOT
ATOM      1  O   UNL     1      10.129   8.463   6.838  0.00  0.00    -0.361 OA
ATOM      3  O   UNL     1       7.856   6.985   4.751  0.00  0.00    -0.273 OA
ATOM      6  N   UNL     1       9.675   5.993   5.825  0.00  0.00    -0.287 N 
ATOM      9  C   UNL     1      10.528   6.001   7.018  0.00  0.00    +0.135 C 
ATOM     10  C   UNL     1      10.946   7.441   7.419  0.00  0.00    +0.171 C 
ATOM     14  C   UNL     1       8.708   6.978   5.636  0.00  0.00    +0.242 C 
ATOM     15  C   UNL     1       8.779   8.083   6.663  0.00  0.00    +0.256 C 
ENDROOT
BRANCH  10  12
ATOM     12  C   UNL     1      12.378   7.730   7.013  0.00  0.00    -0.017 A 
ATOM     16  C   UNL     1      13.332   6.712   7.042  0.00  0.00    +0.008 A 
ATOM     17  C   UNL     1      12.743   9.014   6.608  0.00  0.00    +0.008 A 
ATOM     19  C   UNL     1      14.649   6.979   6.668  0.00  0.00    +0.023 A 
ATOM     20  C   UNL     1      14.059   9.281   6.233  0.00  0.00    +0.023 A 
ATOM     21  C   UNL     1      15.013   8.263   6.263  0.00  0.00    +0.034 A 
BRANCH  21   7
ATOM      5  O   UNL     1      16.419   7.787   3.659  0.00  0.00    -0.270 OA
ATOM      7  N   UNL     1      16.330   8.529   5.888  0.00  0.00    -0.281 N 
ATOM     25  C   UNL     1      16.940   8.285   4.651  0.00  0.00    +0.252 C 
ATOM     34  H   UNL     1      16.895   8.954   6.619  0.00  0.00    +0.155 HD
BRANCH  25  27
ATOM      4  O   UNL     1      20.159  10.046   4.367  0.00  0.00    -0.464 OA
ATOM     27  C   UNL     1      18.362   8.708   4.548  0.00  0.00    +0.078 A 
ATOM     28  C   UNL     1      18.803  10.007   4.442  0.00  0.00    +0.114 A 
ATOM     29  C   UNL     1      19.522   7.897   4.540  0.00  0.00    +0.057 A 
ATOM     30  C   UNL     1      20.589   8.758   4.427  0.00  0.00    +0.103 A 
ATOM     31  C   UNL     1      18.118  11.308   4.394  0.00  0.00    +0.087 C 
ATOM     32  C   UNL     1      22.043   8.555   4.365  0.00  0.00    +0.086 C 
ENDBRANCH  25  27
ENDBRANCH  21   7
ENDBRANCH  10  12
BRANCH   9  11
ATOM     11  C   UNL     1       9.837   5.281   8.183  0.00  0.00    +0.181 C 
BRANCH  11   2
ATOM      2  O   UNL     1      10.446   4.017   8.343  0.00  0.00    -0.393 OA
ATOM     33  H   UNL     1      11.018   3.871   7.571  0.00  0.00    +0.209 HD
ENDBRANCH  11   2
ENDBRANCH   9  11
BRANCH   6  13
ATOM     13  C   UNL     1       9.776   4.860   4.919  0.00  0.00    +0.145 C 
BRANCH  13  18
ATOM      8  N   UNL     1      12.110   4.174   2.024  0.00  0.00    -0.263 NA
ATOM     18  C   UNL     1      10.851   5.058   3.889  0.00  0.00    -0.012 A 
ATOM     22  C   UNL     1      11.572   6.243   3.824  0.00  0.00    +0.008 A 
ATOM     23  C   UNL     1      11.155   4.062   2.974  0.00  0.00    +0.115 A 
ATOM     24  C   UNL     1      12.563   6.396   2.860  0.00  0.00    +0.020 A 
ATOM     26  C   UNL     1      12.791   5.342   1.991  0.00  0.00    +0.111 A 
ENDBRANCH  13  18
ENDBRANCH   6  13
TORSDOF 7
ENDMDL
MODEL 5
REMARK VINA RESULT:      -6.5     27.059     30.725
REMARK  Name = 71693437
REMARK  9 active torsions:
REMARK  status: ('A' for Active; 'I' for Inactive)
REMARK    1  A    between atoms: O_2  and  C_11
REMARK    2  A    between atoms: N_6  and  C_13
REMARK    3  A    between atoms: N_7  and  C_21
REMARK    4  A    between atoms: C_9  and  C_11
REMARK    5  A    between atoms: C_10  and  C_12
REMARK    6  A    between atoms: C_13  and  C_18
REMARK    7  A    between atoms: C_25  and  C_27
REMARK    8  A    between atoms: C_28  and  C_31
REMARK    9  A    between atoms: C_30  and  C_32
REMARK                            x       y       z     vdW  Elec       q    Type
REMARK                         _______ _______ _______ _____ _____    ______ ____
ROOT
ATOM      1  O   UNL     1      -1.783 -10.240  13.367  0.00  0.00    -0.361 OA
ATOM      3  O   UNL     1      -3.092 -10.722  16.491  0.00  0.00    -0.273 OA
ATOM      6  N   UNL     1      -3.438 -12.010  14.576  0.00  0.00    -0.287 N 
ATOM      9  C   UNL     1      -2.850 -12.501  13.325  0.00  0.00    +0.135 C 
ATOM     10  C   UNL     1      -2.103 -11.378  12.558  0.00  0.00    +0.171 C 
ATOM     14  C   UNL     1      -2.757 -11.089  15.368  0.00  0.00    +0.242 C 
ATOM     15  C   UNL     1      -1.502 -10.559  14.714  0.00  0.00    +0.256 C 
ENDROOT
BRANCH  10  12
ATOM     12  C   UNL     1      -2.922 -10.876  11.385  0.00  0.00    -0.017 A 
ATOM     16  C   UNL     1      -2.794  -9.553  10.959  0.00  0.00    +0.008 A 
ATOM     17  C   UNL     1      -3.804 -11.737  10.731  0.00  0.00    +0.008 A 
ATOM     19  C   UNL     1      -3.548  -9.093   9.879  0.00  0.00    +0.023 A 
ATOM     20  C   UNL     1      -4.556 -11.276   9.651  0.00  0.00    +0.023 A 
ATOM     21  C   UNL     1      -4.429  -9.954   9.225  0.00  0.00    +0.034 A 
BRANCH  21   7
ATOM      5  O   UNL     1      -7.398  -9.678   8.912  0.00  0.00    -0.270 OA
ATOM      7  N   UNL     1      -5.183  -9.493   8.145  0.00  0.00    -0.281 N 
ATOM     25  C   UNL     1      -6.576  -9.384   8.050  0.00  0.00    +0.252 C 
ATOM     34  H   UNL     1      -4.630  -9.204   7.343  0.00  0.00    +0.155 HD
BRANCH  25  27
ATOM      4  O   UNL     1      -8.151  -7.459   5.337  0.00  0.00    -0.464 OA
ATOM     27  C   UNL     1      -7.085  -8.825   6.770  0.00  0.00    +0.078 A 
ATOM     28  C   UNL     1      -7.857  -7.694   6.643  0.00  0.00    +0.114 A 
ATOM     29  C   UNL     1      -6.890  -9.316   5.457  0.00  0.00    +0.057 A 
ATOM     30  C   UNL     1      -7.558  -8.452   4.622  0.00  0.00    +0.103 A 
ATOM     31  C   UNL     1      -8.406  -6.730   7.609  0.00  0.00    +0.087 C 
ATOM     32  C   UNL     1      -7.742  -8.401   3.165  0.00  0.00    +0.086 C 
ENDBRANCH  25  27
ENDBRANCH  21   7
ENDBRANCH  10  12
BRANCH   9  11
ATOM     11  C   UNL     1      -1.927 -13.697  13.594  0.00  0.00    +0.181 C 
BRANCH  11   2
ATOM      2  O   UNL     1      -0.614 -13.333  13.220  0.00  0.00    -0.393 OA
ATOM     33  H   UNL     1      -0.237 -14.080  12.725  0.00  0.00    +0.209 HD
ENDBRANCH  11   2
ENDBRANCH   9  11
BRANCH   6  13
ATOM     13  C   UNL     1      -4.682 -12.611  15.030  0.00  0.00    +0.145 C 
BRANCH  13  18
ATOM      8  N   UNL     1      -7.755 -10.536  15.773  0.00  0.00    -0.263 NA
ATOM     18  C   UNL     1      -5.855 -11.695  14.829  0.00  0.00    -0.012 A 
ATOM     22  C   UNL     1      -6.144 -11.165  13.577  0.00  0.00    +0.008 A 
ATOM     23  C   UNL     1      -6.684 -11.353  15.886  0.00  0.00    +0.115 A 
ATOM     24  C   UNL     1      -7.238 -10.320  13.421  0.00  0.00    +0.020 A 
ATOM     26  C   UNL     1      -8.005 -10.039  14.540  0.00  0.00    +0.111 A 
ENDBRANCH  13  18
ENDBRANCH   6  13
TORSDOF 7
ENDMDL
MODEL 6
REMARK VINA RESULT:      -6.3     26.669     30.450
REMARK  Name = 71693437
REMARK  9 active torsions:
REMARK  status: ('A' for Active; 'I' for Inactive)
REMARK    1  A    between atoms: O_2  and  C_11
REMARK    2  A    between atoms: N_6  and  C_13
REMARK    3  A    between atoms: N_7  and  C_21
REMARK    4  A    between atoms: C_9  and  C_11
REMARK    5  A    between atoms: C_10  and  C_12
REMARK    6  A    between atoms: C_13  and  C_18
REMARK    7  A    between atoms: C_25  and  C_27
REMARK    8  A    between atoms: C_28  and  C_31
REMARK    9  A    between atoms: C_30  and  C_32
REMARK                            x       y       z     vdW  Elec       q    Type
REMARK                         _______ _______ _______ _____ _____    ______ ____
ROOT
ATOM      1  O   UNL     1      -1.684 -10.051  14.018  0.00  0.00    -0.361 OA
ATOM      3  O   UNL     1      -2.224 -10.778  17.317  0.00  0.00    -0.273 OA
ATOM      6  N   UNL     1      -3.140 -11.832  15.447  0.00  0.00    -0.287 N 
ATOM      9  C   UNL     1      -2.922 -12.223  14.050  0.00  0.00    +0.135 C 
ATOM     10  C   UNL     1      -2.290 -11.074  13.220  0.00  0.00    +0.171 C 
ATOM     14  C   UNL     1      -2.208 -11.044  16.118  0.00  0.00    +0.242 C 
ATOM     15  C   UNL     1      -1.110 -10.528  15.217  0.00  0.00    +0.256 C 
ENDROOT
BRANCH  10  12
ATOM     12  C   UNL     1      -3.325 -10.400  12.340  0.00  0.00    -0.017 A 
ATOM     16  C   UNL     1      -4.641 -10.268  12.785  0.00  0.00    +0.008 A 
ATOM     17  C   UNL     1      -2.961  -9.911  11.085  0.00  0.00    +0.008 A 
ATOM     19  C   UNL     1      -5.592  -9.647  11.974  0.00  0.00    +0.023 A 
ATOM     20  C   UNL     1      -3.911  -9.290  10.276  0.00  0.00    +0.023 A 
ATOM     21  C   UNL     1      -5.227  -9.159  10.720  0.00  0.00    +0.034 A 
BRANCH  21   7
ATOM      5  O   UNL     1      -6.641 -10.163   8.275  0.00  0.00    -0.270 OA
ATOM      7  N   UNL     1      -6.179  -8.538   9.910  0.00  0.00    -0.281 N 
ATOM     25  C   UNL     1      -6.812  -9.055   8.772  0.00  0.00    +0.252 C 
ATOM     34  H   UNL     1      -6.429  -7.598  10.204  0.00  0.00    +0.155 HD
BRANCH  25  27
ATOM      4  O   UNL     1      -8.939  -7.051   6.535  0.00  0.00    -0.464 OA
ATOM     27  C   UNL     1      -7.809  -8.155   8.134  0.00  0.00    +0.078 A 
ATOM     28  C   UNL     1      -7.927  -7.923   6.783  0.00  0.00    +0.114 A 
ATOM     29  C   UNL     1      -8.815  -7.377   8.756  0.00  0.00    +0.057 A 
ATOM     30  C   UNL     1      -9.474  -6.723   7.741  0.00  0.00    +0.103 A 
ATOM     31  C   UNL     1      -7.197  -8.416   5.605  0.00  0.00    +0.087 C 
ATOM     32  C   UNL     1     -10.600  -5.779   7.716  0.00  0.00    +0.086 C 
ENDBRANCH  25  27
ENDBRANCH  21   7
ENDBRANCH  10  12
BRANCH   9  11
ATOM     11  C   UNL     1      -2.069 -13.496  13.972  0.00  0.00    +0.181 C 
BRANCH  11   2
ATOM      2  O   UNL     1      -1.095 -13.313  12.965  0.00  0.00    -0.393 OA
ATOM     33  H   UNL     1      -1.490 -13.602  12.124  0.00  0.00    +0.209 HD
ENDBRANCH  11   2
ENDBRANCH   9  11
BRANCH   6  13
ATOM     13  C   UNL     1      -4.283 -12.398  16.146  0.00  0.00    +0.145 C 
BRANCH  13  18
ATOM      8  N   UNL     1      -7.754 -11.273  15.158  0.00  0.00    -0.263 NA
ATOM     18  C   UNL     1      -5.507 -11.540  16.008  0.00  0.00    -0.012 A 
ATOM     22  C   UNL     1      -5.559 -10.268  16.565  0.00  0.00    +0.008 A 
ATOM     23  C   UNL     1      -6.622 -11.993  15.320  0.00  0.00    +0.115 A 
ATOM     24  C   UNL     1      -6.707  -9.497  16.420  0.00  0.00    +0.020 A 
ATOM     26  C   UNL     1      -7.768 -10.040  15.714  0.00  0.00    +0.111 A 
ENDBRANCH  13  18
ENDBRANCH   6  13
TORSDOF 7
ENDMDL
MODEL 7
REMARK VINA RESULT:      -6.3     27.854     31.405
REMARK  Name = 71693437
REMARK  9 active torsions:
REMARK  status: ('A' for Active; 'I' for Inactive)
REMARK    1  A    between atoms: O_2  and  C_11
REMARK    2  A    between atoms: N_6  and  C_13
REMARK    3  A    between atoms: N_7  and  C_21
REMARK    4  A    between atoms: C_9  and  C_11
REMARK    5  A    between atoms: C_10  and  C_12
REMARK    6  A    between atoms: C_13  and  C_18
REMARK    7  A    between atoms: C_25  and  C_27
REMARK    8  A    between atoms: C_28  and  C_31
REMARK    9  A    between atoms: C_30  and  C_32
REMARK                            x       y       z     vdW  Elec       q    Type
REMARK                         _______ _______ _______ _____ _____    ______ ____
ROOT
ATOM      1  O   UNL     1     -10.762   7.698  17.520  0.00  0.00    -0.361 OA
ATOM      3  O   UNL     1     -12.047   8.389  14.426  0.00  0.00    -0.273 OA
ATOM      6  N   UNL     1     -12.496   9.476  16.441  0.00  0.00    -0.287 N 
ATOM      9  C   UNL     1     -11.957   9.883  17.744  0.00  0.00    +0.135 C 
ATOM     10  C   UNL     1     -11.159   8.738  18.421  0.00  0.00    +0.171 C 
ATOM     14  C   UNL     1     -11.751   8.670  15.585  0.00  0.00    +0.242 C 
ATOM     15  C   UNL     1     -10.478   8.154  16.214  0.00  0.00    +0.256 C 
ENDROOT
BRANCH  10  12
ATOM     12  C   UNL     1     -11.966   8.085  19.527  0.00  0.00    -0.017 A 
ATOM     16  C   UNL     1     -11.462   6.969  20.195  0.00  0.00    +0.008 A 
ATOM     17  C   UNL     1     -13.214   8.602  19.878  0.00  0.00    +0.008 A 
ATOM     19  C   UNL     1     -12.205   6.370  21.213  0.00  0.00    +0.023 A 
ATOM     20  C   UNL     1     -13.956   8.004  20.895  0.00  0.00    +0.023 A 
ATOM     21  C   UNL     1     -13.453   6.887  21.562  0.00  0.00    +0.034 A 
BRANCH  21   7
ATOM      5  O   UNL     1     -15.531   4.732  21.431  0.00  0.00    -0.270 OA
ATOM      7  N   UNL     1     -14.195   6.288  22.580  0.00  0.00    -0.281 N 
ATOM     25  C   UNL     1     -15.160   5.279  22.464  0.00  0.00    +0.252 C 
ATOM     34  H   UNL     1     -13.991   6.642  23.511  0.00  0.00    +0.155 HD
BRANCH  25  27
ATOM      4  O   UNL     1     -17.143   4.739  25.516  0.00  0.00    -0.464 OA
ATOM     27  C   UNL     1     -15.762   4.823  23.744  0.00  0.00    +0.078 A 
ATOM     28  C   UNL     1     -16.849   5.396  24.364  0.00  0.00    +0.114 A 
ATOM     29  C   UNL     1     -15.365   3.743  24.568  0.00  0.00    +0.057 A 
ATOM     30  C   UNL     1     -16.235   3.734  25.633  0.00  0.00    +0.103 A 
ATOM     31  C   UNL     1     -17.716   6.538  24.034  0.00  0.00    +0.087 C 
ATOM     32  C   UNL     1     -16.364   2.877  26.820  0.00  0.00    +0.086 C 
ENDBRANCH  25  27
ENDBRANCH  21   7
ENDBRANCH  10  12
BRANCH   9  11
ATOM     11  C   UNL     1     -11.100  11.147  17.604  0.00  0.00    +0.181 C 
BRANCH  11   2
ATOM      2  O   UNL     1      -9.789  10.841  18.031  0.00  0.00    -0.393 OA
ATOM     33  H   UNL     1      -9.247  11.637  17.895  0.00  0.00    +0.209 HD
ENDBRANCH  11   2
ENDBRANCH   9  11
BRANCH   6  13
ATOM     13  C   UNL     1     -13.766  10.045  16.018  0.00  0.00    +0.145 C 
BRANCH  13  18
ATOM      8  N   UNL     1     -16.744   9.916  18.344  0.00  0.00    -0.263 NA
ATOM     18  C   UNL     1     -14.918   9.504  16.814  0.00  0.00    -0.012 A 
ATOM     22  C   UNL     1     -15.238   8.152  16.784  0.00  0.00    +0.008 A 
ATOM     23  C   UNL     1     -15.695  10.338  17.603  0.00  0.00    +0.115 A 
ATOM     24  C   UNL     1     -16.311   7.680  17.534  0.00  0.00    +0.020 A 
ATOM     26  C   UNL     1     -17.026   8.595  18.290  0.00  0.00    +0.111 A 
ENDBRANCH  13  18
ENDBRANCH   6  13
TORSDOF 7
ENDMDL
MODEL 8
REMARK VINA RESULT:      -6.3     27.458     31.092
REMARK  Name = 71693437
REMARK  9 active torsions:
REMARK  status: ('A' for Active; 'I' for Inactive)
REMARK    1  A    between atoms: O_2  and  C_11
REMARK    2  A    between atoms: N_6  and  C_13
REMARK    3  A    between atoms: N_7  and  C_21
REMARK    4  A    between atoms: C_9  and  C_11
REMARK    5  A    between atoms: C_10  and  C_12
REMARK    6  A    between atoms: C_13  and  C_18
REMARK    7  A    between atoms: C_25  and  C_27
REMARK    8  A    between atoms: C_28  and  C_31
REMARK    9  A    between atoms: C_30  and  C_32
REMARK                            x       y       z     vdW  Elec       q    Type
REMARK                         _______ _______ _______ _____ _____    ______ ____
ROOT
ATOM      1  O   UNL     1     -13.529   8.674  17.006  0.00  0.00    -0.361 OA
ATOM      3  O   UNL     1     -13.038  12.021  16.491  0.00  0.00    -0.273 OA
ATOM      6  N   UNL     1     -11.844  10.596  17.901  0.00  0.00    -0.287 N 
ATOM      9  C   UNL     1     -11.354   9.229  18.108  0.00  0.00    +0.135 C 
ATOM     10  C   UNL     1     -12.445   8.171  17.795  0.00  0.00    +0.171 C 
ATOM     14  C   UNL     1     -12.686  10.895  16.833  0.00  0.00    +0.242 C 
ATOM     15  C   UNL     1     -13.145   9.669  16.079  0.00  0.00    +0.256 C 
ENDROOT
BRANCH  10  12
ATOM     12  C   UNL     1     -13.045   7.608  19.069  0.00  0.00    -0.017 A 
ATOM     16  C   UNL     1     -12.216   7.067  20.052  0.00  0.00    +0.008 A 
ATOM     17  C   UNL     1     -14.427   7.631  19.259  0.00  0.00    +0.008 A 
ATOM     19  C   UNL     1     -12.769   6.550  21.224  0.00  0.00    +0.023 A 
ATOM     20  C   UNL     1     -14.979   7.114  20.430  0.00  0.00    +0.023 A 
ATOM     21  C   UNL     1     -14.151   6.573  21.413  0.00  0.00    +0.034 A 
BRANCH  21   7
ATOM      5  O   UNL     1     -16.050   4.290  21.816  0.00  0.00    -0.270 OA
ATOM      7  N   UNL     1     -14.703   6.056  22.586  0.00  0.00    -0.281 N 
ATOM     25  C   UNL     1     -15.591   4.981  22.718  0.00  0.00    +0.252 C 
ATOM     34  H   UNL     1     -14.407   6.532  23.433  0.00  0.00    +0.155 HD
BRANCH  25  27
ATOM      4  O   UNL     1     -16.999   4.788  26.113  0.00  0.00    -0.464 OA
ATOM     27  C   UNL     1     -15.981   4.647  24.114  0.00  0.00    +0.078 A 
ATOM     28  C   UNL     1     -16.864   5.363  24.889  0.00  0.00    +0.114 A 
ATOM     29  C   UNL     1     -15.548   3.562  24.912  0.00  0.00    +0.057 A 
ATOM     30  C   UNL     1     -16.195   3.692  26.119  0.00  0.00    +0.103 A 
ATOM     31  C   UNL     1     -17.656   6.581  24.659  0.00  0.00    +0.087 C 
ATOM     32  C   UNL     1     -16.181   2.903  27.359  0.00  0.00    +0.086 C 
ENDBRANCH  25  27
ENDBRANCH  21   7
ENDBRANCH  10  12
BRANCH   9  11
ATOM     11  C   UNL     1     -10.086   8.977  17.282  0.00  0.00    +0.181 C 
BRANCH  11   2
ATOM      2  O   UNL     1     -10.166   7.676  16.736  0.00  0.00    -0.393 OA
ATOM     33  H   UNL     1     -10.634   7.747  15.887  0.00  0.00    +0.209 HD
ENDBRANCH  11   2
ENDBRANCH   9  11
BRANCH   6  13
ATOM     13  C   UNL     1     -11.320  11.648  18.758  0.00  0.00    +0.145 C 
BRANCH  13  18
ATOM      8  N   UNL     1     -13.780  12.990  21.297  0.00  0.00    -0.263 NA
ATOM     18  C   UNL     1     -12.112  11.786  20.026  0.00  0.00    -0.012 A 
ATOM     22  C   UNL     1     -11.942  10.896  21.079  0.00  0.00    +0.008 A 
ATOM     23  C   UNL     1     -13.036  12.808  20.183  0.00  0.00    +0.115 A 
ATOM     24  C   UNL     1     -12.689  11.051  22.242  0.00  0.00    +0.020 A 
ATOM     26  C   UNL     1     -13.587  12.104  22.300  0.00  0.00    +0.111 A 
ENDBRANCH  13  18
ENDBRANCH   6  13
TORSDOF 7
ENDMDL
MODEL 9
REMARK VINA RESULT:      -6.2     26.851     31.234
REMARK  Name = 71693437
REMARK  9 active torsions:
REMARK  status: ('A' for Active; 'I' for Inactive)
REMARK    1  A    between atoms: O_2  and  C_11
REMARK    2  A    between atoms: N_6  and  C_13
REMARK    3  A    between atoms: N_7  and  C_21
REMARK    4  A    between atoms: C_9  and  C_11
REMARK    5  A    between atoms: C_10  and  C_12
REMARK    6  A    between atoms: C_13  and  C_18
REMARK    7  A    between atoms: C_25  and  C_27
REMARK    8  A    between atoms: C_28  and  C_31
REMARK    9  A    between atoms: C_30  and  C_32
REMARK                            x       y       z     vdW  Elec       q    Type
REMARK                         _______ _______ _______ _____ _____    ______ ____
ROOT
ATOM      1  O   UNL     1      -3.534 -13.300  15.080  0.00  0.00    -0.361 OA
ATOM      3  O   UNL     1      -2.743 -12.976  11.767  0.00  0.00    -0.273 OA
ATOM      6  N   UNL     1      -3.088 -11.280  13.333  0.00  0.00    -0.287 N 
ATOM      9  C   UNL     1      -2.965 -10.889  14.741  0.00  0.00    +0.135 C 
ATOM     10  C   UNL     1      -3.453 -12.010  15.697  0.00  0.00    +0.171 C 
ATOM     14  C   UNL     1      -2.806 -12.582  12.930  0.00  0.00    +0.242 C 
ATOM     15  C   UNL     1      -2.554 -13.520  14.087  0.00  0.00    +0.256 C 
ENDROOT
BRANCH  10  12
ATOM     12  C   UNL     1      -4.827 -11.695  16.255  0.00  0.00    -0.017 A 
ATOM     16  C   UNL     1      -4.957 -10.842  17.352  0.00  0.00    +0.008 A 
ATOM     17  C   UNL     1      -5.963 -12.257  15.672  0.00  0.00    +0.008 A 
ATOM     19  C   UNL     1      -6.222 -10.552  17.864  0.00  0.00    +0.023 A 
ATOM     20  C   UNL     1      -7.227 -11.967  16.183  0.00  0.00    +0.023 A 
ATOM     21  C   UNL     1      -7.357 -11.115  17.280  0.00  0.00    +0.034 A 
BRANCH  21   7
ATOM      5  O   UNL     1      -8.938  -8.569  17.208  0.00  0.00    -0.270 OA
ATOM      7  N   UNL     1      -8.622 -10.825  17.793  0.00  0.00    -0.281 N 
ATOM     25  C   UNL     1      -9.319  -9.611  17.732  0.00  0.00    +0.252 C 
ATOM     34  H   UNL     1      -9.073 -11.606  18.261  0.00  0.00    +0.155 HD
BRANCH  25  27
ATOM      4  O   UNL     1     -12.893  -9.371  18.573  0.00  0.00    -0.464 OA
ATOM     27  C   UNL     1     -10.671  -9.622  18.351  0.00  0.00    +0.078 A 
ATOM     28  C   UNL     1     -11.837  -9.241  17.729  0.00  0.00    +0.114 A 
ATOM     29  C   UNL     1     -11.034 -10.012  19.662  0.00  0.00    +0.057 A 
ATOM     30  C   UNL     1     -12.396  -9.840  19.748  0.00  0.00    +0.103 A 
ATOM     31  C   UNL     1     -12.148  -8.740  16.381  0.00  0.00    +0.087 C 
ATOM     32  C   UNL     1     -13.372 -10.063  20.825  0.00  0.00    +0.086 C 
ENDBRANCH  25  27
ENDBRANCH  21   7
ENDBRANCH  10  12
BRANCH   9  11
ATOM     11  C   UNL     1      -1.523 -10.476  15.064  0.00  0.00    +0.181 C 
BRANCH  11   2
ATOM      2  O   UNL     1      -1.184 -11.009  16.328  0.00  0.00    -0.393 OA
ATOM     33  H   UNL     1      -0.393 -10.536  16.638  0.00  0.00    +0.209 HD
ENDBRANCH  11   2
ENDBRANCH   9  11
BRANCH   6  13
ATOM     13  C   UNL     1      -3.382 -10.241  12.357  0.00  0.00    +0.145 C 
BRANCH  13  18
ATOM      8  N   UNL     1      -6.656 -10.479  10.483  0.00  0.00    -0.263 NA
ATOM     18  C   UNL     1      -4.850 -10.152  12.055  0.00  0.00    -0.012 A 
ATOM     22  C   UNL     1      -5.750  -9.683  13.003  0.00  0.00    +0.008 A 
ATOM     23  C   UNL     1      -5.349 -10.535  10.819  0.00  0.00    +0.115 A 
ATOM     24  C   UNL     1      -7.104  -9.611  12.694  0.00  0.00    +0.020 A 
ATOM     26  C   UNL     1      -7.503 -10.018  11.431  0.00  0.00    +0.111 A 
ENDBRANCH  13  18
ENDBRANCH   6  13
TORSDOF 7
ENDMDL
MODEL 10
REMARK VINA RESULT:      -6.2     28.798     31.970
REMARK  Name = 71693437
REMARK  9 active torsions:
REMARK  status: ('A' for Active; 'I' for Inactive)
REMARK    1  A    between atoms: O_2  and  C_11
REMARK    2  A    between atoms: N_6  and  C_13
REMARK    3  A    between atoms: N_7  and  C_21
REMARK    4  A    between atoms: C_9  and  C_11
REMARK    5  A    between atoms: C_10  and  C_12
REMARK    6  A    between atoms: C_13  and  C_18
REMARK    7  A    between atoms: C_25  and  C_27
REMARK    8  A    between atoms: C_28  and  C_31
REMARK    9  A    between atoms: C_30  and  C_32
REMARK                            x       y       z     vdW  Elec       q    Type
REMARK                         _______ _______ _______ _____ _____    ______ ____
ROOT
ATOM      1  O   UNL     1      -7.980 -12.494  17.182  0.00  0.00    -0.361 OA
ATOM      3  O   UNL     1      -4.953 -13.548  15.984  0.00  0.00    -0.273 OA
ATOM      6  N   UNL     1      -5.513 -11.440  16.814  0.00  0.00    -0.287 N 
ATOM      9  C   UNL     1      -6.345 -10.695  17.765  0.00  0.00    +0.135 C 
ATOM     10  C   UNL     1      -7.813 -11.197  17.766  0.00  0.00    +0.171 C 
ATOM     14  C   UNL     1      -5.682 -12.812  16.645  0.00  0.00    +0.242 C 
ATOM     15  C   UNL     1      -6.880 -13.357  17.386  0.00  0.00    +0.256 C 
ENDROOT
BRANCH  10  12
ATOM     12  C   UNL     1      -8.718 -10.246  17.007  0.00  0.00    -0.017 A 
ATOM     16  C   UNL     1      -9.450 -10.703  15.911  0.00  0.00    +0.008 A 
ATOM     17  C   UNL     1      -8.820  -8.913  17.406  0.00  0.00    +0.008 A 
ATOM     19  C   UNL     1     -10.283  -9.827  15.214  0.00  0.00    +0.023 A 
ATOM     20  C   UNL     1      -9.653  -8.038  16.710  0.00  0.00    +0.023 A 
ATOM     21  C   UNL     1     -10.385  -8.495  15.613  0.00  0.00    +0.034 A 
BRANCH  21   7
ATOM      5  O   UNL     1     -11.220  -5.689  16.258  0.00  0.00    -0.270 OA
ATOM      7  N   UNL     1     -11.218  -7.619  14.916  0.00  0.00    -0.281 N 
ATOM     25  C   UNL     1     -11.578  -6.311  15.264  0.00  0.00    +0.252 C 
ATOM     34  H   UNL     1     -11.595  -8.000  14.053  0.00  0.00    +0.155 HD
BRANCH  25  27
ATOM      4  O   UNL     1     -14.337  -5.012  13.203  0.00  0.00    -0.464 OA
ATOM     27  C   UNL     1     -12.467  -5.617  14.295  0.00  0.00    +0.078 A 
ATOM     28  C   UNL     1     -13.826  -5.799  14.186  0.00  0.00    +0.114 A 
ATOM     29  C   UNL     1     -12.120  -4.654  13.317  0.00  0.00    +0.057 A 
ATOM     30  C   UNL     1     -13.292  -4.319  12.678  0.00  0.00    +0.103 A 
ATOM     31  C   UNL     1     -14.793  -6.649  14.898  0.00  0.00    +0.087 C 
ATOM     32  C   UNL     1     -13.611  -3.389  11.586  0.00  0.00    +0.086 C 
ENDBRANCH  25  27
ENDBRANCH  21   7
ENDBRANCH  10  12
BRANCH   9  11
ATOM     11  C   UNL     1      -5.740 -10.753  19.174  0.00  0.00    +0.181 C 
BRANCH  11   2
ATOM      2  O   UNL     1      -6.613 -10.081  20.057  0.00  0.00    -0.393 OA
ATOM     33  H   UNL     1      -7.459 -10.561  20.050  0.00  0.00    +0.209 HD
ENDBRANCH  11   2
ENDBRANCH   9  11
BRANCH   6  13
ATOM     13  C   UNL     1      -4.425 -10.733  16.156  0.00  0.00    +0.145 C 
BRANCH  13  18
ATOM      8  N   UNL     1      -3.994 -10.384  12.416  0.00  0.00    -0.263 NA
ATOM     18  C   UNL     1      -4.734 -10.439  14.717  0.00  0.00    -0.012 A 
ATOM     22  C   UNL     1      -5.983  -9.966  14.334  0.00  0.00    +0.008 A 
ATOM     23  C   UNL     1      -3.781 -10.630  13.728  0.00  0.00    +0.115 A 
ATOM     24  C   UNL     1      -6.240  -9.702  12.993  0.00  0.00    +0.020 A 
ATOM     26  C   UNL     1      -5.221  -9.925  12.081  0.00  0.00    +0.111 A 
ENDBRANCH  13  18
ENDBRANCH   6  13
TORSDOF 7
ENDMDL
