MODEL 1
REMARK VINA RESULT:      -7.8      0.000      0.000
REMARK  Name = 40533400
REMARK  3 active torsions:
REMARK  status: ('A' for Active; 'I' for Inactive)
REMARK    1  A    between atoms: N_3  and  C_13
REMARK    2  A    between atoms: C_13  and  C_18
REMARK    3  A    between atoms: C_16  and  C_19
REMARK                            x       y       z     vdW  Elec       q    Type
REMARK                         _______ _______ _______ _____ _____    ______ ____
ROOT
ATOM      2  O   UNL     1      13.891  11.228  22.510  0.00  0.00    -0.267 OA
ATOM      3  N   UNL     1      13.511   8.192  18.537  0.00  0.00    -0.294 NA
ATOM      4  N   UNL     1      13.494   9.124  21.587  0.00  0.00    -0.311 N 
ATOM      6  C   UNL     1      15.276   7.826  20.279  0.00  0.00    +0.024 C 
ATOM      7  C   UNL     1      13.052   6.853  20.595  0.00  0.00    +0.050 C 
ATOM      8  C   UNL     1      14.544   6.595  20.793  0.00  0.00    +0.017 C 
ATOM      9  C   UNL     1      14.951   8.053  18.787  0.00  0.00    +0.090 C 
ATOM     10  C   UNL     1      12.758   7.057  19.092  0.00  0.00    +0.094 C 
ATOM     11  C   UNL     1      14.896   9.029  21.155  0.00  0.00    +0.130 C 
ATOM     12  C   UNL     1      12.605   8.064  21.394  0.00  0.00    +0.026 A 
ATOM     14  C   UNL     1      11.362   8.126  21.894  0.00  0.00    +0.022 A 
ATOM     15  C   UNL     1      13.126  10.288  22.291  0.00  0.00    +0.259 A 
ATOM     16  C   UNL     1      11.714  10.344  22.810  0.00  0.00    +0.048 A 
ATOM     17  C   UNL     1      10.912   9.289  22.608  0.00  0.00    +0.015 A 
ENDROOT
BRANCH  16  19
ATOM      5  N   UNL     1      10.605  12.585  25.612  0.00  0.00    -0.263 NA
ATOM     19  C   UNL     1      11.209  11.531  23.521  0.00  0.00    +0.005 A 
ATOM     23  C   UNL     1      10.866  12.689  22.831  0.00  0.00    +0.011 A 
ATOM     24  C   UNL     1      11.062  11.531  24.899  0.00  0.00    +0.119 A 
ATOM     27  C   UNL     1      10.392  13.794  23.529  0.00  0.00    +0.020 A 
ATOM     30  C   UNL     1      10.281  13.691  24.906  0.00  0.00    +0.111 A 
ENDBRANCH  16  19
BRANCH   3  13
ATOM     13  C   UNL     1      13.242   8.351  17.109  0.00  0.00    +0.158 C 
BRANCH  13  18
ATOM      1  O   UNL     1      14.462   9.556  15.384  0.00  0.00    -0.458 OA
ATOM     18  C   UNL     1      13.808   9.639  16.572  0.00  0.00    +0.120 A 
ATOM     20  C   UNL     1      13.808  10.932  17.040  0.00  0.00    +0.054 A 
ATOM     21  C   UNL     1      14.509  11.706  16.079  0.00  0.00    +0.020 A 
ATOM     22  C   UNL     1      14.891  10.814  15.081  0.00  0.00    +0.135 A 
ATOM     25  C   UNL     1      14.864  13.060  15.941  0.00  0.00    +0.011 A 
ATOM     26  C   UNL     1      15.607  11.177  13.942  0.00  0.00    +0.047 A 
ATOM     28  C   UNL     1      15.586  13.454  14.806  0.00  0.00    +0.001 A 
ATOM     29  C   UNL     1      15.948  12.526  13.825  0.00  0.00    +0.004 A 
ENDBRANCH  13  18
ENDBRANCH   3  13
TORSDOF 3
ENDMDL
MODEL 2
REMARK VINA RESULT:      -7.4     26.869     29.450
REMARK  Name = 40533400
REMARK  3 active torsions:
REMARK  status: ('A' for Active; 'I' for Inactive)
REMARK    1  A    between atoms: N_3  and  C_13
REMARK    2  A    between atoms: C_13  and  C_18
REMARK    3  A    between atoms: C_16  and  C_19
REMARK                            x       y       z     vdW  Elec       q    Type
REMARK                         _______ _______ _______ _____ _____    ______ ____
ROOT
ATOM      2  O   UNL     1      -6.133 -11.694  10.995  0.00  0.00    -0.267 OA
ATOM      3  N   UNL     1      -3.107 -10.981  14.931  0.00  0.00    -0.294 NA
ATOM      4  N   UNL     1      -4.001 -11.616  11.935  0.00  0.00    -0.311 N 
ATOM      6  C   UNL     1      -3.248 -13.212  13.795  0.00  0.00    +0.024 C 
ATOM      7  C   UNL     1      -1.696 -11.522  12.942  0.00  0.00    +0.050 C 
ATOM      8  C   UNL     1      -1.862 -13.018  13.197  0.00  0.00    +0.017 C 
ATOM      9  C   UNL     1      -3.375 -12.413  15.110  0.00  0.00    +0.090 C 
ATOM     10  C   UNL     1      -1.809 -10.755  14.278  0.00  0.00    +0.094 C 
ATOM     11  C   UNL     1      -4.298 -12.801  12.753  0.00  0.00    +0.130 C 
ATOM     12  C   UNL     1      -2.735 -11.025  11.954  0.00  0.00    +0.026 A 
ATOM     14  C   UNL     1      -2.450 -10.015  11.118  0.00  0.00    +0.022 A 
ATOM     15  C   UNL     1      -5.017 -11.176  11.064  0.00  0.00    +0.259 A 
ATOM     16  C   UNL     1      -4.679 -10.018  10.163  0.00  0.00    +0.048 A 
ATOM     17  C   UNL     1      -3.443  -9.503  10.215  0.00  0.00    +0.015 A 
ENDROOT
BRANCH  16  19
ATOM      5  N   UNL     1      -6.667  -9.402   7.037  0.00  0.00    -0.263 NA
ATOM     19  C   UNL     1      -5.681  -9.449   9.244  0.00  0.00    +0.005 A 
ATOM     23  C   UNL     1      -6.564  -8.462   9.668  0.00  0.00    +0.011 A 
ATOM     24  C   UNL     1      -5.773  -9.881   7.931  0.00  0.00    +0.119 A 
ATOM     27  C   UNL     1      -7.498  -7.944   8.778  0.00  0.00    +0.020 A 
ATOM     30  C   UNL     1      -7.508  -8.442   7.486  0.00  0.00    +0.111 A 
ENDBRANCH  16  19
BRANCH   3  13
ATOM     13  C   UNL     1      -3.184 -10.271  16.205  0.00  0.00    +0.158 C 
BRANCH  13  18
ATOM      1  O   UNL     1      -5.530  -9.629  16.129  0.00  0.00    -0.458 OA
ATOM     18  C   UNL     1      -4.569 -10.323  16.794  0.00  0.00    +0.120 A 
ATOM     20  C   UNL     1      -5.096 -10.944  17.903  0.00  0.00    +0.054 A 
ATOM     21  C   UNL     1      -6.476 -10.615  17.928  0.00  0.00    +0.020 A 
ATOM     22  C   UNL     1      -6.693  -9.806  16.817  0.00  0.00    +0.135 A 
ATOM     25  C   UNL     1      -7.566 -10.911  18.766  0.00  0.00    +0.011 A 
ATOM     26  C   UNL     1      -7.930  -9.264  16.475  0.00  0.00    +0.047 A 
ATOM     28  C   UNL     1      -8.823 -10.378  18.447  0.00  0.00    +0.001 A 
ATOM     29  C   UNL     1      -8.999  -9.570  17.321  0.00  0.00    +0.004 A 
ENDBRANCH  13  18
ENDBRANCH   3  13
TORSDOF 3
ENDMDL
MODEL 3
REMARK VINA RESULT:      -7.3     25.345     27.178
REMARK  Name = 40533400
REMARK  3 active torsions:
REMARK  status: ('A' for Active; 'I' for Inactive)
REMARK    1  A    between atoms: N_3  and  C_13
REMARK    2  A    between atoms: C_13  and  C_18
REMARK    3  A    between atoms: C_16  and  C_19
REMARK                            x       y       z     vdW  Elec       q    Type
REMARK                         _______ _______ _______ _____ _____    ______ ____
ROOT
ATOM      2  O   UNL     1     -14.905   9.053  19.878  0.00  0.00    -0.267 OA
ATOM      3  N   UNL     1     -11.255   9.336  16.450  0.00  0.00    -0.294 NA
ATOM      4  N   UNL     1     -12.660   9.328  19.314  0.00  0.00    -0.311 N 
ATOM      6  C   UNL     1     -11.816  11.298  17.907  0.00  0.00    +0.024 C 
ATOM      7  C   UNL     1     -10.232   9.614  18.712  0.00  0.00    +0.050 C 
ATOM      8  C   UNL     1     -10.524  11.112  18.690  0.00  0.00    +0.017 C 
ATOM      9  C   UNL     1     -11.651  10.749  16.473  0.00  0.00    +0.090 C 
ATOM     10  C   UNL     1     -10.054   9.101  17.266  0.00  0.00    +0.094 C 
ATOM     11  C   UNL     1     -12.960  10.616  18.671  0.00  0.00    +0.130 C 
ATOM     12  C   UNL     1     -11.347   8.858  19.411  0.00  0.00    +0.026 A 
ATOM     14  C   UNL     1     -11.082   7.738  20.099  0.00  0.00    +0.022 A 
ATOM     15  C   UNL     1     -13.741   8.652  19.913  0.00  0.00    +0.259 A 
ATOM     16  C   UNL     1     -13.416   7.379  20.649  0.00  0.00    +0.048 A 
ATOM     17  C   UNL     1     -12.137   6.987  20.721  0.00  0.00    +0.015 A 
ENDROOT
BRANCH  16  19
ATOM      5  N   UNL     1     -16.347   5.060  21.014  0.00  0.00    -0.263 NA
ATOM     19  C   UNL     1     -14.476   6.569  21.274  0.00  0.00    +0.005 A 
ATOM     23  C   UNL     1     -14.623   6.525  22.656  0.00  0.00    +0.011 A 
ATOM     24  C   UNL     1     -15.355   5.825  20.504  0.00  0.00    +0.119 A 
ATOM     27  C   UNL     1     -15.633   5.751  23.218  0.00  0.00    +0.020 A 
ATOM     30  C   UNL     1     -16.461   5.044  22.361  0.00  0.00    +0.111 A 
ENDBRANCH  16  19
BRANCH   3  13
ATOM     13  C   UNL     1     -11.057   8.870  15.079  0.00  0.00    +0.158 C 
BRANCH  13  18
ATOM      1  O   UNL     1     -13.365   8.153  15.357  0.00  0.00    -0.458 OA
ATOM     18  C   UNL     1     -12.274   8.162  14.547  0.00  0.00    +0.120 A 
ATOM     20  C   UNL     1     -12.533   7.494  13.372  0.00  0.00    +0.054 A 
ATOM     21  C   UNL     1     -13.876   7.040  13.457  0.00  0.00    +0.020 A 
ATOM     22  C   UNL     1     -14.343   7.470  14.696  0.00  0.00    +0.135 A 
ATOM     25  C   UNL     1     -14.747   6.314  12.627  0.00  0.00    +0.011 A 
ATOM     26  C   UNL     1     -15.630   7.229  15.173  0.00  0.00    +0.047 A 
ATOM     28  C   UNL     1     -16.048   6.054  13.081  0.00  0.00    +0.001 A 
ATOM     29  C   UNL     1     -16.479   6.505  14.331  0.00  0.00    +0.004 A 
ENDBRANCH  13  18
ENDBRANCH   3  13
TORSDOF 3
ENDMDL
MODEL 4
REMARK VINA RESULT:      -7.2      1.936      2.316
REMARK  Name = 40533400
REMARK  3 active torsions:
REMARK  status: ('A' for Active; 'I' for Inactive)
REMARK    1  A    between atoms: N_3  and  C_13
REMARK    2  A    between atoms: C_13  and  C_18
REMARK    3  A    between atoms: C_16  and  C_19
REMARK                            x       y       z     vdW  Elec       q    Type
REMARK                         _______ _______ _______ _____ _____    ______ ____
ROOT
ATOM      2  O   UNL     1      14.908  10.113  22.922  0.00  0.00    -0.267 OA
ATOM      3  N   UNL     1      12.235   8.591  18.962  0.00  0.00    -0.294 NA
ATOM      4  N   UNL     1      13.009   9.115  22.012  0.00  0.00    -0.311 N 
ATOM      6  C   UNL     1      13.102   6.948  20.645  0.00  0.00    +0.024 C 
ATOM      7  C   UNL     1      10.949   8.047  21.033  0.00  0.00    +0.050 C 
ATOM      8  C   UNL     1      11.695   6.724  21.181  0.00  0.00    +0.017 C 
ATOM      9  C   UNL     1      13.042   7.382  19.165  0.00  0.00    +0.090 C 
ATOM     10  C   UNL     1      10.891   8.443  19.541  0.00  0.00    +0.094 C 
ATOM     11  C   UNL     1      13.812   7.980  21.534  0.00  0.00    +0.130 C 
ATOM     12  C   UNL     1      11.621   9.138  21.847  0.00  0.00    +0.026 A 
ATOM     14  C   UNL     1      10.895  10.127  22.389  0.00  0.00    +0.022 A 
ATOM     15  C   UNL     1      13.692  10.117  22.728  0.00  0.00    +0.259 A 
ATOM     16  C   UNL     1      12.854  11.233  23.294  0.00  0.00    +0.048 A 
ATOM     17  C   UNL     1      11.526  11.192  23.117  0.00  0.00    +0.015 A 
ENDROOT
BRANCH  16  19
ATOM      5  N   UNL     1      14.498  14.543  23.958  0.00  0.00    -0.263 NA
ATOM     19  C   UNL     1      13.470  12.356  24.022  0.00  0.00    +0.005 A 
ATOM     23  C   UNL     1      13.612  12.321  25.405  0.00  0.00    +0.011 A 
ATOM     24  C   UNL     1      13.925  13.479  23.351  0.00  0.00    +0.119 A 
ATOM     27  C   UNL     1      14.198  13.396  26.065  0.00  0.00    +0.020 A 
ATOM     30  C   UNL     1      14.621  14.473  25.302  0.00  0.00    +0.111 A 
ENDBRANCH  16  19
BRANCH   3  13
ATOM     13  C   UNL     1      12.159   8.938  17.544  0.00  0.00    +0.158 C 
BRANCH  13  18
ATOM      1  O   UNL     1      13.782   9.638  15.872  0.00  0.00    -0.458 OA
ATOM     18  C   UNL     1      13.294   9.834  17.125  0.00  0.00    +0.120 A 
ATOM     20  C   UNL     1      13.974  10.848  17.759  0.00  0.00    +0.054 A 
ATOM     21  C   UNL     1      14.948  11.315  16.838  0.00  0.00    +0.020 A 
ATOM     22  C   UNL     1      14.789  10.539  15.694  0.00  0.00    +0.135 A 
ATOM     25  C   UNL     1      15.946  12.305  16.844  0.00  0.00    +0.011 A 
ATOM     26  C   UNL     1      15.560  10.679  14.541  0.00  0.00    +0.047 A 
ATOM     28  C   UNL     1      16.738  12.469  15.699  0.00  0.00    +0.001 A 
ATOM     29  C   UNL     1      16.546  11.669  14.569  0.00  0.00    +0.004 A 
ENDBRANCH  13  18
ENDBRANCH   3  13
TORSDOF 3
ENDMDL
MODEL 5
REMARK VINA RESULT:      -7.2     22.697     24.548
REMARK  Name = 40533400
REMARK  3 active torsions:
REMARK  status: ('A' for Active; 'I' for Inactive)
REMARK    1  A    between atoms: N_3  and  C_13
REMARK    2  A    between atoms: C_13  and  C_18
REMARK    3  A    between atoms: C_16  and  C_19
REMARK                            x       y       z     vdW  Elec       q    Type
REMARK                         _______ _______ _______ _____ _____    ______ ____
ROOT
ATOM      2  O   UNL     1      -6.538   9.638   5.380  0.00  0.00    -0.267 OA
ATOM      3  N   UNL     1      -1.841  10.484   3.843  0.00  0.00    -0.294 NA
ATOM      4  N   UNL     1      -4.243   9.279   5.562  0.00  0.00    -0.311 N 
ATOM      6  C   UNL     1      -2.589  11.150   6.142  0.00  0.00    +0.024 C 
ATOM      7  C   UNL     1      -1.765   8.878   5.755  0.00  0.00    +0.050 C 
ATOM      8  C   UNL     1      -1.764  10.029   6.757  0.00  0.00    +0.017 C 
ATOM      9  C   UNL     1      -1.966  11.591   4.799  0.00  0.00    +0.090 C 
ATOM     10  C   UNL     1      -1.119   9.345   4.432  0.00  0.00    +0.094 C 
ATOM     11  C   UNL     1      -4.040  10.671   5.989  0.00  0.00    +0.130 C 
ATOM     12  C   UNL     1      -3.176   8.377   5.510  0.00  0.00    +0.026 A 
ATOM     14  C   UNL     1      -3.400   7.085   5.227  0.00  0.00    +0.022 A 
ATOM     15  C   UNL     1      -5.570   8.880   5.311  0.00  0.00    +0.259 A 
ATOM     16  C   UNL     1      -5.785   7.432   4.961  0.00  0.00    +0.048 A 
ATOM     17  C   UNL     1      -4.725   6.611   4.943  0.00  0.00    +0.015 A 
ENDROOT
BRANCH  16  19
ATOM      5  N   UNL     1      -9.075   6.985   3.207  0.00  0.00    -0.263 NA
ATOM     19  C   UNL     1      -7.127   6.916   4.637  0.00  0.00    +0.005 A 
ATOM     23  C   UNL     1      -7.714   5.914   5.402  0.00  0.00    +0.011 A 
ATOM     24  C   UNL     1      -7.842   7.413   3.560  0.00  0.00    +0.119 A 
ATOM     27  C   UNL     1      -8.982   5.448   5.071  0.00  0.00    +0.020 A 
ATOM     30  C   UNL     1      -9.614   6.011   3.975  0.00  0.00    +0.111 A 
ENDBRANCH  16  19
BRANCH   3  13
ATOM     13  C   UNL     1      -1.199  10.930   2.608  0.00  0.00    +0.158 C 
BRANCH  13  18
ATOM      1  O   UNL     1      -1.507  10.936   0.195  0.00  0.00    -0.458 OA
ATOM     18  C   UNL     1      -2.075  10.697   1.406  0.00  0.00    +0.120 A 
ATOM     20  C   UNL     1      -3.378  10.281   1.260  0.00  0.00    +0.054 A 
ATOM     21  C   UNL     1      -3.637  10.258  -0.136  0.00  0.00    +0.020 A 
ATOM     22  C   UNL     1      -2.456  10.668  -0.747  0.00  0.00    +0.135 A 
ATOM     25  C   UNL     1      -4.737   9.936  -0.950  0.00  0.00    +0.011 A 
ATOM     26  C   UNL     1      -2.287  10.782  -2.125  0.00  0.00    +0.047 A 
ATOM     28  C   UNL     1      -4.598  10.043  -2.341  0.00  0.00    +0.001 A 
ATOM     29  C   UNL     1      -3.393  10.458  -2.915  0.00  0.00    +0.004 A 
ENDBRANCH  13  18
ENDBRANCH   3  13
TORSDOF 3
ENDMDL
MODEL 6
REMARK VINA RESULT:      -7.2      3.021      5.728
REMARK  Name = 40533400
REMARK  3 active torsions:
REMARK  status: ('A' for Active; 'I' for Inactive)
REMARK    1  A    between atoms: N_3  and  C_13
REMARK    2  A    between atoms: C_13  and  C_18
REMARK    3  A    between atoms: C_16  and  C_19
REMARK                            x       y       z     vdW  Elec       q    Type
REMARK                         _______ _______ _______ _____ _____    ______ ____
ROOT
ATOM      2  O   UNL     1      15.345   6.158  20.665  0.00  0.00    -0.267 OA
ATOM      3  N   UNL     1      12.734   9.210  17.663  0.00  0.00    -0.294 NA
ATOM      4  N   UNL     1      14.269   8.187  20.265  0.00  0.00    -0.311 N 
ATOM      6  C   UNL     1      11.752   8.352  19.804  0.00  0.00    +0.024 C 
ATOM      7  C   UNL     1      13.118  10.384  19.834  0.00  0.00    +0.050 C 
ATOM      8  C   UNL     1      11.877   9.731  20.437  0.00  0.00    +0.017 C 
ATOM      9  C   UNL     1      11.614   8.483  18.272  0.00  0.00    +0.090 C 
ATOM     10  C   UNL     1      12.939  10.517  18.305  0.00  0.00    +0.094 C 
ATOM     11  C   UNL     1      12.966   7.507  20.216  0.00  0.00    +0.130 C 
ATOM     12  C   UNL     1      14.362   9.577  20.155  0.00  0.00    +0.026 A 
ATOM     14  C   UNL     1      15.546  10.187  20.315  0.00  0.00    +0.022 A 
ATOM     15  C   UNL     1      15.394   7.381  20.529  0.00  0.00    +0.259 A 
ATOM     16  C   UNL     1      16.714   8.091  20.668  0.00  0.00    +0.048 A 
ATOM     17  C   UNL     1      16.739   9.428  20.569  0.00  0.00    +0.015 A 
ENDROOT
BRANCH  16  19
ATOM      5  N   UNL     1      19.948   7.003  22.238  0.00  0.00    -0.263 NA
ATOM     19  C   UNL     1      17.962   7.343  20.900  0.00  0.00    +0.005 A 
ATOM     23  C   UNL     1      18.345   6.307  20.056  0.00  0.00    +0.011 A 
ATOM     24  C   UNL     1      18.791   7.650  21.967  0.00  0.00    +0.119 A 
ATOM     27  C   UNL     1      19.528   5.619  20.300  0.00  0.00    +0.020 A 
ATOM     30  C   UNL     1      20.287   6.003  21.394  0.00  0.00    +0.111 A 
ENDBRANCH  16  19
BRANCH   3  13
ATOM     13  C   UNL     1      12.539   9.359  16.222  0.00  0.00    +0.158 C 
BRANCH  13  18
ATOM      1  O   UNL     1      13.259  11.077  14.657  0.00  0.00    -0.458 OA
ATOM     18  C   UNL     1      13.642  10.164  15.587  0.00  0.00    +0.120 A 
ATOM     20  C   UNL     1      15.008  10.177  15.750  0.00  0.00    +0.054 A 
ATOM     21  C   UNL     1      15.508  11.165  14.862  0.00  0.00    +0.020 A 
ATOM     22  C   UNL     1      14.393  11.689  14.213  0.00  0.00    +0.135 A 
ATOM     25  C   UNL     1      16.776  11.674  14.533  0.00  0.00    +0.011 A 
ATOM     26  C   UNL     1      14.451  12.696  13.251  0.00  0.00    +0.047 A 
ATOM     28  C   UNL     1      16.865  12.687  13.568  0.00  0.00    +0.001 A 
ATOM     29  C   UNL     1      15.721  13.187  12.940  0.00  0.00    +0.004 A 
ENDBRANCH  13  18
ENDBRANCH   3  13
TORSDOF 3
ENDMDL
MODEL 7
REMARK VINA RESULT:      -7.0     15.981     20.029
REMARK  Name = 40533400
REMARK  3 active torsions:
REMARK  status: ('A' for Active; 'I' for Inactive)
REMARK    1  A    between atoms: N_3  and  C_13
REMARK    2  A    between atoms: C_13  and  C_18
REMARK    3  A    between atoms: C_16  and  C_19
REMARK                            x       y       z     vdW  Elec       q    Type
REMARK                         _______ _______ _______ _____ _____    ______ ____
ROOT
ATOM      2  O   UNL     1      12.370   7.665   3.003  0.00  0.00    -0.267 OA
ATOM      3  N   UNL     1      13.178   4.498  -0.800  0.00  0.00    -0.294 NA
ATOM      4  N   UNL     1      12.836   5.527   2.200  0.00  0.00    -0.311 N 
ATOM      6  C   UNL     1      14.969   4.973   0.890  0.00  0.00    +0.024 C 
ATOM      7  C   UNL     1      13.327   3.213   1.337  0.00  0.00    +0.050 C 
ATOM      8  C   UNL     1      14.800   3.585   1.490  0.00  0.00    +0.017 C 
ATOM      9  C   UNL     1      14.556   4.962  -0.598  0.00  0.00    +0.090 C 
ATOM     10  C   UNL     1      12.952   3.192  -0.161  0.00  0.00    +0.094 C 
ATOM     11  C   UNL     1      14.152   5.974   1.720  0.00  0.00    +0.130 C 
ATOM     12  C   UNL     1      12.444   4.190   2.093  0.00  0.00    +0.026 A 
ATOM     14  C   UNL     1      11.288   3.780   2.637  0.00  0.00    +0.022 A 
ATOM     15  C   UNL     1      12.043   6.486   2.860  0.00  0.00    +0.259 A 
ATOM     16  C   UNL     1      10.735   6.004   3.429  0.00  0.00    +0.048 A 
ATOM     17  C   UNL     1      10.421   4.707   3.309  0.00  0.00    +0.015 A 
ENDROOT
BRANCH  16  19
ATOM      5  N   UNL     1       9.113   8.051   6.128  0.00  0.00    -0.263 NA
ATOM     19  C   UNL     1       9.807   6.931   4.101  0.00  0.00    +0.005 A 
ATOM     23  C   UNL     1       8.783   7.555   3.397  0.00  0.00    +0.011 A 
ATOM     24  C   UNL     1       9.929   7.210   5.452  0.00  0.00    +0.119 A 
ATOM     27  C   UNL     1       7.922   8.425   4.058  0.00  0.00    +0.020 A 
ATOM     30  C   UNL     1       8.128   8.636   5.411  0.00  0.00    +0.111 A 
ENDBRANCH  16  19
BRANCH   3  13
ATOM     13  C   UNL     1      12.846   4.450  -2.222  0.00  0.00    +0.158 C 
BRANCH  13  18
ATOM      1  O   UNL     1      10.811   4.403  -3.555  0.00  0.00    -0.458 OA
ATOM     18  C   UNL     1      11.450   4.949  -2.488  0.00  0.00    +0.120 A 
ATOM     20  C   UNL     1      10.649   5.876  -1.862  0.00  0.00    +0.054 A 
ATOM     21  C   UNL     1       9.429   5.907  -2.588  0.00  0.00    +0.020 A 
ATOM     22  C   UNL     1       9.579   4.984  -3.618  0.00  0.00    +0.135 A 
ATOM     25  C   UNL     1       8.217   6.612  -2.489  0.00  0.00    +0.011 A 
ATOM     26  C   UNL     1       8.598   4.707  -4.568  0.00  0.00    +0.047 A 
ATOM     28  C   UNL     1       7.211   6.355  -3.432  0.00  0.00    +0.001 A 
ATOM     29  C   UNL     1       7.401   5.419  -4.451  0.00  0.00    +0.004 A 
ENDBRANCH  13  18
ENDBRANCH   3  13
TORSDOF 3
ENDMDL
MODEL 8
REMARK VINA RESULT:      -6.9     26.319     29.868
REMARK  Name = 40533400
REMARK  3 active torsions:
REMARK  status: ('A' for Active; 'I' for Inactive)
REMARK    1  A    between atoms: N_3  and  C_13
REMARK    2  A    between atoms: C_13  and  C_18
REMARK    3  A    between atoms: C_16  and  C_19
REMARK                            x       y       z     vdW  Elec       q    Type
REMARK                         _______ _______ _______ _____ _____    ______ ____
ROOT
ATOM      2  O   UNL     1     -15.667   4.700  29.901  0.00  0.00    -0.267 OA
ATOM      3  N   UNL     1     -13.009   8.262  32.225  0.00  0.00    -0.294 NA
ATOM      4  N   UNL     1     -15.123   5.908  31.819  0.00  0.00    -0.311 N 
ATOM      6  C   UNL     1     -15.502   8.435  32.018  0.00  0.00    +0.024 C 
ATOM      7  C   UNL     1     -14.532   7.201  33.897  0.00  0.00    +0.050 C 
ATOM      8  C   UNL     1     -15.666   8.144  33.503  0.00  0.00    +0.017 C 
ATOM      9  C   UNL     1     -14.128   9.088  31.754  0.00  0.00    +0.090 C 
ATOM     10  C   UNL     1     -13.174   7.890  33.639  0.00  0.00    +0.094 C 
ATOM     11  C   UNL     1     -15.695   7.130  31.234  0.00  0.00    +0.130 C 
ATOM     12  C   UNL     1     -14.623   5.898  33.124  0.00  0.00    +0.026 A 
ATOM     14  C   UNL     1     -14.210   4.748  33.678  0.00  0.00    +0.022 A 
ATOM     15  C   UNL     1     -15.201   4.736  31.041  0.00  0.00    +0.259 A 
ATOM     16  C   UNL     1     -14.698   3.468  31.677  0.00  0.00    +0.048 A 
ATOM     17  C   UNL     1     -14.244   3.518  32.938  0.00  0.00    +0.015 A 
ENDROOT
BRANCH  16  19
ATOM      5  N   UNL     1     -15.934   0.457  29.806  0.00  0.00    -0.263 NA
ATOM     19  C   UNL     1     -14.691   2.194  30.938  0.00  0.00    +0.005 A 
ATOM     23  C   UNL     1     -13.500   1.528  30.668  0.00  0.00    +0.011 A 
ATOM     24  C   UNL     1     -15.870   1.622  30.489  0.00  0.00    +0.119 A 
ATOM     27  C   UNL     1     -13.525   0.327  29.968  0.00  0.00    +0.020 A 
ATOM     30  C   UNL     1     -14.757  -0.162  29.564  0.00  0.00    +0.111 A 
ENDBRANCH  16  19
BRANCH   3  13
ATOM     13  C   UNL     1     -11.732   8.937  32.006  0.00  0.00    +0.158 C 
BRANCH  13  18
ATOM      1  O   UNL     1     -11.444   9.235  29.609  0.00  0.00    -0.458 OA
ATOM     18  C   UNL     1     -11.768   9.824  30.790  0.00  0.00    +0.120 A 
ATOM     20  C   UNL     1     -12.068  11.154  30.606  0.00  0.00    +0.054 A 
ATOM     21  C   UNL     1     -11.922  11.409  29.217  0.00  0.00    +0.020 A 
ATOM     22  C   UNL     1     -11.537  10.198  28.648  0.00  0.00    +0.135 A 
ATOM     25  C   UNL     1     -12.072  12.527  28.377  0.00  0.00    +0.011 A 
ATOM     26  C   UNL     1     -11.289  10.017  27.289  0.00  0.00    +0.047 A 
ATOM     28  C   UNL     1     -11.827  12.375  27.005  0.00  0.00    +0.001 A 
ATOM     29  C   UNL     1     -11.443  11.141  26.474  0.00  0.00    +0.004 A 
ENDBRANCH  13  18
ENDBRANCH   3  13
TORSDOF 3
ENDMDL
MODEL 9
REMARK VINA RESULT:      -6.8     19.922     23.135
REMARK  Name = 40533400
REMARK  3 active torsions:
REMARK  status: ('A' for Active; 'I' for Inactive)
REMARK    1  A    between atoms: N_3  and  C_13
REMARK    2  A    between atoms: C_13  and  C_18
REMARK    3  A    between atoms: C_16  and  C_19
REMARK                            x       y       z     vdW  Elec       q    Type
REMARK                         _______ _______ _______ _____ _____    ______ ____
ROOT
ATOM      2  O   UNL     1      12.433  -7.843  33.296  0.00  0.00    -0.267 OA
ATOM      3  N   UNL     1       7.525  -6.851  33.561  0.00  0.00    -0.294 NA
ATOM      4  N   UNL     1      10.668  -6.461  33.936  0.00  0.00    -0.311 N 
ATOM      6  C   UNL     1       8.891  -7.181  35.637  0.00  0.00    +0.024 C 
ATOM      7  C   UNL     1       8.767  -4.959  34.618  0.00  0.00    +0.050 C 
ATOM      8  C   UNL     1       8.805  -5.696  35.955  0.00  0.00    +0.017 C 
ATOM      9  C   UNL     1       7.666  -7.617  34.805  0.00  0.00    +0.090 C 
ATOM     10  C   UNL     1       7.521  -5.403  33.820  0.00  0.00    +0.094 C 
ATOM     11  C   UNL     1      10.220  -7.458  34.919  0.00  0.00    +0.130 C 
ATOM     12  C   UNL     1      10.031  -5.222  33.821  0.00  0.00    +0.026 A 
ATOM     14  C   UNL     1      10.524  -4.284  32.999  0.00  0.00    +0.022 A 
ATOM     15  C   UNL     1      11.825  -6.776  33.197  0.00  0.00    +0.259 A 
ATOM     16  C   UNL     1      12.335  -5.716  32.256  0.00  0.00    +0.048 A 
ATOM     17  C   UNL     1      11.691  -4.542  32.202  0.00  0.00    +0.015 A 
ENDROOT
BRANCH  16  19
ATOM      5  N   UNL     1      15.902  -5.780  31.084  0.00  0.00    -0.263 NA
ATOM     19  C   UNL     1      13.511  -5.956  31.403  0.00  0.00    +0.005 A 
ATOM     23  C   UNL     1      13.382  -6.558  30.156  0.00  0.00    +0.011 A 
ATOM     24  C   UNL     1      14.781  -5.588  31.817  0.00  0.00    +0.119 A 
ATOM     27  C   UNL     1      14.511  -6.771  29.372  0.00  0.00    +0.020 A 
ATOM     30  C   UNL     1      15.736  -6.366  29.877  0.00  0.00    +0.111 A 
ENDBRANCH  16  19
BRANCH   3  13
ATOM     13  C   UNL     1       6.325  -7.255  32.830  0.00  0.00    +0.158 C 
BRANCH  13  18
ATOM      1  O   UNL     1       6.355  -9.684  32.689  0.00  0.00    -0.458 OA
ATOM     18  C   UNL     1       6.553  -8.511  32.032  0.00  0.00    +0.120 A 
ATOM     20  C   UNL     1       6.935  -8.741  30.730  0.00  0.00    +0.054 A 
ATOM     21  C   UNL     1       6.975 -10.150  30.567  0.00  0.00    +0.020 A 
ATOM     22  C   UNL     1       6.610 -10.684  31.799  0.00  0.00    +0.135 A 
ATOM     25  C   UNL     1       7.279 -11.034  29.516  0.00  0.00    +0.011 A 
ATOM     26  C   UNL     1       6.524 -12.050  32.065  0.00  0.00    +0.047 A 
ATOM     28  C   UNL     1       7.202 -12.413  29.754  0.00  0.00    +0.001 A 
ATOM     29  C   UNL     1       6.830 -12.909  31.006  0.00  0.00    +0.004 A 
ENDBRANCH  13  18
ENDBRANCH   3  13
TORSDOF 3
ENDMDL
MODEL 10
REMARK VINA RESULT:      -6.8     25.271     28.170
REMARK  Name = 40533400
REMARK  3 active torsions:
REMARK  status: ('A' for Active; 'I' for Inactive)
REMARK    1  A    between atoms: N_3  and  C_13
REMARK    2  A    between atoms: C_13  and  C_18
REMARK    3  A    between atoms: C_16  and  C_19
REMARK                            x       y       z     vdW  Elec       q    Type
REMARK                         _______ _______ _______ _____ _____    ______ ____
ROOT
ATOM      2  O   UNL     1     -14.452   8.381  18.523  0.00  0.00    -0.267 OA
ATOM      3  N   UNL     1     -16.458   7.536  23.041  0.00  0.00    -0.294 NA
ATOM      4  N   UNL     1     -14.893   6.964  20.321  0.00  0.00    -0.311 N 
ATOM      6  C   UNL     1     -17.271   6.304  21.014  0.00  0.00    +0.024 C 
ATOM      7  C   UNL     1     -15.355   5.433  22.265  0.00  0.00    +0.050 C 
ATOM      8  C   UNL     1     -16.614   5.022  21.504  0.00  0.00    +0.017 C 
ATOM      9  C   UNL     1     -17.625   7.210  22.213  0.00  0.00    +0.090 C 
ATOM     10  C   UNL     1     -15.746   6.321  23.467  0.00  0.00    +0.094 C 
ATOM     11  C   UNL     1     -16.330   6.992  20.014  0.00  0.00    +0.130 C 
ATOM     12  C   UNL     1     -14.390   6.167  21.353  0.00  0.00    +0.026 A 
ATOM     14  C   UNL     1     -13.066   6.069  21.544  0.00  0.00    +0.022 A 
ATOM     15  C   UNL     1     -14.048   7.695  19.463  0.00  0.00    +0.259 A 
ATOM     16  C   UNL     1     -12.569   7.593  19.725  0.00  0.00    +0.048 A 
ATOM     17  C   UNL     1     -12.145   6.800  20.719  0.00  0.00    +0.015 A 
ENDROOT
BRANCH  16  19
ATOM      5  N   UNL     1     -10.267   8.515  16.904  0.00  0.00    -0.263 NA
ATOM     19  C   UNL     1     -11.597   8.351  18.917  0.00  0.00    +0.005 A 
ATOM     23  C   UNL     1     -11.093   9.570  19.358  0.00  0.00    +0.011 A 
ATOM     24  C   UNL     1     -11.156   7.871  17.694  0.00  0.00    +0.119 A 
ATOM     27  C   UNL     1     -10.177  10.262  18.574  0.00  0.00    +0.020 A 
ATOM     30  C   UNL     1      -9.799   9.696  17.367  0.00  0.00    +0.111 A 
ENDBRANCH  16  19
BRANCH   3  13
ATOM     13  C   UNL     1     -16.844   8.348  24.193  0.00  0.00    +0.158 C 
BRANCH  13  18
ATOM      1  O   UNL     1     -14.697   9.395  23.731  0.00  0.00    -0.458 OA
ATOM     18  C   UNL     1     -15.792   9.371  24.534  0.00  0.00    +0.120 A 
ATOM     20  C   UNL     1     -15.694  10.322  25.523  0.00  0.00    +0.054 A 
ATOM     21  C   UNL     1     -14.455  10.984  25.320  0.00  0.00    +0.020 A 
ATOM     22  C   UNL     1     -13.880  10.378  24.207  0.00  0.00    +0.135 A 
ATOM     25  C   UNL     1     -13.755  12.027  25.952  0.00  0.00    +0.011 A 
ATOM     26  C   UNL     1     -12.645  10.739  23.670  0.00  0.00    +0.047 A 
ATOM     28  C   UNL     1     -12.510  12.412  25.436  0.00  0.00    +0.001 A 
ATOM     29  C   UNL     1     -11.968  11.777  24.314  0.00  0.00    +0.004 A 
ENDBRANCH  13  18
ENDBRANCH   3  13
TORSDOF 3
ENDMDL
