MODEL 1
REMARK VINA RESULT:      -6.4      0.000      0.000
REMARK  Name = 71693203
REMARK  16 active torsions:
REMARK  status: ('A' for Active; 'I' for Inactive)
REMARK    1  A    between atoms: O_2  and  C_30
REMARK    2  A    between atoms: N_4  and  C_14
REMARK    3  A    between atoms: C_7  and  C_11
REMARK    4  A    between atoms: C_8  and  C_14
REMARK    5  A    between atoms: C_10  and  C_15
REMARK    6  A    between atoms: C_11  and  C_16
REMARK    7  A    between atoms: C_11  and  C_17
REMARK    8  A    between atoms: C_12  and  C_18
REMARK    9  A    between atoms: C_15  and  C_19
REMARK   10  A    between atoms: C_20  and  C_22
REMARK   11  A    between atoms: C_21  and  C_22
REMARK   12  A    between atoms: C_21  and  C_25
REMARK   13  A    between atoms: C_21  and  C_26
REMARK   14  A    between atoms: C_21  and  C_27
REMARK   15  A    between atoms: C_25  and  C_30
REMARK   16  A    between atoms: C_28  and  C_33
REMARK                            x       y       z     vdW  Elec       q    Type
REMARK                         _______ _______ _______ _____ _____    ______ ____
ROOT
ATOM      7  C   UNL     1       8.447   8.817   4.967  0.00  0.00    +0.000 C 
ATOM      8  C   UNL     1       8.266   8.071   6.312  0.00  0.00    +0.032 C 
ATOM      9  C   UNL     1       8.232   7.857   3.788  0.00  0.00    +0.012 C 
ATOM     10  C   UNL     1       9.209   6.667   3.819  0.00  0.00    +0.022 C 
ATOM     12  C   UNL     1       9.287   6.040   5.197  0.00  0.00    -0.073 C 
ATOM     13  C   UNL     1       8.848   6.677   6.298  0.00  0.00    -0.022 C 
ATOM     18  C   UNL     1       9.841   4.644   5.275  0.00  0.00    +0.039 C 
ENDROOT
BRANCH   7  11
ATOM     11  C   UNL     1       7.492  10.009   4.846  0.00  0.00    -0.013 C 
ATOM     16  C   UNL     1       6.497   9.781   3.712  0.00  0.00    +0.007 C 
ATOM     17  C   UNL     1       8.276  11.300   4.626  0.00  0.00    +0.007 C 
ENDBRANCH   7  11
BRANCH   8  14
ATOM     14  C   UNL     1       8.874   8.866   7.473  0.00  0.00    +0.112 C 
BRANCH  14   4
ATOM      1  O   UNL     1      10.802  10.976   7.139  0.00  0.00    -0.276 OA
ATOM      4  N   UNL     1      10.297   8.735   7.486  0.00  0.00    -0.315 N 
ATOM     20  C   UNL     1      11.163   9.814   7.316  0.00  0.00    +0.214 C 
ATOM     34  H   UNL     1      10.698   7.823   7.684  0.00  0.00    +0.149 HD
BRANCH  20  22
ATOM     22  C   UNL     1      12.633   9.432   7.373  0.00  0.00    +0.102 C 
BRANCH  22  21
ATOM     21  C   UNL     1      13.217   8.892   6.043  0.00  0.00    -0.017 C 
ATOM     26  C   UNL     1      12.636   9.671   4.844  0.00  0.00    +0.012 C 
ATOM     27  C   UNL     1      14.740   9.137   6.058  0.00  0.00    +0.012 C 
BRANCH  21  25
ATOM     25  C   UNL     1      12.921   7.389   5.823  0.00  0.00    +0.127 C 
BRANCH  25  30
ATOM      3  O   UNL     1      11.915   6.281   7.727  0.00  0.00    -0.251 OA
ATOM     30  C   UNL     1      12.921   6.552   7.083  0.00  0.00    +0.305 C 
BRANCH  30   2
ATOM      2  O   UNL     1      14.161   6.132   7.438  0.00  0.00    -0.481 OA
ATOM     36  H   UNL     1      14.804   6.872   7.463  0.00  0.00    +0.295 HD
ENDBRANCH  30   2
ENDBRANCH  25  30
ENDBRANCH  21  25
ENDBRANCH  22  21
ENDBRANCH  20  22
ENDBRANCH  14   4
ENDBRANCH   8  14
BRANCH  10  15
ATOM     15  C   UNL     1      10.600   7.080   3.325  0.00  0.00    +0.082 C 
BRANCH  15  19
ATOM      5  N   UNL     1      10.434   5.821   1.169  0.00  0.00    -0.342 N 
ATOM      6  N   UNL     1      12.266   5.449   2.372  0.00  0.00    -0.232 NA
ATOM     19  C   UNL     1      11.131   6.111   2.310  0.00  0.00    +0.109 A 
ATOM     23  C   UNL     1      11.166   4.914   0.449  0.00  0.00    +0.066 A 
ATOM     24  C   UNL     1      12.305   4.698   1.220  0.00  0.00    +0.092 A 
ATOM     28  C   UNL     1      13.284   3.802   0.760  0.00  0.00    -0.023 A 
ATOM     29  C   UNL     1      10.938   4.281  -0.774  0.00  0.00    +0.028 A 
ATOM     31  C   UNL     1      13.076   3.156  -0.465  0.00  0.00    +0.005 A 
ATOM     32  C   UNL     1      11.923   3.393  -1.217  0.00  0.00    +0.002 A 
ATOM     33  C   UNL     1      14.535   3.515   1.526  0.00  0.00    +0.046 C 
ATOM     35  H   UNL     1       9.537   6.207   0.903  0.00  0.00    +0.167 HD
ENDBRANCH  15  19
ENDBRANCH  10  15
TORSDOF 10
ENDMDL
MODEL 2
REMARK VINA RESULT:      -6.3     25.152     27.382
REMARK  Name = 71693203
REMARK  16 active torsions:
REMARK  status: ('A' for Active; 'I' for Inactive)
REMARK    1  A    between atoms: O_2  and  C_30
REMARK    2  A    between atoms: N_4  and  C_14
REMARK    3  A    between atoms: C_7  and  C_11
REMARK    4  A    between atoms: C_8  and  C_14
REMARK    5  A    between atoms: C_10  and  C_15
REMARK    6  A    between atoms: C_11  and  C_16
REMARK    7  A    between atoms: C_11  and  C_17
REMARK    8  A    between atoms: C_12  and  C_18
REMARK    9  A    between atoms: C_15  and  C_19
REMARK   10  A    between atoms: C_20  and  C_22
REMARK   11  A    between atoms: C_21  and  C_22
REMARK   12  A    between atoms: C_21  and  C_25
REMARK   13  A    between atoms: C_21  and  C_26
REMARK   14  A    between atoms: C_21  and  C_27
REMARK   15  A    between atoms: C_25  and  C_30
REMARK   16  A    between atoms: C_28  and  C_33
REMARK                            x       y       z     vdW  Elec       q    Type
REMARK                         _______ _______ _______ _____ _____    ______ ____
ROOT
ATOM      7  C   UNL     1      -9.366  -9.142  16.513  0.00  0.00    +0.000 C 
ATOM      8  C   UNL     1      -9.826 -10.464  17.176  0.00  0.00    +0.032 C 
ATOM      9  C   UNL     1      -9.274  -9.310  14.989  0.00  0.00    +0.012 C 
ATOM     10  C   UNL     1      -8.293 -10.426  14.583  0.00  0.00    +0.022 C 
ATOM     12  C   UNL     1      -8.513 -11.689  15.392  0.00  0.00    -0.073 C 
ATOM     13  C   UNL     1      -9.212 -11.690  16.541  0.00  0.00    -0.022 C 
ATOM     18  C   UNL     1      -7.947 -12.962  14.825  0.00  0.00    +0.039 C 
ENDROOT
BRANCH   7  11
ATOM     11  C   UNL     1     -10.305  -7.980  16.851  0.00  0.00    -0.013 C 
ATOM     16  C   UNL     1     -11.747  -8.469  16.942  0.00  0.00    +0.007 C 
ATOM     17  C   UNL     1     -10.175  -6.871  15.811  0.00  0.00    +0.007 C 
ENDBRANCH   7  11
BRANCH   8  14
ATOM     14  C   UNL     1      -9.525 -10.464  18.679  0.00  0.00    +0.112 C 
BRANCH  14   4
ATOM      1  O   UNL     1      -7.860 -12.294  20.149  0.00  0.00    -0.276 OA
ATOM      4  N   UNL     1      -8.121 -10.343  18.915  0.00  0.00    -0.315 N 
ATOM     20  C   UNL     1      -7.387 -11.279  19.641  0.00  0.00    +0.214 C 
ATOM     34  H   UNL     1      -7.623  -9.568  18.487  0.00  0.00    +0.149 HD
BRANCH  20  22
ATOM     22  C   UNL     1      -5.909 -10.940  19.755  0.00  0.00    +0.102 C 
BRANCH  22  21
ATOM     21  C   UNL     1      -5.003 -11.612  18.693  0.00  0.00    -0.017 C 
ATOM     26  C   UNL     1      -3.721 -12.166  19.352  0.00  0.00    +0.012 C 
ATOM     27  C   UNL     1      -5.772 -12.811  18.101  0.00  0.00    +0.012 C 
BRANCH  21  25
ATOM     25  C   UNL     1      -4.577 -10.642  17.566  0.00  0.00    +0.127 C 
BRANCH  25  30
ATOM      3  O   UNL     1      -4.067 -11.818  15.511  0.00  0.00    -0.251 OA
ATOM     30  C   UNL     1      -3.668 -11.246  16.518  0.00  0.00    +0.305 C 
BRANCH  30   2
ATOM      2  O   UNL     1      -2.353 -11.099  16.812  0.00  0.00    -0.481 OA
ATOM     36  H   UNL     1      -2.158 -11.331  17.744  0.00  0.00    +0.295 HD
ENDBRANCH  30   2
ENDBRANCH  25  30
ENDBRANCH  21  25
ENDBRANCH  22  21
ENDBRANCH  20  22
ENDBRANCH  14   4
ENDBRANCH   8  14
BRANCH  10  15
ATOM     15  C   UNL     1      -6.840  -9.950  14.692  0.00  0.00    +0.082 C 
BRANCH  15  19
ATOM      5  N   UNL     1      -4.923 -10.084  13.090  0.00  0.00    -0.342 N 
ATOM      6  N   UNL     1      -6.817  -9.258  12.270  0.00  0.00    -0.232 NA
ATOM     19  C   UNL     1      -6.226  -9.750  13.337  0.00  0.00    +0.109 A 
ATOM     23  C   UNL     1      -4.655  -9.788  11.779  0.00  0.00    +0.066 A 
ATOM     24  C   UNL     1      -5.853  -9.274  11.289  0.00  0.00    +0.092 A 
ATOM     28  C   UNL     1      -5.925  -8.864   9.947  0.00  0.00    -0.023 A 
ATOM     29  C   UNL     1      -3.504  -9.920  11.001  0.00  0.00    +0.028 A 
ATOM     31  C   UNL     1      -4.781  -8.988   9.148  0.00  0.00    +0.005 A 
ATOM     32  C   UNL     1      -3.593  -9.507   9.668  0.00  0.00    +0.002 A 
ATOM     33  C   UNL     1      -7.171  -8.303   9.343  0.00  0.00    +0.046 C 
ATOM     35  H   UNL     1      -4.271 -10.478  13.755  0.00  0.00    +0.167 HD
ENDBRANCH  15  19
ENDBRANCH  10  15
TORSDOF 10
ENDMDL
MODEL 3
REMARK VINA RESULT:      -6.2     25.666     27.879
REMARK  Name = 71693203
REMARK  16 active torsions:
REMARK  status: ('A' for Active; 'I' for Inactive)
REMARK    1  A    between atoms: O_2  and  C_30
REMARK    2  A    between atoms: N_4  and  C_14
REMARK    3  A    between atoms: C_7  and  C_11
REMARK    4  A    between atoms: C_8  and  C_14
REMARK    5  A    between atoms: C_10  and  C_15
REMARK    6  A    between atoms: C_11  and  C_16
REMARK    7  A    between atoms: C_11  and  C_17
REMARK    8  A    between atoms: C_12  and  C_18
REMARK    9  A    between atoms: C_15  and  C_19
REMARK   10  A    between atoms: C_20  and  C_22
REMARK   11  A    between atoms: C_21  and  C_22
REMARK   12  A    between atoms: C_21  and  C_25
REMARK   13  A    between atoms: C_21  and  C_26
REMARK   14  A    between atoms: C_21  and  C_27
REMARK   15  A    between atoms: C_25  and  C_30
REMARK   16  A    between atoms: C_28  and  C_33
REMARK                            x       y       z     vdW  Elec       q    Type
REMARK                         _______ _______ _______ _____ _____    ______ ____
ROOT
ATOM      7  C   UNL     1      -9.583 -10.021  16.655  0.00  0.00    +0.000 C 
ATOM      8  C   UNL     1     -10.040 -11.497  16.766  0.00  0.00    +0.032 C 
ATOM      9  C   UNL     1      -9.388  -9.629  15.183  0.00  0.00    +0.012 C 
ATOM     10  C   UNL     1      -8.346 -10.517  14.476  0.00  0.00    +0.022 C 
ATOM     12  C   UNL     1      -8.575 -11.987  14.760  0.00  0.00    -0.073 C 
ATOM     13  C   UNL     1      -9.346 -12.407  15.780  0.00  0.00    -0.022 C 
ATOM     18  C   UNL     1      -7.932 -12.967  13.817  0.00  0.00    +0.039 C 
ENDROOT
BRANCH   7  11
ATOM     11  C   UNL     1     -10.579  -9.065  17.318  0.00  0.00    -0.013 C 
ATOM     16  C   UNL     1     -11.989  -9.316  16.791  0.00  0.00    +0.007 C 
ATOM     17  C   UNL     1     -10.164  -7.616  17.084  0.00  0.00    +0.007 C 
ENDBRANCH   7  11
BRANCH   8  14
ATOM     14  C   UNL     1      -9.836 -12.034  18.187  0.00  0.00    +0.112 C 
BRANCH  14   4
ATOM      1  O   UNL     1      -7.959 -10.837  20.010  0.00  0.00    -0.276 OA
ATOM      4  N   UNL     1      -8.476 -12.421  18.392  0.00  0.00    -0.315 N 
ATOM     20  C   UNL     1      -7.632 -11.785  19.300  0.00  0.00    +0.214 C 
ATOM     34  H   UNL     1      -8.124 -13.234  17.894  0.00  0.00    +0.149 HD
BRANCH  20  22
ATOM     22  C   UNL     1      -6.232 -12.375  19.348  0.00  0.00    +0.102 C 
BRANCH  22  21
ATOM     21  C   UNL     1      -5.243 -11.793  18.306  0.00  0.00    -0.017 C 
ATOM     26  C   UNL     1      -5.592 -10.321  17.998  0.00  0.00    +0.012 C 
ATOM     27  C   UNL     1      -3.832 -11.812  18.928  0.00  0.00    +0.012 C 
BRANCH  21  25
ATOM     25  C   UNL     1      -5.249 -12.574  16.971  0.00  0.00    +0.127 C 
BRANCH  25  30
ATOM      3  O   UNL     1      -6.668 -14.533  16.859  0.00  0.00    -0.251 OA
ATOM     30  C   UNL     1      -5.570 -14.047  17.099  0.00  0.00    +0.305 C 
BRANCH  30   2
ATOM      2  O   UNL     1      -4.511 -14.783  17.519  0.00  0.00    -0.481 OA
ATOM     36  H   UNL     1      -3.690 -14.551  17.037  0.00  0.00    +0.295 HD
ENDBRANCH  30   2
ENDBRANCH  25  30
ENDBRANCH  21  25
ENDBRANCH  22  21
ENDBRANCH  20  22
ENDBRANCH  14   4
ENDBRANCH   8  14
BRANCH  10  15
ATOM     15  C   UNL     1      -6.919 -10.100  14.852  0.00  0.00    +0.082 C 
BRANCH  15  19
ATOM      5  N   UNL     1      -6.473  -9.090  12.607  0.00  0.00    -0.342 N 
ATOM      6  N   UNL     1      -4.892 -10.439  13.396  0.00  0.00    -0.232 NA
ATOM     19  C   UNL     1      -6.067  -9.900  13.632  0.00  0.00    +0.109 A 
ATOM     23  C   UNL     1      -5.494  -9.108  11.646  0.00  0.00    +0.066 A 
ATOM     24  C   UNL     1      -4.519  -9.957  12.163  0.00  0.00    +0.092 A 
ATOM     28  C   UNL     1      -3.356 -10.200  11.413  0.00  0.00    -0.023 A 
ATOM     29  C   UNL     1      -5.381  -8.476  10.408  0.00  0.00    +0.028 A 
ATOM     31  C   UNL     1      -3.221  -9.575  10.167  0.00  0.00    +0.005 A 
ATOM     32  C   UNL     1      -4.217  -8.728   9.676  0.00  0.00    +0.002 A 
ATOM     33  C   UNL     1      -2.262 -11.096  11.894  0.00  0.00    +0.046 C 
ATOM     35  H   UNL     1      -7.339  -8.570  12.563  0.00  0.00    +0.167 HD
ENDBRANCH  15  19
ENDBRANCH  10  15
TORSDOF 10
ENDMDL
MODEL 4
REMARK VINA RESULT:      -6.1     26.108     28.590
REMARK  Name = 71693203
REMARK  16 active torsions:
REMARK  status: ('A' for Active; 'I' for Inactive)
REMARK    1  A    between atoms: O_2  and  C_30
REMARK    2  A    between atoms: N_4  and  C_14
REMARK    3  A    between atoms: C_7  and  C_11
REMARK    4  A    between atoms: C_8  and  C_14
REMARK    5  A    between atoms: C_10  and  C_15
REMARK    6  A    between atoms: C_11  and  C_16
REMARK    7  A    between atoms: C_11  and  C_17
REMARK    8  A    between atoms: C_12  and  C_18
REMARK    9  A    between atoms: C_15  and  C_19
REMARK   10  A    between atoms: C_20  and  C_22
REMARK   11  A    between atoms: C_21  and  C_22
REMARK   12  A    between atoms: C_21  and  C_25
REMARK   13  A    between atoms: C_21  and  C_26
REMARK   14  A    between atoms: C_21  and  C_27
REMARK   15  A    between atoms: C_25  and  C_30
REMARK   16  A    between atoms: C_28  and  C_33
REMARK                            x       y       z     vdW  Elec       q    Type
REMARK                         _______ _______ _______ _____ _____    ______ ____
ROOT
ATOM      7  C   UNL     1      -5.469 -11.301  17.351  0.00  0.00    +0.000 C 
ATOM      8  C   UNL     1      -6.377 -11.033  18.577  0.00  0.00    +0.032 C 
ATOM      9  C   UNL     1      -5.247 -10.007  16.554  0.00  0.00    +0.012 C 
ATOM     10  C   UNL     1      -6.571  -9.395  16.056  0.00  0.00    +0.022 C 
ATOM     12  C   UNL     1      -7.615  -9.344  17.153  0.00  0.00    -0.073 C 
ATOM     13  C   UNL     1      -7.505 -10.073  18.278  0.00  0.00    -0.022 C 
ATOM     18  C   UNL     1      -8.768  -8.402  16.946  0.00  0.00    +0.039 C 
ENDROOT
BRANCH   7  11
ATOM     11  C   UNL     1      -4.117 -11.893  17.763  0.00  0.00    -0.013 C 
ATOM     16  C   UNL     1      -3.952 -11.840  19.278  0.00  0.00    +0.007 C 
ATOM     17  C   UNL     1      -2.978 -11.154  17.068  0.00  0.00    +0.007 C 
ENDBRANCH   7  11
BRANCH   8  14
ATOM     14  C   UNL     1      -6.953 -12.339  19.135  0.00  0.00    +0.112 C 
BRANCH  14   4
ATOM      1  O   UNL     1      -8.879 -14.058  17.864  0.00  0.00    -0.276 OA
ATOM      4  N   UNL     1      -8.375 -12.260  19.245  0.00  0.00    -0.315 N 
ATOM     20  C   UNL     1      -9.240 -13.137  18.593  0.00  0.00    +0.214 C 
ATOM     34  H   UNL     1      -8.775 -11.567  19.872  0.00  0.00    +0.149 HD
BRANCH  20  22
ATOM     22  C   UNL     1     -10.710 -12.859  18.865  0.00  0.00    +0.102 C 
BRANCH  22  21
ATOM     21  C   UNL     1     -11.343 -11.765  17.969  0.00  0.00    -0.017 C 
ATOM     26  C   UNL     1     -10.644 -11.725  16.593  0.00  0.00    +0.012 C 
ATOM     27  C   UNL     1     -12.818 -12.143  17.727  0.00  0.00    +0.012 C 
BRANCH  21  25
ATOM     25  C   UNL     1     -11.249 -10.351  18.591  0.00  0.00    +0.127 C 
BRANCH  25  30
ATOM      3  O   UNL     1     -12.369 -10.417  20.737  0.00  0.00    -0.251 OA
ATOM     30  C   UNL     1     -11.328 -10.316  20.102  0.00  0.00    +0.305 C 
BRANCH  30   2
ATOM      2  O   UNL     1     -10.117 -10.152  20.690  0.00  0.00    -0.481 OA
ATOM     36  H   UNL     1     -10.111  -9.393  21.310  0.00  0.00    +0.295 HD
ENDBRANCH  30   2
ENDBRANCH  25  30
ENDBRANCH  21  25
ENDBRANCH  22  21
ENDBRANCH  20  22
ENDBRANCH  14   4
ENDBRANCH   8  14
BRANCH  10  15
ATOM     15  C   UNL     1      -7.099 -10.147  14.829  0.00  0.00    +0.082 C 
BRANCH  15  19
ATOM      5  N   UNL     1      -6.563  -9.087  12.627  0.00  0.00    -0.342 N 
ATOM      6  N   UNL     1      -5.051 -10.515  13.410  0.00  0.00    -0.232 NA
ATOM     19  C   UNL     1      -6.212  -9.941  13.636  0.00  0.00    +0.109 A 
ATOM     23  C   UNL     1      -5.563  -9.112  11.689  0.00  0.00    +0.066 A 
ATOM     24  C   UNL     1      -4.632 -10.011  12.201  0.00  0.00    +0.092 A 
ATOM     28  C   UNL     1      -3.460 -10.273  11.471  0.00  0.00    -0.023 A 
ATOM     29  C   UNL     1      -5.399  -8.447  10.473  0.00  0.00    +0.028 A 
ATOM     31  C   UNL     1      -3.274  -9.616  10.248  0.00  0.00    +0.005 A 
ATOM     32  C   UNL     1      -4.227  -8.720   9.760  0.00  0.00    +0.002 A 
ATOM     33  C   UNL     1      -2.410 -11.222  11.949  0.00  0.00    +0.046 C 
ATOM     35  H   UNL     1      -7.409  -8.535  12.579  0.00  0.00    +0.167 HD
ENDBRANCH  15  19
ENDBRANCH  10  15
TORSDOF 10
ENDMDL
MODEL 5
REMARK VINA RESULT:      -5.8     23.515     26.068
REMARK  Name = 71693203
REMARK  16 active torsions:
REMARK  status: ('A' for Active; 'I' for Inactive)
REMARK    1  A    between atoms: O_2  and  C_30
REMARK    2  A    between atoms: N_4  and  C_14
REMARK    3  A    between atoms: C_7  and  C_11
REMARK    4  A    between atoms: C_8  and  C_14
REMARK    5  A    between atoms: C_10  and  C_15
REMARK    6  A    between atoms: C_11  and  C_16
REMARK    7  A    between atoms: C_11  and  C_17
REMARK    8  A    between atoms: C_12  and  C_18
REMARK    9  A    between atoms: C_15  and  C_19
REMARK   10  A    between atoms: C_20  and  C_22
REMARK   11  A    between atoms: C_21  and  C_22
REMARK   12  A    between atoms: C_21  and  C_25
REMARK   13  A    between atoms: C_21  and  C_26
REMARK   14  A    between atoms: C_21  and  C_27
REMARK   15  A    between atoms: C_25  and  C_30
REMARK   16  A    between atoms: C_28  and  C_33
REMARK                            x       y       z     vdW  Elec       q    Type
REMARK                         _______ _______ _______ _____ _____    ______ ____
ROOT
ATOM      7  C   UNL     1      -3.316 -12.411  13.546  0.00  0.00    +0.000 C 
ATOM      8  C   UNL     1      -2.019 -11.599  13.787  0.00  0.00    +0.032 C 
ATOM      9  C   UNL     1      -3.544 -12.624  12.043  0.00  0.00    +0.012 C 
ATOM     10  C   UNL     1      -3.653 -11.293  11.274  0.00  0.00    +0.022 C 
ATOM     12  C   UNL     1      -2.550 -10.329  11.662  0.00  0.00    -0.073 C 
ATOM     13  C   UNL     1      -1.822 -10.488  12.782  0.00  0.00    -0.022 C 
ATOM     18  C   UNL     1      -2.274  -9.199  10.709  0.00  0.00    +0.039 C 
ENDROOT
BRANCH   7  11
ATOM     11  C   UNL     1      -3.279 -13.765  14.262  0.00  0.00    -0.013 C 
ATOM     16  C   UNL     1      -2.696 -14.836  13.346  0.00  0.00    +0.007 C 
ATOM     17  C   UNL     1      -4.677 -14.157  14.732  0.00  0.00    +0.007 C 
ENDBRANCH   7  11
BRANCH   8  14
ATOM     14  C   UNL     1      -1.986 -11.015  15.204  0.00  0.00    +0.112 C 
BRANCH  14   4
ATOM      1  O   UNL     1      -3.792 -11.440  17.404  0.00  0.00    -0.276 OA
ATOM      4  N   UNL     1      -3.185 -10.288  15.481  0.00  0.00    -0.315 N 
ATOM     20  C   UNL     1      -4.006 -10.559  16.574  0.00  0.00    +0.214 C 
ATOM     34  H   UNL     1      -3.420  -9.499  14.885  0.00  0.00    +0.149 HD
BRANCH  20  22
ATOM     22  C   UNL     1      -5.221  -9.651  16.664  0.00  0.00    +0.102 C 
BRANCH  22  21
ATOM     21  C   UNL     1      -6.586 -10.385  16.639  0.00  0.00    -0.017 C 
ATOM     26  C   UNL     1      -7.745  -9.366  16.657  0.00  0.00    +0.012 C 
ATOM     27  C   UNL     1      -6.680 -11.169  15.314  0.00  0.00    +0.012 C 
BRANCH  21  25
ATOM     25  C   UNL     1      -6.775 -11.342  17.840  0.00  0.00    +0.127 C 
BRANCH  25  30
ATOM      3  O   UNL     1      -6.022 -10.170  19.821  0.00  0.00    -0.251 OA
ATOM     30  C   UNL     1      -6.944 -10.655  19.178  0.00  0.00    +0.305 C 
BRANCH  30   2
ATOM      2  O   UNL     1      -8.231 -10.638  19.604  0.00  0.00    -0.481 OA
ATOM     36  H   UNL     1      -8.831 -11.089  18.973  0.00  0.00    +0.295 HD
ENDBRANCH  30   2
ENDBRANCH  25  30
ENDBRANCH  21  25
ENDBRANCH  22  21
ENDBRANCH  20  22
ENDBRANCH  14   4
ENDBRANCH   8  14
BRANCH  10  15
ATOM     15  C   UNL     1      -5.033 -10.656  11.468  0.00  0.00    +0.082 C 
BRANCH  15  19
ATOM      5  N   UNL     1      -5.166 -10.675   8.970  0.00  0.00    -0.342 N 
ATOM      6  N   UNL     1      -6.536  -9.262  10.004  0.00  0.00    -0.232 NA
ATOM     19  C   UNL     1      -5.602 -10.173  10.165  0.00  0.00    +0.109 A 
ATOM     23  C   UNL     1      -5.864 -10.046   7.972  0.00  0.00    +0.066 A 
ATOM     24  C   UNL     1      -6.712  -9.170   8.643  0.00  0.00    +0.092 A 
ATOM     28  C   UNL     1      -7.583  -8.355   7.899  0.00  0.00    -0.023 A 
ATOM     29  C   UNL     1      -5.828 -10.164   6.582  0.00  0.00    +0.028 A 
ATOM     31  C   UNL     1      -7.564  -8.457   6.502  0.00  0.00    +0.005 A 
ATOM     32  C   UNL     1      -6.702  -9.347   5.858  0.00  0.00    +0.002 A 
ATOM     33  C   UNL     1      -8.525  -7.389   8.541  0.00  0.00    +0.046 C 
ATOM     35  H   UNL     1      -4.455 -11.383   8.843  0.00  0.00    +0.167 HD
ENDBRANCH  15  19
ENDBRANCH  10  15
TORSDOF 10
ENDMDL
MODEL 6
REMARK VINA RESULT:      -5.4     25.894     28.416
REMARK  Name = 71693203
REMARK  16 active torsions:
REMARK  status: ('A' for Active; 'I' for Inactive)
REMARK    1  A    between atoms: O_2  and  C_30
REMARK    2  A    between atoms: N_4  and  C_14
REMARK    3  A    between atoms: C_7  and  C_11
REMARK    4  A    between atoms: C_8  and  C_14
REMARK    5  A    between atoms: C_10  and  C_15
REMARK    6  A    between atoms: C_11  and  C_16
REMARK    7  A    between atoms: C_11  and  C_17
REMARK    8  A    between atoms: C_12  and  C_18
REMARK    9  A    between atoms: C_15  and  C_19
REMARK   10  A    between atoms: C_20  and  C_22
REMARK   11  A    between atoms: C_21  and  C_22
REMARK   12  A    between atoms: C_21  and  C_25
REMARK   13  A    between atoms: C_21  and  C_26
REMARK   14  A    between atoms: C_21  and  C_27
REMARK   15  A    between atoms: C_25  and  C_30
REMARK   16  A    between atoms: C_28  and  C_33
REMARK                            x       y       z     vdW  Elec       q    Type
REMARK                         _______ _______ _______ _____ _____    ______ ____
ROOT
ATOM      7  C   UNL     1      -7.669 -12.425  16.405  0.00  0.00    +0.000 C 
ATOM      8  C   UNL     1      -8.396 -12.627  17.757  0.00  0.00    +0.032 C 
ATOM      9  C   UNL     1      -6.160 -12.666  16.565  0.00  0.00    +0.012 C 
ATOM     10  C   UNL     1      -5.526 -11.724  17.606  0.00  0.00    +0.022 C 
ATOM     12  C   UNL     1      -6.342 -11.665  18.882  0.00  0.00    -0.073 C 
ATOM     13  C   UNL     1      -7.619 -12.085  18.934  0.00  0.00    -0.022 C 
ATOM     18  C   UNL     1      -5.642 -11.152  20.110  0.00  0.00    +0.039 C 
ENDROOT
BRANCH   7  11
ATOM     11  C   UNL     1      -8.227 -13.345  15.315  0.00  0.00    -0.013 C 
ATOM     16  C   UNL     1      -7.979 -14.806  15.672  0.00  0.00    +0.007 C 
ATOM     17  C   UNL     1      -7.608 -13.005  13.962  0.00  0.00    +0.007 C 
ENDBRANCH   7  11
BRANCH   8  14
ATOM     14  C   UNL     1      -9.793 -11.997  17.734  0.00  0.00    +0.112 C 
BRANCH  14   4
ATOM      1  O   UNL     1     -10.720  -9.684  19.174  0.00  0.00    -0.276 OA
ATOM      4  N   UNL     1      -9.728 -10.636  17.302  0.00  0.00    -0.315 N 
ATOM     20  C   UNL     1     -10.202  -9.571  18.066  0.00  0.00    +0.214 C 
ATOM     34  H   UNL     1      -9.264 -10.429  16.422  0.00  0.00    +0.149 HD
BRANCH  20  22
ATOM     22  C   UNL     1     -10.020  -8.216  17.401  0.00  0.00    +0.102 C 
BRANCH  22  21
ATOM     21  C   UNL     1     -11.142  -7.821  16.407  0.00  0.00    -0.017 C 
ATOM     26  C   UNL     1     -10.793  -8.303  14.983  0.00  0.00    +0.012 C 
ATOM     27  C   UNL     1     -12.434  -8.548  16.836  0.00  0.00    +0.012 C 
BRANCH  21  25
ATOM     25  C   UNL     1     -11.383  -6.294  16.349  0.00  0.00    +0.127 C 
BRANCH  25  30
ATOM      3  O   UNL     1     -13.384  -6.042  15.008  0.00  0.00    -0.251 OA
ATOM     30  C   UNL     1     -12.188  -5.824  15.157  0.00  0.00    +0.305 C 
BRANCH  30   2
ATOM      2  O   UNL     1     -11.445  -5.137  14.255  0.00  0.00    -0.481 OA
ATOM     36  H   UNL     1     -11.775  -5.258  13.340  0.00  0.00    +0.295 HD
ENDBRANCH  30   2
ENDBRANCH  25  30
ENDBRANCH  21  25
ENDBRANCH  22  21
ENDBRANCH  20  22
ENDBRANCH  14   4
ENDBRANCH   8  14
BRANCH  10  15
ATOM     15  C   UNL     1      -5.314 -10.322  17.025  0.00  0.00    +0.082 C 
BRANCH  15  19
ATOM      5  N   UNL     1      -3.367 -10.585  15.475  0.00  0.00    -0.342 N 
ATOM      6  N   UNL     1      -5.341 -10.262  14.506  0.00  0.00    -0.232 NA
ATOM     19  C   UNL     1      -4.708 -10.384  15.652  0.00  0.00    +0.109 A 
ATOM     23  C   UNL     1      -3.118 -10.593  14.127  0.00  0.00    +0.066 A 
ATOM     24  C   UNL     1      -4.367 -10.389  13.545  0.00  0.00    +0.092 A 
ATOM     28  C   UNL     1      -4.469 -10.343  12.144  0.00  0.00    -0.023 A 
ATOM     29  C   UNL     1      -1.946 -10.755  13.389  0.00  0.00    +0.028 A 
ATOM     31  C   UNL     1      -3.304 -10.503  11.382  0.00  0.00    +0.005 A 
ATOM     32  C   UNL     1      -2.066 -10.705  11.996  0.00  0.00    +0.002 A 
ATOM     33  C   UNL     1      -5.770 -10.129  11.440  0.00  0.00    +0.046 C 
ATOM     35  H   UNL     1      -2.679 -10.706  16.207  0.00  0.00    +0.167 HD
ENDBRANCH  15  19
ENDBRANCH  10  15
TORSDOF 10
ENDMDL
MODEL 7
REMARK VINA RESULT:      -5.4      2.108      4.366
REMARK  Name = 71693203
REMARK  16 active torsions:
REMARK  status: ('A' for Active; 'I' for Inactive)
REMARK    1  A    between atoms: O_2  and  C_30
REMARK    2  A    between atoms: N_4  and  C_14
REMARK    3  A    between atoms: C_7  and  C_11
REMARK    4  A    between atoms: C_8  and  C_14
REMARK    5  A    between atoms: C_10  and  C_15
REMARK    6  A    between atoms: C_11  and  C_16
REMARK    7  A    between atoms: C_11  and  C_17
REMARK    8  A    between atoms: C_12  and  C_18
REMARK    9  A    between atoms: C_15  and  C_19
REMARK   10  A    between atoms: C_20  and  C_22
REMARK   11  A    between atoms: C_21  and  C_22
REMARK   12  A    between atoms: C_21  and  C_25
REMARK   13  A    between atoms: C_21  and  C_26
REMARK   14  A    between atoms: C_21  and  C_27
REMARK   15  A    between atoms: C_25  and  C_30
REMARK   16  A    between atoms: C_28  and  C_33
REMARK                            x       y       z     vdW  Elec       q    Type
REMARK                         _______ _______ _______ _____ _____    ______ ____
ROOT
ATOM      7  C   UNL     1      10.381   6.828   6.158  0.00  0.00    +0.000 C 
ATOM      8  C   UNL     1      10.359   7.818   7.349  0.00  0.00    +0.032 C 
ATOM      9  C   UNL     1      11.818   6.372   5.866  0.00  0.00    +0.012 C 
ATOM     10  C   UNL     1      12.750   7.553   5.535  0.00  0.00    +0.022 C 
ATOM     12  C   UNL     1      12.588   8.691   6.523  0.00  0.00    -0.073 C 
ATOM     13  C   UNL     1      11.519   8.786   7.335  0.00  0.00    -0.022 C 
ATOM     18  C   UNL     1      13.706   9.694   6.589  0.00  0.00    +0.039 C 
ENDROOT
BRANCH   7  11
ATOM     11  C   UNL     1       9.492   5.608   6.416  0.00  0.00    -0.013 C 
ATOM     16  C   UNL     1       9.789   5.014   7.789  0.00  0.00    +0.007 C 
ATOM     17  C   UNL     1       9.689   4.564   5.321  0.00  0.00    +0.007 C 
ENDBRANCH   7  11
BRANCH   8  14
ATOM     14  C   UNL     1       9.042   8.602   7.393  0.00  0.00    +0.112 C 
BRANCH  14   4
ATOM      1  O   UNL     1       8.921  11.382   6.658  0.00  0.00    -0.276 OA
ATOM      4  N   UNL     1       8.725   9.134   6.105  0.00  0.00    -0.315 N 
ATOM     20  C   UNL     1       8.689  10.501   5.833  0.00  0.00    +0.214 C 
ATOM     34  H   UNL     1       8.574   8.486   5.337  0.00  0.00    +0.149 HD
BRANCH  20  22
ATOM     22  C   UNL     1       8.334  10.827   4.391  0.00  0.00    +0.102 C 
BRANCH  22  21
ATOM     21  C   UNL     1       9.545  10.943   3.432  0.00  0.00    -0.017 C 
ATOM     26  C   UNL     1       9.335  12.107   2.439  0.00  0.00    +0.012 C 
ATOM     27  C   UNL     1      10.791  11.278   4.278  0.00  0.00    +0.012 C 
BRANCH  21  25
ATOM     25  C   UNL     1       9.788   9.655   2.611  0.00  0.00    +0.127 C 
BRANCH  25  30
ATOM      3  O   UNL     1       7.620   8.986   1.763  0.00  0.00    -0.251 OA
ATOM     30  C   UNL     1       8.583   8.749   2.482  0.00  0.00    +0.305 C 
BRANCH  30   2
ATOM      2  O   UNL     1       8.671   7.639   3.256  0.00  0.00    -0.481 OA
ATOM     36  H   UNL     1       8.217   6.871   2.847  0.00  0.00    +0.295 HD
ENDBRANCH  30   2
ENDBRANCH  25  30
ENDBRANCH  21  25
ENDBRANCH  22  21
ENDBRANCH  20  22
ENDBRANCH  14   4
ENDBRANCH   8  14
BRANCH  10  15
ATOM     15  C   UNL     1      12.535   8.040   4.098  0.00  0.00    +0.082 C 
BRANCH  15  19
ATOM      5  N   UNL     1      13.696   6.145   2.948  0.00  0.00    -0.342 N 
ATOM      6  N   UNL     1      11.584   6.493   2.351  0.00  0.00    -0.232 NA
ATOM     19  C   UNL     1      12.568   6.899   3.122  0.00  0.00    +0.109 A 
ATOM     23  C   UNL     1      13.421   5.191   2.003  0.00  0.00    +0.066 A 
ATOM     24  C   UNL     1      12.097   5.430   1.646  0.00  0.00    +0.092 A 
ATOM     28  C   UNL     1      11.490   4.611   0.678  0.00  0.00    -0.023 A 
ATOM     29  C   UNL     1      14.193   4.171   1.446  0.00  0.00    +0.028 A 
ATOM     31  C   UNL     1      12.246   3.581   0.105  0.00  0.00    +0.005 A 
ATOM     32  C   UNL     1      13.573   3.366   0.484  0.00  0.00    +0.002 A 
ATOM     33  C   UNL     1      10.074   4.800   0.240  0.00  0.00    +0.046 C 
ATOM     35  H   UNL     1      14.577   6.268   3.430  0.00  0.00    +0.167 HD
ENDBRANCH  15  19
ENDBRANCH  10  15
TORSDOF 10
ENDMDL
MODEL 8
REMARK VINA RESULT:      -5.4     25.580     28.450
REMARK  Name = 71693203
REMARK  16 active torsions:
REMARK  status: ('A' for Active; 'I' for Inactive)
REMARK    1  A    between atoms: O_2  and  C_30
REMARK    2  A    between atoms: N_4  and  C_14
REMARK    3  A    between atoms: C_7  and  C_11
REMARK    4  A    between atoms: C_8  and  C_14
REMARK    5  A    between atoms: C_10  and  C_15
REMARK    6  A    between atoms: C_11  and  C_16
REMARK    7  A    between atoms: C_11  and  C_17
REMARK    8  A    between atoms: C_12  and  C_18
REMARK    9  A    between atoms: C_15  and  C_19
REMARK   10  A    between atoms: C_20  and  C_22
REMARK   11  A    between atoms: C_21  and  C_22
REMARK   12  A    between atoms: C_21  and  C_25
REMARK   13  A    between atoms: C_21  and  C_26
REMARK   14  A    between atoms: C_21  and  C_27
REMARK   15  A    between atoms: C_25  and  C_30
REMARK   16  A    between atoms: C_28  and  C_33
REMARK                            x       y       z     vdW  Elec       q    Type
REMARK                         _______ _______ _______ _____ _____    ______ ____
ROOT
ATOM      7  C   UNL     1      -5.392 -11.423  17.004  0.00  0.00    +0.000 C 
ATOM      8  C   UNL     1      -4.104 -12.009  16.373  0.00  0.00    +0.032 C 
ATOM      9  C   UNL     1      -6.471 -12.509  17.124  0.00  0.00    +0.012 C 
ATOM     10  C   UNL     1      -6.834 -13.125  15.759  0.00  0.00    +0.022 C 
ATOM     12  C   UNL     1      -5.598 -13.484  14.959  0.00  0.00    -0.073 C 
ATOM     13  C   UNL     1      -4.384 -12.986  15.255  0.00  0.00    -0.022 C 
ATOM     18  C   UNL     1      -5.782 -14.466  13.834  0.00  0.00    +0.039 C 
ENDROOT
BRANCH   7  11
ATOM     11  C   UNL     1      -5.121 -10.808  18.380  0.00  0.00    -0.013 C 
ATOM     16  C   UNL     1      -4.402 -11.808  19.279  0.00  0.00    +0.007 C 
ATOM     17  C   UNL     1      -6.425 -10.344  19.022  0.00  0.00    +0.007 C 
ENDBRANCH   7  11
BRANCH   8  14
ATOM     14  C   UNL     1      -3.185 -10.895  15.857  0.00  0.00    +0.112 C 
BRANCH  14   4
ATOM      1  O   UNL     1      -1.542 -10.966  13.495  0.00  0.00    -0.276 OA
ATOM      4  N   UNL     1      -3.563 -10.495  14.539  0.00  0.00    -0.315 N 
ATOM     20  C   UNL     1      -2.702 -10.563  13.445  0.00  0.00    +0.214 C 
ATOM     34  H   UNL     1      -4.522 -10.200  14.379  0.00  0.00    +0.149 HD
BRANCH  20  22
ATOM     22  C   UNL     1      -3.329 -10.087  12.144  0.00  0.00    +0.102 C 
BRANCH  22  21
ATOM     21  C   UNL     1      -4.284 -11.105  11.472  0.00  0.00    -0.017 C 
ATOM     26  C   UNL     1      -4.360 -10.848   9.952  0.00  0.00    +0.012 C 
ATOM     27  C   UNL     1      -3.694 -12.516  11.672  0.00  0.00    +0.012 C 
BRANCH  21  25
ATOM     25  C   UNL     1      -5.723 -11.043  12.038  0.00  0.00    +0.127 C 
BRANCH  25  30
ATOM      3  O   UNL     1      -6.515  -8.801  11.578  0.00  0.00    -0.251 OA
ATOM     30  C   UNL     1      -6.204  -9.655  12.399  0.00  0.00    +0.305 C 
BRANCH  30   2
ATOM      2  O   UNL     1      -6.248  -9.443  13.738  0.00  0.00    -0.481 OA
ATOM     36  H   UNL     1      -5.529  -8.847  14.038  0.00  0.00    +0.295 HD
ENDBRANCH  30   2
ENDBRANCH  25  30
ENDBRANCH  21  25
ENDBRANCH  22  21
ENDBRANCH  20  22
ENDBRANCH  14   4
ENDBRANCH   8  14
BRANCH  10  15
ATOM     15  C   UNL     1      -7.754 -12.195  14.961  0.00  0.00    +0.082 C 
BRANCH  15  19
ATOM      5  N   UNL     1      -9.713 -12.349  16.510  0.00  0.00    -0.342 N 
ATOM      6  N   UNL     1      -8.984 -10.296  16.068  0.00  0.00    -0.232 NA
ATOM     19  C   UNL     1      -8.804 -11.578  15.839  0.00  0.00    +0.109 A 
ATOM     23  C   UNL     1     -10.532 -11.509  17.219  0.00  0.00    +0.066 A 
ATOM     24  C   UNL     1     -10.057 -10.234  16.926  0.00  0.00    +0.092 A 
ATOM     28  C   UNL     1     -10.688  -9.119  17.504  0.00  0.00    -0.023 A 
ATOM     29  C   UNL     1     -11.616 -11.747  18.066  0.00  0.00    +0.028 A 
ATOM     31  C   UNL     1     -11.778  -9.334  18.356  0.00  0.00    +0.005 A 
ATOM     32  C   UNL     1     -12.232 -10.626  18.631  0.00  0.00    +0.002 A 
ATOM     33  C   UNL     1     -10.241  -7.717  17.242  0.00  0.00    +0.046 C 
ATOM     35  H   UNL     1      -9.771 -13.358  16.489  0.00  0.00    +0.167 HD
ENDBRANCH  15  19
ENDBRANCH  10  15
TORSDOF 10
ENDMDL
MODEL 9
REMARK VINA RESULT:      -5.3      2.534      6.097
REMARK  Name = 71693203
REMARK  16 active torsions:
REMARK  status: ('A' for Active; 'I' for Inactive)
REMARK    1  A    between atoms: O_2  and  C_30
REMARK    2  A    between atoms: N_4  and  C_14
REMARK    3  A    between atoms: C_7  and  C_11
REMARK    4  A    between atoms: C_8  and  C_14
REMARK    5  A    between atoms: C_10  and  C_15
REMARK    6  A    between atoms: C_11  and  C_16
REMARK    7  A    between atoms: C_11  and  C_17
REMARK    8  A    between atoms: C_12  and  C_18
REMARK    9  A    between atoms: C_15  and  C_19
REMARK   10  A    between atoms: C_20  and  C_22
REMARK   11  A    between atoms: C_21  and  C_22
REMARK   12  A    between atoms: C_21  and  C_25
REMARK   13  A    between atoms: C_21  and  C_26
REMARK   14  A    between atoms: C_21  and  C_27
REMARK   15  A    between atoms: C_25  and  C_30
REMARK   16  A    between atoms: C_28  and  C_33
REMARK                            x       y       z     vdW  Elec       q    Type
REMARK                         _______ _______ _______ _____ _____    ______ ____
ROOT
ATOM      7  C   UNL     1       9.777   6.170   7.070  0.00  0.00    +0.000 C 
ATOM      8  C   UNL     1       9.482   5.592   5.664  0.00  0.00    +0.032 C 
ATOM      9  C   UNL     1       8.624   7.074   7.531  0.00  0.00    +0.012 C 
ATOM     10  C   UNL     1       8.380   8.248   6.563  0.00  0.00    +0.022 C 
ATOM     12  C   UNL     1       8.344   7.787   5.120  0.00  0.00    -0.073 C 
ATOM     13  C   UNL     1       8.829   6.592   4.738  0.00  0.00    -0.022 C 
ATOM     18  C   UNL     1       7.696   8.716   4.130  0.00  0.00    +0.039 C 
ENDROOT
BRANCH   7  11
ATOM     11  C   UNL     1      10.012   5.063   8.102  0.00  0.00    -0.013 C 
ATOM     16  C   UNL     1       9.523   3.722   7.565  0.00  0.00    +0.007 C 
ATOM     17  C   UNL     1       9.317   5.405   9.417  0.00  0.00    +0.007 C 
ENDBRANCH   7  11
BRANCH   8  14
ATOM     14  C   UNL     1      10.757   5.049   5.010  0.00  0.00    +0.112 C 
BRANCH  14   4
ATOM      1  O   UNL     1      11.307   3.402   2.714  0.00  0.00    -0.276 OA
ATOM      4  N   UNL     1      10.853   5.479   3.650  0.00  0.00    -0.315 N 
ATOM     20  C   UNL     1      11.123   4.611   2.593  0.00  0.00    +0.214 C 
ATOM     34  H   UNL     1      10.659   6.453   3.436  0.00  0.00    +0.149 HD
BRANCH  20  22
ATOM     22  C   UNL     1      11.171   5.297   1.238  0.00  0.00    +0.102 C 
BRANCH  22  21
ATOM     21  C   UNL     1      12.563   5.300   0.558  0.00  0.00    -0.017 C 
ATOM     26  C   UNL     1      12.732   4.047  -0.329  0.00  0.00    +0.012 C 
ATOM     27  C   UNL     1      12.639   6.533  -0.366  0.00  0.00    +0.012 C 
BRANCH  21  25
ATOM     25  C   UNL     1      13.728   5.323   1.575  0.00  0.00    +0.127 C 
BRANCH  25  30
ATOM      3  O   UNL     1      14.566   3.075   1.903  0.00  0.00    -0.251 OA
ATOM     30  C   UNL     1      14.723   4.192   1.428  0.00  0.00    +0.305 C 
BRANCH  30   2
ATOM      2  O   UNL     1      15.822   4.545   0.715  0.00  0.00    -0.481 OA
ATOM     36  H   UNL     1      16.155   5.431   0.972  0.00  0.00    +0.295 HD
ENDBRANCH  30   2
ENDBRANCH  25  30
ENDBRANCH  21  25
ENDBRANCH  22  21
ENDBRANCH  20  22
ENDBRANCH  14   4
ENDBRANCH   8  14
BRANCH  10  15
ATOM     15  C   UNL     1       9.423   9.353   6.761  0.00  0.00    +0.082 C 
BRANCH  15  19
ATOM      5  N   UNL     1      11.728   8.425   7.055  0.00  0.00    -0.342 N 
ATOM      6  N   UNL     1      11.176   9.013   4.984  0.00  0.00    -0.232 NA
ATOM     19  C   UNL     1      10.766   8.940   6.231  0.00  0.00    +0.109 A 
ATOM     23  C   UNL     1      12.831   8.146   6.290  0.00  0.00    +0.066 A 
ATOM     24  C   UNL     1      12.461   8.523   5.001  0.00  0.00    +0.092 A 
ATOM     28  C   UNL     1      13.381   8.365   3.951  0.00  0.00    -0.023 A 
ATOM     29  C   UNL     1      14.082   7.615   6.603  0.00  0.00    +0.028 A 
ATOM     31  C   UNL     1      14.644   7.834   4.243  0.00  0.00    +0.005 A 
ATOM     32  C   UNL     1      14.986   7.465   5.546  0.00  0.00    +0.002 A 
ATOM     33  C   UNL     1      13.064   8.743   2.541  0.00  0.00    +0.046 C 
ATOM     35  H   UNL     1      11.643   8.275   8.052  0.00  0.00    +0.167 HD
ENDBRANCH  15  19
ENDBRANCH  10  15
TORSDOF 10
ENDMDL
MODEL 10
REMARK VINA RESULT:      -5.3     26.463     28.929
REMARK  Name = 71693203
REMARK  16 active torsions:
REMARK  status: ('A' for Active; 'I' for Inactive)
REMARK    1  A    between atoms: O_2  and  C_30
REMARK    2  A    between atoms: N_4  and  C_14
REMARK    3  A    between atoms: C_7  and  C_11
REMARK    4  A    between atoms: C_8  and  C_14
REMARK    5  A    between atoms: C_10  and  C_15
REMARK    6  A    between atoms: C_11  and  C_16
REMARK    7  A    between atoms: C_11  and  C_17
REMARK    8  A    between atoms: C_12  and  C_18
REMARK    9  A    between atoms: C_15  and  C_19
REMARK   10  A    between atoms: C_20  and  C_22
REMARK   11  A    between atoms: C_21  and  C_22
REMARK   12  A    between atoms: C_21  and  C_25
REMARK   13  A    between atoms: C_21  and  C_26
REMARK   14  A    between atoms: C_21  and  C_27
REMARK   15  A    between atoms: C_25  and  C_30
REMARK   16  A    between atoms: C_28  and  C_33
REMARK                            x       y       z     vdW  Elec       q    Type
REMARK                         _______ _______ _______ _____ _____    ______ ____
ROOT
ATOM      7  C   UNL     1      -6.199 -11.444  17.649  0.00  0.00    +0.000 C 
ATOM      8  C   UNL     1      -7.257 -10.971  18.678  0.00  0.00    +0.032 C 
ATOM      9  C   UNL     1      -5.689 -10.255  16.821  0.00  0.00    +0.012 C 
ATOM     10  C   UNL     1      -6.824  -9.543  16.061  0.00  0.00    +0.022 C 
ATOM     12  C   UNL     1      -8.020  -9.282  16.954  0.00  0.00    -0.073 C 
ATOM     13  C   UNL     1      -8.191  -9.920  18.126  0.00  0.00    -0.022 C 
ATOM     18  C   UNL     1      -8.996  -8.236  16.488  0.00  0.00    +0.039 C 
ENDROOT
BRANCH   7  11
ATOM     11  C   UNL     1      -5.020 -12.147  18.328  0.00  0.00    -0.013 C 
ATOM     16  C   UNL     1      -3.734 -11.357  18.114  0.00  0.00    +0.007 C 
ATOM     17  C   UNL     1      -4.875 -13.572  17.802  0.00  0.00    +0.007 C 
ENDBRANCH   7  11
BRANCH   8  14
ATOM     14  C   UNL     1      -8.077 -12.152  19.211  0.00  0.00    +0.112 C 
BRANCH  14   4
ATOM      1  O   UNL     1     -10.770 -13.020  18.685  0.00  0.00    -0.276 OA
ATOM      4  N   UNL     1      -9.266 -11.693  19.857  0.00  0.00    -0.315 N 
ATOM     20  C   UNL     1     -10.537 -12.168  19.540  0.00  0.00    +0.214 C 
ATOM     34  H   UNL     1      -9.177 -11.029  20.621  0.00  0.00    +0.149 HD
BRANCH  20  22
ATOM     22  C   UNL     1     -11.648 -11.536  20.363  0.00  0.00    +0.102 C 
BRANCH  22  21
ATOM     21  C   UNL     1     -12.566 -10.563  19.580  0.00  0.00    -0.017 C 
ATOM     26  C   UNL     1     -13.667 -11.346  18.833  0.00  0.00    +0.012 C 
ATOM     27  C   UNL     1     -13.266  -9.643  20.601  0.00  0.00    +0.012 C 
BRANCH  21  25
ATOM     25  C   UNL     1     -11.795  -9.716  18.540  0.00  0.00    +0.127 C 
BRANCH  25  30
ATOM      3  O   UNL     1     -12.141 -10.345  16.227  0.00  0.00    -0.251 OA
ATOM     30  C   UNL     1     -12.448  -9.637  17.177  0.00  0.00    +0.305 C 
BRANCH  30   2
ATOM      2  O   UNL     1     -13.412  -8.686  17.108  0.00  0.00    -0.481 OA
ATOM     36  H   UNL     1     -14.302  -9.053  17.296  0.00  0.00    +0.295 HD
ENDBRANCH  30   2
ENDBRANCH  25  30
ENDBRANCH  21  25
ENDBRANCH  22  21
ENDBRANCH  20  22
ENDBRANCH  14   4
ENDBRANCH   8  14
BRANCH  10  15
ATOM     15  C   UNL     1      -7.232 -10.332  14.812  0.00  0.00    +0.082 C 
BRANCH  15  19
ATOM      5  N   UNL     1      -6.605  -9.184  12.680  0.00  0.00    -0.342 N 
ATOM      6  N   UNL     1      -5.119 -10.633  13.475  0.00  0.00    -0.232 NA
ATOM     19  C   UNL     1      -6.293 -10.075  13.670  0.00  0.00    +0.109 A 
ATOM     23  C   UNL     1      -5.563  -9.166  11.788  0.00  0.00    +0.066 A 
ATOM     24  C   UNL     1      -4.649 -10.079  12.307  0.00  0.00    +0.092 A 
ATOM     28  C   UNL     1      -3.444 -10.306  11.621  0.00  0.00    -0.023 A 
ATOM     29  C   UNL     1      -5.348  -8.453  10.609  0.00  0.00    +0.028 A 
ATOM     31  C   UNL     1      -3.207  -9.601  10.435  0.00  0.00    +0.005 A 
ATOM     32  C   UNL     1      -4.143  -8.691   9.940  0.00  0.00    +0.002 A 
ATOM     33  C   UNL     1      -2.410 -11.268  12.110  0.00  0.00    +0.046 C 
ATOM     35  H   UNL     1      -7.451  -8.635  12.616  0.00  0.00    +0.167 HD
ENDBRANCH  15  19
ENDBRANCH  10  15
TORSDOF 10
ENDMDL
