MODEL 1
REMARK VINA RESULT:      -8.3      0.000      0.000
REMARK  Name = 45783309
REMARK  5 active torsions:
REMARK  status: ('A' for Active; 'I' for Inactive)
REMARK    1  A    between atoms: N_3  and  C_16
REMARK    2  A    between atoms: C_9  and  C_19
REMARK    3  A    between atoms: C_13  and  C_22
REMARK    4  A    between atoms: C_16  and  C_20
REMARK    5  A    between atoms: C_23  and  C_25
REMARK                            x       y       z     vdW  Elec       q    Type
REMARK                         _______ _______ _______ _____ _____    ______ ____
ROOT
ATOM      1  O   UNL     1      14.222   6.578  20.468  0.00  0.00    -0.336 OA
ATOM      5  N   UNL     1      15.753   7.779  19.356  0.00  0.00    -0.190 NA
ATOM      6  N   UNL     1      15.386   6.545  21.248  0.00  0.00    -0.056 NA
ATOM     19  C   UNL     1      14.525   7.325  19.373  0.00  0.00    +0.245 A 
ATOM     23  C   UNL     1      16.242   7.275  20.527  0.00  0.00    +0.202 A 
ENDROOT
BRANCH  23  25
ATOM      4  N   UNL     1      20.660   5.666  21.618  0.00  0.00    -0.315 N 
ATOM      7  N   UNL     1      20.226   7.990  21.756  0.00  0.00    -0.240 NA
ATOM     13  C   UNL     1      22.525   3.465  21.944  0.00  0.00    +0.078 C 
ATOM     14  C   UNL     1      22.171   4.403  23.097  0.00  0.00    +0.031 C 
ATOM     15  C   UNL     1      21.418   3.436  20.893  0.00  0.00    +0.031 C 
ATOM     17  C   UNL     1      21.726   5.786  22.620  0.00  0.00    +0.107 C 
ATOM     18  C   UNL     1      20.957   4.828  20.453  0.00  0.00    +0.107 C 
ATOM     21  C   UNL     1      19.777   6.743  21.485  0.00  0.00    +0.122 A 
ATOM     24  C   UNL     1      18.483   6.457  21.080  0.00  0.00    +0.055 A 
ATOM     25  C   UNL     1      17.593   7.518  20.945  0.00  0.00    +0.027 A 
ATOM     28  C   UNL     1      18.019   8.813  21.214  0.00  0.00    +0.031 A 
ATOM     29  C   UNL     1      19.333   8.995  21.613  0.00  0.00    +0.113 A 
BRANCH  13  22
ATOM      2  O   UNL     1      24.656   4.550  21.936  0.00  0.00    -0.276 OA
ATOM      8  N   UNL     1      24.039   3.347  20.074  0.00  0.00    -0.329 N 
ATOM     22  C   UNL     1      23.845   3.844  21.341  0.00  0.00    +0.214 C 
ATOM     33  H   UNL     1      24.899   3.538  19.570  0.00  0.00    +0.145 HD
ATOM     34  H   UNL     1      23.333   2.818  19.573  0.00  0.00    +0.145 HD
ENDBRANCH  13  22
ENDBRANCH  23  25
BRANCH  19   9
ATOM      3  N   UNL     1      12.592   8.709  18.637  0.00  0.00    -0.287 NA
ATOM      9  C   UNL     1      13.416   7.516  18.360  0.00  0.00    +0.146 C 
ATOM     10  C   UNL     1      13.948   7.732  16.930  0.00  0.00    +0.030 C 
ATOM     11  C   UNL     1      13.322   9.039  16.466  0.00  0.00    +0.017 C 
ATOM     12  C   UNL     1      12.095   9.178  17.343  0.00  0.00    +0.085 C 
BRANCH   3  16
ATOM     16  C   UNL     1      11.512   8.454  19.580  0.00  0.00    +0.120 C 
BRANCH  16  20
ATOM     20  C   UNL     1      11.560   9.394  20.756  0.00  0.00    -0.033 A 
ATOM     26  C   UNL     1      10.872   9.081  21.928  0.00  0.00    +0.005 A 
ATOM     27  C   UNL     1      12.291  10.579  20.671  0.00  0.00    +0.005 A 
ATOM     30  C   UNL     1      10.918   9.953  23.016  0.00  0.00    +0.000 A 
ATOM     31  C   UNL     1      12.336  11.450  21.759  0.00  0.00    +0.000 A 
ATOM     32  C   UNL     1      11.649  11.137  22.931  0.00  0.00    +0.000 A 
ENDBRANCH  16  20
ENDBRANCH   3  16
ENDBRANCH  19   9
TORSDOF 5
ENDMDL
MODEL 2
REMARK VINA RESULT:      -8.2     30.045     33.670
REMARK  Name = 45783309
REMARK  5 active torsions:
REMARK  status: ('A' for Active; 'I' for Inactive)
REMARK    1  A    between atoms: N_3  and  C_16
REMARK    2  A    between atoms: C_9  and  C_19
REMARK    3  A    between atoms: C_13  and  C_22
REMARK    4  A    between atoms: C_16  and  C_20
REMARK    5  A    between atoms: C_23  and  C_25
REMARK                            x       y       z     vdW  Elec       q    Type
REMARK                         _______ _______ _______ _____ _____    ______ ____
ROOT
ATOM      1  O   UNL     1     -16.927   2.488  22.457  0.00  0.00    -0.336 OA
ATOM      5  N   UNL     1     -17.100   3.534  24.432  0.00  0.00    -0.190 NA
ATOM      6  N   UNL     1     -17.127   1.484  23.414  0.00  0.00    -0.056 NA
ATOM     19  C   UNL     1     -16.924   3.663  23.141  0.00  0.00    +0.245 A 
ATOM     23  C   UNL     1     -17.220   2.179  24.552  0.00  0.00    +0.202 A 
ENDROOT
BRANCH  23  25
ATOM      4  N   UNL     1     -15.900   1.410  29.131  0.00  0.00    -0.315 N 
ATOM      7  N   UNL     1     -17.841   0.333  28.307  0.00  0.00    -0.240 NA
ATOM     13  C   UNL     1     -14.053   1.862  31.325  0.00  0.00    +0.078 C 
ATOM     14  C   UNL     1     -14.327   0.464  30.772  0.00  0.00    +0.031 C 
ATOM     15  C   UNL     1     -14.346   2.937  30.281  0.00  0.00    +0.031 C 
ATOM     17  C   UNL     1     -15.704   0.344  30.121  0.00  0.00    +0.107 C 
ATOM     18  C   UNL     1     -15.712   2.782  29.611  0.00  0.00    +0.107 C 
ATOM     21  C   UNL     1     -16.796   1.162  28.085  0.00  0.00    +0.122 A 
ATOM     24  C   UNL     1     -16.549   1.790  26.875  0.00  0.00    +0.055 A 
ATOM     25  C   UNL     1     -17.430   1.551  25.826  0.00  0.00    +0.027 A 
ATOM     28  C   UNL     1     -18.516   0.706  26.016  0.00  0.00    +0.031 A 
ATOM     29  C   UNL     1     -18.676   0.126  27.264  0.00  0.00    +0.113 A 
BRANCH  13  22
ATOM      2  O   UNL     1     -15.397   3.159  32.818  0.00  0.00    -0.276 OA
ATOM      8  N   UNL     1     -14.832   1.018  33.443  0.00  0.00    -0.329 N 
ATOM     22  C   UNL     1     -14.832   2.093  32.585  0.00  0.00    +0.214 C 
ATOM     33  H   UNL     1     -15.330   1.061  34.326  0.00  0.00    +0.145 HD
ATOM     34  H   UNL     1     -14.309   0.168  33.263  0.00  0.00    +0.145 HD
ENDBRANCH  13  22
ENDBRANCH  23  25
BRANCH  19   9
ATOM      3  N   UNL     1     -15.390   4.978  21.688  0.00  0.00    -0.287 NA
ATOM      9  C   UNL     1     -16.723   4.920  22.320  0.00  0.00    +0.146 C 
ATOM     10  C   UNL     1     -17.717   5.031  21.149  0.00  0.00    +0.030 C 
ATOM     11  C   UNL     1     -16.853   5.208  19.910  0.00  0.00    +0.017 C 
ATOM     12  C   UNL     1     -15.550   5.754  20.458  0.00  0.00    +0.085 C 
BRANCH   3  16
ATOM     16  C   UNL     1     -14.365   5.536  22.559  0.00  0.00    +0.120 C 
BRANCH  16  20
ATOM     20  C   UNL     1     -13.538   6.579  21.855  0.00  0.00    -0.033 A 
ATOM     26  C   UNL     1     -13.946   7.913  21.861  0.00  0.00    +0.005 A 
ATOM     27  C   UNL     1     -12.366   6.211  21.195  0.00  0.00    +0.005 A 
ATOM     30  C   UNL     1     -13.179   8.879  21.207  0.00  0.00    +0.000 A 
ATOM     31  C   UNL     1     -11.599   7.176  20.542  0.00  0.00    +0.000 A 
ATOM     32  C   UNL     1     -12.007   8.510  20.548  0.00  0.00    +0.000 A 
ENDBRANCH  16  20
ENDBRANCH   3  16
ENDBRANCH  19   9
TORSDOF 5
ENDMDL
MODEL 3
REMARK VINA RESULT:      -8.1      1.306      3.085
REMARK  Name = 45783309
REMARK  5 active torsions:
REMARK  status: ('A' for Active; 'I' for Inactive)
REMARK    1  A    between atoms: N_3  and  C_16
REMARK    2  A    between atoms: C_9  and  C_19
REMARK    3  A    between atoms: C_13  and  C_22
REMARK    4  A    between atoms: C_16  and  C_20
REMARK    5  A    between atoms: C_23  and  C_25
REMARK                            x       y       z     vdW  Elec       q    Type
REMARK                         _______ _______ _______ _____ _____    ______ ____
ROOT
ATOM      1  O   UNL     1      14.658   6.848  20.314  0.00  0.00    -0.336 OA
ATOM      5  N   UNL     1      15.670   8.448  21.513  0.00  0.00    -0.190 NA
ATOM      6  N   UNL     1      16.029   6.559  20.272  0.00  0.00    -0.056 NA
ATOM     19  C   UNL     1      14.534   7.975  21.064  0.00  0.00    +0.245 A 
ATOM     23  C   UNL     1      16.558   7.546  21.002  0.00  0.00    +0.202 A 
ENDROOT
BRANCH  23  25
ATOM      4  N   UNL     1      20.893   5.526  21.658  0.00  0.00    -0.315 N 
ATOM      7  N   UNL     1      20.718   7.888  21.687  0.00  0.00    -0.240 NA
ATOM     13  C   UNL     1      22.550   3.155  21.906  0.00  0.00    +0.078 C 
ATOM     14  C   UNL     1      22.443   4.189  23.026  0.00  0.00    +0.031 C 
ATOM     15  C   UNL     1      21.321   3.190  21.001  0.00  0.00    +0.031 C 
ATOM     17  C   UNL     1      22.084   5.583  22.513  0.00  0.00    +0.107 C 
ATOM     18  C   UNL     1      20.952   4.597  20.526  0.00  0.00    +0.107 C 
ATOM     21  C   UNL     1      20.113   6.684  21.559  0.00  0.00    +0.122 A 
ATOM     24  C   UNL     1      18.756   6.519  21.335  0.00  0.00    +0.055 A 
ATOM     25  C   UNL     1      17.969   7.662  21.236  0.00  0.00    +0.027 A 
ATOM     28  C   UNL     1      18.555   8.916  21.362  0.00  0.00    +0.031 A 
ATOM     29  C   UNL     1      19.921   8.975  21.585  0.00  0.00    +0.113 A 
BRANCH  13  22
ATOM      2  O   UNL     1      24.706   4.108  21.504  0.00  0.00    -0.276 OA
ATOM      8  N   UNL     1      23.860   2.634  19.952  0.00  0.00    -0.329 N 
ATOM     22  C   UNL     1      23.814   3.354  21.124  0.00  0.00    +0.214 C 
ATOM     33  H   UNL     1      24.670   2.689  19.343  0.00  0.00    +0.145 HD
ATOM     34  H   UNL     1      23.088   2.064  19.623  0.00  0.00    +0.145 HD
ENDBRANCH  13  22
ENDBRANCH  23  25
BRANCH  19   9
ATOM      3  N   UNL     1      12.442   8.786  19.989  0.00  0.00    -0.287 NA
ATOM      9  C   UNL     1      13.129   8.500  21.265  0.00  0.00    +0.146 C 
ATOM     10  C   UNL     1      12.214   7.492  21.985  0.00  0.00    +0.030 C 
ATOM     11  C   UNL     1      11.013   7.319  21.066  0.00  0.00    +0.017 C 
ATOM     12  C   UNL     1      11.013   8.586  20.236  0.00  0.00    +0.085 C 
BRANCH   3  16
ATOM     16  C   UNL     1      12.728  10.116  19.469  0.00  0.00    +0.120 C 
BRANCH  16  20
ATOM     20  C   UNL     1      13.358  10.059  18.102  0.00  0.00    -0.033 A 
ATOM     26  C   UNL     1      13.413   8.850  17.409  0.00  0.00    +0.005 A 
ATOM     27  C   UNL     1      13.888  11.215  17.530  0.00  0.00    +0.005 A 
ATOM     30  C   UNL     1      13.997   8.798  16.143  0.00  0.00    +0.000 A 
ATOM     31  C   UNL     1      14.471  11.163  16.264  0.00  0.00    +0.000 A 
ATOM     32  C   UNL     1      14.526   9.954  15.571  0.00  0.00    +0.000 A 
ENDBRANCH  16  20
ENDBRANCH   3  16
ENDBRANCH  19   9
TORSDOF 5
ENDMDL
MODEL 4
REMARK VINA RESULT:      -7.7      2.333     10.597
REMARK  Name = 45783309
REMARK  5 active torsions:
REMARK  status: ('A' for Active; 'I' for Inactive)
REMARK    1  A    between atoms: N_3  and  C_16
REMARK    2  A    between atoms: C_9  and  C_19
REMARK    3  A    between atoms: C_13  and  C_22
REMARK    4  A    between atoms: C_16  and  C_20
REMARK    5  A    between atoms: C_23  and  C_25
REMARK                            x       y       z     vdW  Elec       q    Type
REMARK                         _______ _______ _______ _____ _____    ______ ____
ROOT
ATOM      1  O   UNL     1      20.888   6.425  23.012  0.00  0.00    -0.336 OA
ATOM      5  N   UNL     1      20.697   6.827  20.815  0.00  0.00    -0.190 NA
ATOM      6  N   UNL     1      19.544   6.198  22.689  0.00  0.00    -0.056 NA
ATOM     19  C   UNL     1      21.496   6.791  21.852  0.00  0.00    +0.245 A 
ATOM     23  C   UNL     1      19.510   6.455  21.378  0.00  0.00    +0.202 A 
ENDROOT
BRANCH  23  25
ATOM      4  N   UNL     1      14.793   7.301  20.799  0.00  0.00    -0.315 N 
ATOM      7  N   UNL     1      15.966   6.159  19.087  0.00  0.00    -0.240 NA
ATOM     13  C   UNL     1      12.288   8.369  21.806  0.00  0.00    +0.078 C 
ATOM     14  C   UNL     1      12.452   6.893  21.447  0.00  0.00    +0.031 C 
ATOM     15  C   UNL     1      13.632   9.011  22.141  0.00  0.00    +0.031 C 
ATOM     17  C   UNL     1      13.537   6.656  20.396  0.00  0.00    +0.107 C 
ATOM     18  C   UNL     1      14.718   8.734  21.099  0.00  0.00    +0.107 C 
ATOM     21  C   UNL     1      15.984   6.763  20.298  0.00  0.00    +0.122 A 
ATOM     24  C   UNL     1      17.117   6.885  21.086  0.00  0.00    +0.055 A 
ATOM     25  C   UNL     1      18.307   6.353  20.602  0.00  0.00    +0.027 A 
ATOM     28  C   UNL     1      18.328   5.726  19.362  0.00  0.00    +0.031 A 
ATOM     29  C   UNL     1      17.141   5.655  18.650  0.00  0.00    +0.113 A 
BRANCH  13  22
ATOM      2  O   UNL     1      11.887  10.257  20.393  0.00  0.00    -0.276 OA
ATOM      8  N   UNL     1      10.585   8.382  20.101  0.00  0.00    -0.329 N 
ATOM     22  C   UNL     1      11.588   9.106  20.703  0.00  0.00    +0.214 C 
ATOM     33  H   UNL     1      10.045   8.779  19.339  0.00  0.00    +0.145 HD
ATOM     34  H   UNL     1      10.310   7.455  20.411  0.00  0.00    +0.145 HD
ENDBRANCH  13  22
ENDBRANCH  23  25
BRANCH  19   9
ATOM      3  N   UNL     1      23.816   5.927  21.600  0.00  0.00    -0.287 NA
ATOM      9  C   UNL     1      22.977   7.095  21.934  0.00  0.00    +0.146 C 
ATOM     10  C   UNL     1      23.415   8.188  20.941  0.00  0.00    +0.030 C 
ATOM     11  C   UNL     1      24.543   7.563  20.133  0.00  0.00    +0.017 C 
ATOM     12  C   UNL     1      25.056   6.457  21.033  0.00  0.00    +0.085 C 
BRANCH   3  16
ATOM     16  C   UNL     1      24.062   5.053  22.738  0.00  0.00    +0.120 C 
BRANCH  16  20
ATOM     20  C   UNL     1      24.273   3.624  22.312  0.00  0.00    -0.033 A 
ATOM     26  C   UNL     1      23.525   3.092  21.262  0.00  0.00    +0.005 A 
ATOM     27  C   UNL     1      25.214   2.832  22.969  0.00  0.00    +0.005 A 
ATOM     30  C   UNL     1      23.720   1.767  20.868  0.00  0.00    +0.000 A 
ATOM     31  C   UNL     1      25.410   1.508  22.575  0.00  0.00    +0.000 A 
ATOM     32  C   UNL     1      24.662   0.976  21.525  0.00  0.00    +0.000 A 
ENDBRANCH  16  20
ENDBRANCH   3  16
ENDBRANCH  19   9
TORSDOF 5
ENDMDL
MODEL 5
REMARK VINA RESULT:      -7.5     27.946     30.177
REMARK  Name = 45783309
REMARK  5 active torsions:
REMARK  status: ('A' for Active; 'I' for Inactive)
REMARK    1  A    between atoms: N_3  and  C_16
REMARK    2  A    between atoms: C_9  and  C_19
REMARK    3  A    between atoms: C_13  and  C_22
REMARK    4  A    between atoms: C_16  and  C_20
REMARK    5  A    between atoms: C_23  and  C_25
REMARK                            x       y       z     vdW  Elec       q    Type
REMARK                         _______ _______ _______ _____ _____    ______ ____
ROOT
ATOM      1  O   UNL     1      -5.878  -8.060   9.023  0.00  0.00    -0.336 OA
ATOM      5  N   UNL     1      -5.603 -10.220   9.553  0.00  0.00    -0.190 NA
ATOM      6  N   UNL     1      -4.973  -8.087  10.092  0.00  0.00    -0.056 NA
ATOM     19  C   UNL     1      -6.199  -9.357   8.769  0.00  0.00    +0.245 A 
ATOM     23  C   UNL     1      -4.862  -9.394  10.348  0.00  0.00    +0.202 A 
ENDROOT
BRANCH  23  25
ATOM      4  N   UNL     1      -4.233 -10.869  14.901  0.00  0.00    -0.315 N 
ATOM      7  N   UNL     1      -2.383 -10.913  13.422  0.00  0.00    -0.240 NA
ATOM     13  C   UNL     1      -5.294 -11.330  17.564  0.00  0.00    +0.078 C 
ATOM     14  C   UNL     1      -4.125 -10.379  17.312  0.00  0.00    +0.031 C 
ATOM     15  C   UNL     1      -6.153 -11.496  16.312  0.00  0.00    +0.031 C 
ATOM     17  C   UNL     1      -3.333 -10.733  16.053  0.00  0.00    +0.107 C 
ATOM     18  C   UNL     1      -5.343 -11.813  15.054  0.00  0.00    +0.107 C 
ATOM     21  C   UNL     1      -3.692 -10.640  13.631  0.00  0.00    +0.122 A 
ATOM     24  C   UNL     1      -4.544 -10.142  12.658  0.00  0.00    +0.055 A 
ATOM     25  C   UNL     1      -4.020  -9.908  11.391  0.00  0.00    +0.027 A 
ATOM     28  C   UNL     1      -2.680 -10.176  11.139  0.00  0.00    +0.031 A 
ATOM     29  C   UNL     1      -1.911 -10.673  12.178  0.00  0.00    +0.113 A 
BRANCH  13  22
ATOM      2  O   UNL     1      -5.299 -13.717  17.714  0.00  0.00    -0.276 OA
ATOM      8  N   UNL     1      -3.762 -12.550  18.968  0.00  0.00    -0.329 N 
ATOM     22  C   UNL     1      -4.798 -12.652  18.069  0.00  0.00    +0.214 C 
ATOM     33  H   UNL     1      -3.346 -13.381  19.374  0.00  0.00    +0.145 HD
ATOM     34  H   UNL     1      -3.403 -11.660  19.298  0.00  0.00    +0.145 HD
ENDBRANCH  13  22
ENDBRANCH  23  25
BRANCH  19   9
ATOM      3  N   UNL     1      -8.068  -8.449   7.401  0.00  0.00    -0.287 NA
ATOM      9  C   UNL     1      -7.176  -9.601   7.639  0.00  0.00    +0.146 C 
ATOM     10  C   UNL     1      -6.476  -9.840   6.288  0.00  0.00    +0.030 C 
ATOM     11  C   UNL     1      -7.082  -8.816   5.340  0.00  0.00    +0.017 C 
ATOM     12  C   UNL     1      -8.414  -8.481   5.979  0.00  0.00    +0.085 C 
BRANCH   3  16
ATOM     16  C   UNL     1      -9.250  -8.452   8.253  0.00  0.00    +0.120 C 
BRANCH  16  20
ATOM     20  C   UNL     1      -9.701  -7.055   8.589  0.00  0.00    -0.033 A 
ATOM     26  C   UNL     1      -8.894  -5.965   8.267  0.00  0.00    +0.005 A 
ATOM     27  C   UNL     1     -10.926  -6.853   9.225  0.00  0.00    +0.005 A 
ATOM     30  C   UNL     1      -9.313  -4.671   8.579  0.00  0.00    +0.000 A 
ATOM     31  C   UNL     1     -11.345  -5.559   9.536  0.00  0.00    +0.000 A 
ATOM     32  C   UNL     1     -10.538  -4.469   9.214  0.00  0.00    +0.000 A 
ENDBRANCH  16  20
ENDBRANCH   3  16
ENDBRANCH  19   9
TORSDOF 5
ENDMDL
MODEL 6
REMARK VINA RESULT:      -7.4     31.422     34.490
REMARK  Name = 45783309
REMARK  5 active torsions:
REMARK  status: ('A' for Active; 'I' for Inactive)
REMARK    1  A    between atoms: N_3  and  C_16
REMARK    2  A    between atoms: C_9  and  C_19
REMARK    3  A    between atoms: C_13  and  C_22
REMARK    4  A    between atoms: C_16  and  C_20
REMARK    5  A    between atoms: C_23  and  C_25
REMARK                            x       y       z     vdW  Elec       q    Type
REMARK                         _______ _______ _______ _____ _____    ______ ____
ROOT
ATOM      1  O   UNL     1     -14.674   3.878  34.071  0.00  0.00    -0.336 OA
ATOM      5  N   UNL     1     -15.826   4.197  32.176  0.00  0.00    -0.190 NA
ATOM      6  N   UNL     1     -14.486   2.723  33.301  0.00  0.00    -0.056 NA
ATOM     19  C   UNL     1     -15.475   4.694  33.335  0.00  0.00    +0.245 A 
ATOM     23  C   UNL     1     -15.195   2.987  32.200  0.00  0.00    +0.202 A 
ENDROOT
BRANCH  23  25
ATOM      4  N   UNL     1     -16.564   1.939  27.690  0.00  0.00    -0.315 N 
ATOM      7  N   UNL     1     -15.488   0.265  28.974  0.00  0.00    -0.240 NA
ATOM     13  C   UNL     1     -17.836   2.726  25.202  0.00  0.00    +0.078 C 
ATOM     14  C   UNL     1     -18.343   1.547  26.033  0.00  0.00    +0.031 C 
ATOM     15  C   UNL     1     -17.066   3.722  26.066  0.00  0.00    +0.031 C 
ATOM     17  C   UNL     1     -17.248   0.915  26.892  0.00  0.00    +0.107 C 
ATOM     18  C   UNL     1     -16.000   3.069  26.948  0.00  0.00    +0.107 C 
ATOM     21  C   UNL     1     -15.962   1.529  28.885  0.00  0.00    +0.122 A 
ATOM     24  C   UNL     1     -15.891   2.457  29.912  0.00  0.00    +0.055 A 
ATOM     25  C   UNL     1     -15.296   2.063  31.106  0.00  0.00    +0.027 A 
ATOM     28  C   UNL     1     -14.796   0.773  31.234  0.00  0.00    +0.031 A 
ATOM     29  C   UNL     1     -14.916  -0.081  30.149  0.00  0.00    +0.113 A 
BRANCH  13  22
ATOM      2  O   UNL     1     -17.342   1.281  23.362  0.00  0.00    -0.276 OA
ATOM      8  N   UNL     1     -15.847   2.957  23.862  0.00  0.00    -0.329 N 
ATOM     22  C   UNL     1     -17.006   2.242  24.050  0.00  0.00    +0.214 C 
ATOM     33  H   UNL     1     -15.209   2.719  23.110  0.00  0.00    +0.145 HD
ATOM     34  H   UNL     1     -15.554   3.708  24.479  0.00  0.00    +0.145 HD
ENDBRANCH  13  22
ENDBRANCH  23  25
BRANCH  19   9
ATOM      3  N   UNL     1     -14.919   7.111  33.539  0.00  0.00    -0.287 NA
ATOM      9  C   UNL     1     -15.832   6.028  33.956  0.00  0.00    +0.146 C 
ATOM     10  C   UNL     1     -17.234   6.518  33.548  0.00  0.00    +0.030 C 
ATOM     11  C   UNL     1     -17.015   7.907  32.966  0.00  0.00    +0.017 C 
ATOM     12  C   UNL     1     -15.700   8.347  33.577  0.00  0.00    +0.085 C 
BRANCH   3  16
ATOM     16  C   UNL     1     -13.717   7.195  34.357  0.00  0.00    +0.120 C 
BRANCH  16  20
ATOM     20  C   UNL     1     -12.678   8.091  33.735  0.00  0.00    -0.033 A 
ATOM     26  C   UNL     1     -12.367   7.962  32.382  0.00  0.00    +0.005 A 
ATOM     27  C   UNL     1     -12.026   9.047  34.513  0.00  0.00    +0.005 A 
ATOM     30  C   UNL     1     -11.403   8.792  31.806  0.00  0.00    +0.000 A 
ATOM     31  C   UNL     1     -11.064   9.877  33.937  0.00  0.00    +0.000 A 
ATOM     32  C   UNL     1     -10.752   9.748  32.584  0.00  0.00    +0.000 A 
ENDBRANCH  16  20
ENDBRANCH   3  16
ENDBRANCH  19   9
TORSDOF 5
ENDMDL
MODEL 7
REMARK VINA RESULT:      -7.4     16.675     21.099
REMARK  Name = 45783309
REMARK  5 active torsions:
REMARK  status: ('A' for Active; 'I' for Inactive)
REMARK    1  A    between atoms: N_3  and  C_16
REMARK    2  A    between atoms: C_9  and  C_19
REMARK    3  A    between atoms: C_13  and  C_22
REMARK    4  A    between atoms: C_16  and  C_20
REMARK    5  A    between atoms: C_23  and  C_25
REMARK                            x       y       z     vdW  Elec       q    Type
REMARK                         _______ _______ _______ _____ _____    ______ ____
ROOT
ATOM      1  O   UNL     1      11.132   6.969   3.832  0.00  0.00    -0.336 OA
ATOM      5  N   UNL     1      11.011   4.748   3.564  0.00  0.00    -0.190 NA
ATOM      6  N   UNL     1      11.683   6.698   2.573  0.00  0.00    -0.056 NA
ATOM     19  C   UNL     1      10.763   5.767   4.348  0.00  0.00    +0.245 A 
ATOM     23  C   UNL     1      11.575   5.368   2.487  0.00  0.00    +0.202 A 
ENDROOT
BRANCH  23  25
ATOM      4  N   UNL     1      10.808   3.589  -1.935  0.00  0.00    -0.315 N 
ATOM      7  N   UNL     1      12.898   3.195  -0.893  0.00  0.00    -0.240 NA
ATOM     13  C   UNL     1       9.061   3.202  -4.221  0.00  0.00    +0.078 C 
ATOM     14  C   UNL     1       9.642   2.026  -3.438  0.00  0.00    +0.031 C 
ATOM     15  C   UNL     1       9.000   4.463  -3.362  0.00  0.00    +0.031 C 
ATOM     17  C   UNL     1      10.957   2.371  -2.739  0.00  0.00    +0.107 C 
ATOM     18  C   UNL     1      10.312   4.774  -2.640  0.00  0.00    +0.107 C 
ATOM     21  C   UNL     1      11.664   3.747  -0.839  0.00  0.00    +0.122 A 
ATOM     24  C   UNL     1      11.184   4.466   0.243  0.00  0.00    +0.055 A 
ATOM     25  C   UNL     1      12.023   4.629   1.341  0.00  0.00    +0.027 A 
ATOM     28  C   UNL     1      13.299   4.078   1.321  0.00  0.00    +0.031 A 
ATOM     29  C   UNL     1      13.685   3.376   0.191  0.00  0.00    +0.113 A 
BRANCH  13  22
ATOM      2  O   UNL     1      10.398   4.502  -5.718  0.00  0.00    -0.276 OA
ATOM      8  N   UNL     1       9.850   2.354  -6.334  0.00  0.00    -0.329 N 
ATOM     22  C   UNL     1       9.841   3.433  -5.481  0.00  0.00    +0.214 C 
ATOM     33  H   UNL     1      10.348   2.396  -7.216  0.00  0.00    +0.145 HD
ATOM     34  H   UNL     1       9.332   1.500  -6.151  0.00  0.00    +0.145 HD
ENDBRANCH  13  22
ENDBRANCH  23  25
BRANCH  19   9
ATOM      3  N   UNL     1      10.630   6.897   6.561  0.00  0.00    -0.287 NA
ATOM      9  C   UNL     1      10.130   5.788   5.723  0.00  0.00    +0.146 C 
ATOM     10  C   UNL     1       8.604   5.993   5.673  0.00  0.00    +0.030 C 
ATOM     11  C   UNL     1       8.337   7.201   6.559  0.00  0.00    +0.017 C 
ATOM     12  C   UNL     1       9.543   7.247   7.475  0.00  0.00    +0.085 C 
BRANCH   3  16
ATOM     16  C   UNL     1      11.859   6.570   7.271  0.00  0.00    +0.120 C 
BRANCH  16  20
ATOM     20  C   UNL     1      12.981   7.509   6.911  0.00  0.00    -0.033 A 
ATOM     26  C   UNL     1      14.239   7.001   6.589  0.00  0.00    +0.005 A 
ATOM     27  C   UNL     1      12.761   8.886   6.902  0.00  0.00    +0.005 A 
ATOM     30  C   UNL     1      15.277   7.872   6.256  0.00  0.00    +0.000 A 
ATOM     31  C   UNL     1      13.799   9.756   6.569  0.00  0.00    +0.000 A 
ATOM     32  C   UNL     1      15.057   9.249   6.247  0.00  0.00    +0.000 A 
ENDBRANCH  16  20
ENDBRANCH   3  16
ENDBRANCH  19   9
TORSDOF 5
ENDMDL
MODEL 8
REMARK VINA RESULT:      -7.3     26.738     29.912
REMARK  Name = 45783309
REMARK  5 active torsions:
REMARK  status: ('A' for Active; 'I' for Inactive)
REMARK    1  A    between atoms: N_3  and  C_16
REMARK    2  A    between atoms: C_9  and  C_19
REMARK    3  A    between atoms: C_13  and  C_22
REMARK    4  A    between atoms: C_16  and  C_20
REMARK    5  A    between atoms: C_23  and  C_25
REMARK                            x       y       z     vdW  Elec       q    Type
REMARK                         _______ _______ _______ _____ _____    ______ ____
ROOT
ATOM      1  O   UNL     1      -4.862 -11.737  19.209  0.00  0.00    -0.336 OA
ATOM      5  N   UNL     1      -5.569 -10.822  17.290  0.00  0.00    -0.190 NA
ATOM      6  N   UNL     1      -3.741 -11.674  18.371  0.00  0.00    -0.056 NA
ATOM     19  C   UNL     1      -5.895 -11.216  18.495  0.00  0.00    +0.245 A 
ATOM     23  C   UNL     1      -4.238 -11.122  17.260  0.00  0.00    +0.202 A 
ENDROOT
BRANCH  23  25
ATOM      4  N   UNL     1      -3.774 -10.662  12.476  0.00  0.00    -0.315 N 
ATOM      7  N   UNL     1      -1.866 -10.349  13.843  0.00  0.00    -0.240 NA
ATOM     13  C   UNL     1      -4.937 -10.752   9.818  0.00  0.00    +0.078 C 
ATOM     14  C   UNL     1      -3.773 -11.655  10.223  0.00  0.00    +0.031 C 
ATOM     15  C   UNL     1      -5.741 -10.304  11.036  0.00  0.00    +0.031 C 
ATOM     17  C   UNL     1      -2.925 -11.060  11.348  0.00  0.00    +0.107 C 
ATOM     18  C   UNL     1      -4.876  -9.746  12.167  0.00  0.00    +0.107 C 
ATOM     21  C   UNL     1      -3.186 -10.629  13.746  0.00  0.00    +0.122 A 
ATOM     24  C   UNL     1      -4.005 -10.889  14.832  0.00  0.00    +0.055 A 
ATOM     25  C   UNL     1      -3.432 -10.862  16.100  0.00  0.00    +0.027 A 
ATOM     28  C   UNL     1      -2.080 -10.577  16.240  0.00  0.00    +0.031 A 
ATOM     29  C   UNL     1      -1.346 -10.330  15.091  0.00  0.00    +0.113 A 
BRANCH  13  22
ATOM      2  O   UNL     1      -3.469  -8.916   9.375  0.00  0.00    -0.276 OA
ATOM      8  N   UNL     1      -5.189  -9.317   7.899  0.00  0.00    -0.329 N 
ATOM     22  C   UNL     1      -4.443  -9.579   9.024  0.00  0.00    +0.214 C 
ATOM     33  H   UNL     1      -4.945  -8.547   7.285  0.00  0.00    +0.145 HD
ATOM     34  H   UNL     1      -6.027  -9.835   7.658  0.00  0.00    +0.145 HD
ENDBRANCH  13  22
ENDBRANCH  23  25
BRANCH  19   9
ATOM      3  N   UNL     1      -8.330 -10.747  18.289  0.00  0.00    -0.287 NA
ATOM      9  C   UNL     1      -7.239 -11.169  19.190  0.00  0.00    +0.146 C 
ATOM     10  C   UNL     1      -7.682 -12.546  19.722  0.00  0.00    +0.030 C 
ATOM     11  C   UNL     1      -9.056 -12.784  19.113  0.00  0.00    +0.017 C 
ATOM     12  C   UNL     1      -9.548 -11.389  18.785  0.00  0.00    +0.085 C 
BRANCH   3  16
ATOM     16  C   UNL     1      -8.471  -9.301  18.197  0.00  0.00    +0.120 C 
BRANCH  16  20
ATOM     20  C   UNL     1      -9.307  -8.893  17.013  0.00  0.00    -0.033 A 
ATOM     26  C   UNL     1      -9.124  -9.521  15.781  0.00  0.00    +0.005 A 
ATOM     27  C   UNL     1     -10.264  -7.887  17.147  0.00  0.00    +0.005 A 
ATOM     30  C   UNL     1      -9.899  -9.143  14.684  0.00  0.00    +0.000 A 
ATOM     31  C   UNL     1     -11.039  -7.510  16.051  0.00  0.00    +0.000 A 
ATOM     32  C   UNL     1     -10.855  -8.138  14.819  0.00  0.00    +0.000 A 
ENDBRANCH  16  20
ENDBRANCH   3  16
ENDBRANCH  19   9
TORSDOF 5
ENDMDL
MODEL 9
REMARK VINA RESULT:      -7.3     26.952     31.071
REMARK  Name = 45783309
REMARK  5 active torsions:
REMARK  status: ('A' for Active; 'I' for Inactive)
REMARK    1  A    between atoms: N_3  and  C_16
REMARK    2  A    between atoms: C_9  and  C_19
REMARK    3  A    between atoms: C_13  and  C_22
REMARK    4  A    between atoms: C_16  and  C_20
REMARK    5  A    between atoms: C_23  and  C_25
REMARK                            x       y       z     vdW  Elec       q    Type
REMARK                         _______ _______ _______ _____ _____    ______ ____
ROOT
ATOM      1  O   UNL     1      -4.264 -13.115  15.996  0.00  0.00    -0.336 OA
ATOM      5  N   UNL     1      -4.795 -10.952  16.244  0.00  0.00    -0.190 NA
ATOM      6  N   UNL     1      -5.492 -13.089  16.669  0.00  0.00    -0.056 NA
ATOM     19  C   UNL     1      -3.924 -11.816  15.784  0.00  0.00    +0.245 A 
ATOM     23  C   UNL     1      -5.739 -11.780  16.777  0.00  0.00    +0.202 A 
ENDROOT
BRANCH  23  25
ATOM      4  N   UNL     1      -9.777  -9.136  16.654  0.00  0.00    -0.315 N 
ATOM      7  N   UNL     1      -9.216 -10.271  18.656  0.00  0.00    -0.240 NA
ATOM     13  C   UNL     1     -11.585  -7.375  15.221  0.00  0.00    +0.078 C 
ATOM     14  C   UNL     1     -10.895  -6.947  16.515  0.00  0.00    +0.031 C 
ATOM     15  C   UNL     1     -10.800  -8.476  14.512  0.00  0.00    +0.031 C 
ATOM     17  C   UNL     1     -10.530  -8.130  17.412  0.00  0.00    +0.107 C 
ATOM     18  C   UNL     1     -10.410  -9.636  15.431  0.00  0.00    +0.107 C 
ATOM     21  C   UNL     1      -8.912  -9.970  17.373  0.00  0.00    +0.122 A 
ATOM     24  C   UNL     1      -7.787 -10.438  16.713  0.00  0.00    +0.055 A 
ATOM     25  C   UNL     1      -6.918 -11.266  17.416  0.00  0.00    +0.027 A 
ATOM     28  C   UNL     1      -7.197 -11.598  18.736  0.00  0.00    +0.031 A 
ATOM     29  C   UNL     1      -8.349 -11.078  19.306  0.00  0.00    +0.113 A 
BRANCH  13  22
ATOM      2  O   UNL     1     -13.380  -8.952  15.326  0.00  0.00    -0.276 OA
ATOM      8  N   UNL     1     -13.812  -6.769  15.915  0.00  0.00    -0.329 N 
ATOM     22  C   UNL     1     -12.999  -7.795  15.491  0.00  0.00    +0.214 C 
ATOM     33  H   UNL     1     -14.789  -6.938  16.130  0.00  0.00    +0.145 HD
ATOM     34  H   UNL     1     -13.496  -5.807  15.986  0.00  0.00    +0.145 HD
ENDBRANCH  13  22
ENDBRANCH  23  25
BRANCH  19   9
ATOM      3  N   UNL     1      -2.757 -10.614  13.944  0.00  0.00    -0.287 NA
ATOM      9  C   UNL     1      -2.617 -11.570  15.061  0.00  0.00    +0.146 C 
ATOM     10  C   UNL     1      -1.541 -10.951  15.973  0.00  0.00    +0.030 C 
ATOM     11  C   UNL     1      -1.093  -9.685  15.258  0.00  0.00    +0.017 C 
ATOM     12  C   UNL     1      -1.463  -9.943  13.811  0.00  0.00    +0.085 C 
BRANCH   3  16
ATOM     16  C   UNL     1      -3.179 -11.244  12.701  0.00  0.00    +0.120 C 
BRANCH  16  20
ATOM     20  C   UNL     1      -3.804 -10.252  11.755  0.00  0.00    -0.033 A 
ATOM     26  C   UNL     1      -5.040  -9.683  12.059  0.00  0.00    +0.005 A 
ATOM     27  C   UNL     1      -3.147  -9.905  10.575  0.00  0.00    +0.005 A 
ATOM     30  C   UNL     1      -5.619  -8.764  11.183  0.00  0.00    +0.000 A 
ATOM     31  C   UNL     1      -3.726  -8.986   9.699  0.00  0.00    +0.000 A 
ATOM     32  C   UNL     1      -4.962  -8.416  10.003  0.00  0.00    +0.000 A 
ENDBRANCH  16  20
ENDBRANCH   3  16
ENDBRANCH  19   9
TORSDOF 5
ENDMDL
MODEL 10
REMARK VINA RESULT:      -7.0      2.915      9.787
REMARK  Name = 45783309
REMARK  5 active torsions:
REMARK  status: ('A' for Active; 'I' for Inactive)
REMARK    1  A    between atoms: N_3  and  C_16
REMARK    2  A    between atoms: C_9  and  C_19
REMARK    3  A    between atoms: C_13  and  C_22
REMARK    4  A    between atoms: C_16  and  C_20
REMARK    5  A    between atoms: C_23  and  C_25
REMARK                            x       y       z     vdW  Elec       q    Type
REMARK                         _______ _______ _______ _____ _____    ______ ____
ROOT
ATOM      1  O   UNL     1      20.727   7.155  22.954  0.00  0.00    -0.336 OA
ATOM      5  N   UNL     1      20.176   5.442  21.619  0.00  0.00    -0.190 NA
ATOM      6  N   UNL     1      19.527   7.518  22.329  0.00  0.00    -0.056 NA
ATOM     19  C   UNL     1      21.039   5.920  22.480  0.00  0.00    +0.245 A 
ATOM     23  C   UNL     1      19.266   6.457  21.559  0.00  0.00    +0.202 A 
ENDROOT
BRANCH  23  25
ATOM      4  N   UNL     1      14.566   7.247  20.788  0.00  0.00    -0.315 N 
ATOM      7  N   UNL     1      15.850   6.239  19.072  0.00  0.00    -0.240 NA
ATOM     13  C   UNL     1      11.990   8.201  21.728  0.00  0.00    +0.078 C 
ATOM     14  C   UNL     1      12.206   6.754  21.286  0.00  0.00    +0.031 C 
ATOM     15  C   UNL     1      13.301   8.846  22.172  0.00  0.00    +0.031 C 
ATOM     17  C   UNL     1      13.348   6.605  20.281  0.00  0.00    +0.107 C 
ATOM     18  C   UNL     1      14.444   8.656  21.173  0.00  0.00    +0.107 C 
ATOM     21  C   UNL     1      15.793   6.765  20.318  0.00  0.00    +0.122 A 
ATOM     24  C   UNL     1      16.881   6.859  21.170  0.00  0.00    +0.055 A 
ATOM     25  C   UNL     1      18.106   6.382  20.716  0.00  0.00    +0.027 A 
ATOM     28  C   UNL     1      18.204   5.835  19.442  0.00  0.00    +0.031 A 
ATOM     29  C   UNL     1      17.057   5.787  18.666  0.00  0.00    +0.113 A 
BRANCH  13  22
ATOM      2  O   UNL     1      10.583   8.472  19.813  0.00  0.00    -0.276 OA
ATOM      8  N   UNL     1      11.659  10.328  20.645  0.00  0.00    -0.329 N 
ATOM     22  C   UNL     1      11.330   8.992  20.638  0.00  0.00    +0.214 C 
ATOM     33  H   UNL     1      11.269  10.960  19.954  0.00  0.00    +0.145 HD
ATOM     34  H   UNL     1      12.327  10.729  21.295  0.00  0.00    +0.145 HD
ENDBRANCH  13  22
ENDBRANCH  23  25
BRANCH  19   9
ATOM      3  N   UNL     1      22.297   5.134  24.477  0.00  0.00    -0.287 NA
ATOM      9  C   UNL     1      22.312   5.296  23.010  0.00  0.00    +0.146 C 
ATOM     10  C   UNL     1      22.552   3.876  22.462  0.00  0.00    +0.030 C 
ATOM     11  C   UNL     1      22.719   2.998  23.693  0.00  0.00    +0.017 C 
ATOM     12  C   UNL     1      23.138   3.973  24.774  0.00  0.00    +0.085 C 
BRANCH   3  16
ATOM     16  C   UNL     1      22.735   6.325  25.191  0.00  0.00    +0.120 C 
BRANCH  16  20
ATOM     20  C   UNL     1      21.833   6.645  26.354  0.00  0.00    -0.033 A 
ATOM     26  C   UNL     1      21.332   5.616  27.151  0.00  0.00    +0.005 A 
ATOM     27  C   UNL     1      21.497   7.970  26.632  0.00  0.00    +0.005 A 
ATOM     30  C   UNL     1      20.496   5.914  28.229  0.00  0.00    +0.000 A 
ATOM     31  C   UNL     1      20.662   8.267  27.709  0.00  0.00    +0.000 A 
ATOM     32  C   UNL     1      20.161   7.238  28.506  0.00  0.00    +0.000 A 
ENDBRANCH  16  20
ENDBRANCH   3  16
ENDBRANCH  19   9
TORSDOF 5
ENDMDL
