MODEL 1
REMARK VINA RESULT:      -7.5      0.000      0.000
REMARK  Name = 25313506
REMARK  8 active torsions:
REMARK  status: ('A' for Active; 'I' for Inactive)
REMARK    1  A    between atoms: O_4  and  C_25
REMARK    2  A    between atoms: O_4  and  C_33
REMARK    3  A    between atoms: N_7  and  C_23
REMARK    4  A    between atoms: C_9  and  C_13
REMARK    5  A    between atoms: C_10  and  C_15
REMARK    6  A    between atoms: C_13  and  C_16
REMARK    7  A    between atoms: C_15  and  C_17
REMARK    8  A    between atoms: C_24  and  C_27
REMARK                            x       y       z     vdW  Elec       q    Type
REMARK                         _______ _______ _______ _____ _____    ______ ____
ROOT
ATOM      5  N   UNL     1     -10.131 -10.668  14.631  0.00  0.00    -0.316 NA
ATOM      9  C   UNL     1      -9.513  -9.875  17.404  0.00  0.00    +0.004 C 
ATOM     10  C   UNL     1     -10.589  -9.163  16.552  0.00  0.00    +0.012 C 
ATOM     11  C   UNL     1      -9.318 -11.306  16.874  0.00  0.00    +0.019 C 
ATOM     12  C   UNL     1     -10.287  -9.274  15.048  0.00  0.00    +0.085 C 
ATOM     14  C   UNL     1      -9.064 -11.340  15.368  0.00  0.00    +0.081 C 
ATOM     37  H   UNL     1      -9.925 -10.700  13.632  0.00  0.00    +0.122 HD
ENDROOT
BRANCH   9  13
ATOM     13  C   UNL     1      -8.174  -9.131  17.470  0.00  0.00    +0.100 C 
BRANCH  13  16
ATOM      2  O   UNL     1      -7.375 -10.431  19.283  0.00  0.00    -0.276 OA
ATOM      6  N   UNL     1      -5.961 -10.221  17.454  0.00  0.00    -0.298 N 
ATOM      7  N   UNL     1      -4.242 -11.709  15.781  0.00  0.00    -0.324 N 
ATOM     16  C   UNL     1      -7.140  -9.986  18.157  0.00  0.00    +0.216 C 
ATOM     18  C   UNL     1      -5.644  -9.712  16.118  0.00  0.00    +0.126 C 
ATOM     19  C   UNL     1      -4.893 -11.019  18.053  0.00  0.00    +0.126 C 
ATOM     20  C   UNL     1      -5.276 -10.858  15.176  0.00  0.00    +0.124 C 
ATOM     21  C   UNL     1      -4.518 -12.188  17.145  0.00  0.00    +0.124 C 
BRANCH   7  23
ATOM     23  C   UNL     1      -3.439 -12.509  14.961  0.00  0.00    +0.072 A 
ATOM     25  C   UNL     1      -2.285 -11.991  14.374  0.00  0.00    +0.141 A 
ATOM     26  C   UNL     1      -3.801 -13.837  14.735  0.00  0.00    +0.027 A 
ATOM     28  C   UNL     1      -1.492 -12.800  13.560  0.00  0.00    +0.047 A 
ATOM     29  C   UNL     1      -3.008 -14.646  13.920  0.00  0.00    +0.002 A 
ATOM     30  C   UNL     1      -1.854 -14.128  13.333  0.00  0.00    +0.004 A 
BRANCH  25   4
ATOM      4  O   UNL     1      -1.914 -10.695  14.583  0.00  0.00    -0.493 OA
ATOM     33  C   UNL     1      -1.085 -10.433  15.712  0.00  0.00    +0.277 C 
ENDBRANCH  25   4
ENDBRANCH   7  23
ENDBRANCH  13  16
ENDBRANCH   9  13
BRANCH  10  15
ATOM     15  C   UNL     1     -10.798  -7.702  16.951  0.00  0.00    +0.064 C 
BRANCH  15  17
ATOM      3  O   UNL     1     -13.655  -6.529  15.099  0.00  0.00    -0.354 OA
ATOM      8  N   UNL     1     -13.061  -7.334  16.062  0.00  0.00    -0.083 NA
ATOM     17  C   UNL     1     -11.763  -7.016  16.027  0.00  0.00    +0.085 A 
ATOM     22  C   UNL     1     -11.483  -6.024  15.071  0.00  0.00    +0.076 A 
ATOM     24  C   UNL     1     -12.705  -5.753  14.515  0.00  0.00    +0.167 A 
BRANCH  24  27
ATOM      1  F   UNL     1     -14.520  -2.294  10.554  0.00  0.00    -0.205 F 
ATOM     27  C   UNL     1     -13.173  -4.862  13.494  0.00  0.00    +0.020 A 
ATOM     31  C   UNL     1     -12.265  -4.269  12.616  0.00  0.00    +0.014 A 
ATOM     32  C   UNL     1     -14.536  -4.587  13.378  0.00  0.00    +0.014 A 
ATOM     34  C   UNL     1     -12.720  -3.401  11.623  0.00  0.00    +0.039 A 
ATOM     35  C   UNL     1     -14.990  -3.719  12.385  0.00  0.00    +0.039 A 
ATOM     36  C   UNL     1     -14.083  -3.127  11.507  0.00  0.00    +0.123 A 
ENDBRANCH  24  27
ENDBRANCH  15  17
ENDBRANCH  10  15
TORSDOF 7
ENDMDL
MODEL 2
REMARK VINA RESULT:      -7.4     27.603     31.008
REMARK  Name = 25313506
REMARK  8 active torsions:
REMARK  status: ('A' for Active; 'I' for Inactive)
REMARK    1  A    between atoms: O_4  and  C_25
REMARK    2  A    between atoms: O_4  and  C_33
REMARK    3  A    between atoms: N_7  and  C_23
REMARK    4  A    between atoms: C_9  and  C_13
REMARK    5  A    between atoms: C_10  and  C_15
REMARK    6  A    between atoms: C_13  and  C_16
REMARK    7  A    between atoms: C_15  and  C_17
REMARK    8  A    between atoms: C_24  and  C_27
REMARK                            x       y       z     vdW  Elec       q    Type
REMARK                         _______ _______ _______ _____ _____    ______ ____
ROOT
ATOM      5  N   UNL     1      12.094   9.073  17.611  0.00  0.00    -0.316 NA
ATOM      9  C   UNL     1      14.083   7.151  18.636  0.00  0.00    +0.004 C 
ATOM     10  C   UNL     1      12.688   7.332  19.279  0.00  0.00    +0.012 C 
ATOM     11  C   UNL     1      14.019   7.592  17.164  0.00  0.00    +0.019 C 
ATOM     12  C   UNL     1      12.131   8.745  19.036  0.00  0.00    +0.085 C 
ATOM     14  C   UNL     1      13.418   8.987  16.998  0.00  0.00    +0.081 C 
ATOM     37  H   UNL     1      11.728  10.018  17.491  0.00  0.00    +0.122 HD
ENDROOT
BRANCH   9  13
ATOM     13  C   UNL     1      15.211   7.881  19.375  0.00  0.00    +0.100 C 
BRANCH  13  16
ATOM      2  O   UNL     1      16.404   5.856  19.069  0.00  0.00    -0.276 OA
ATOM      6  N   UNL     1      17.230   7.315  20.675  0.00  0.00    -0.298 N 
ATOM      7  N   UNL     1      19.630   8.449  21.634  0.00  0.00    -0.324 N 
ATOM     16  C   UNL     1      16.331   6.921  19.687  0.00  0.00    +0.216 C 
ATOM     18  C   UNL     1      17.178   8.569  21.430  0.00  0.00    +0.126 C 
ATOM     19  C   UNL     1      18.334   6.437  21.059  0.00  0.00    +0.126 C 
ATOM     20  C   UNL     1      18.500   9.328  21.306  0.00  0.00    +0.124 C 
ATOM     21  C   UNL     1      19.672   7.160  20.924  0.00  0.00    +0.124 C 
BRANCH   7  23
ATOM     23  C   UNL     1      20.848   9.009  22.035  0.00  0.00    +0.072 A 
ATOM     25  C   UNL     1      21.173   9.109  23.387  0.00  0.00    +0.141 A 
ATOM     26  C   UNL     1      21.741   9.469  21.067  0.00  0.00    +0.027 A 
ATOM     28  C   UNL     1      22.392   9.669  23.773  0.00  0.00    +0.047 A 
ATOM     29  C   UNL     1      22.960  10.029  21.453  0.00  0.00    +0.002 A 
ATOM     30  C   UNL     1      23.285  10.128  22.805  0.00  0.00    +0.004 A 
BRANCH  25   4
ATOM      4  O   UNL     1      20.314   8.666  24.348  0.00  0.00    -0.493 OA
ATOM     33  C   UNL     1      20.605   7.405  24.946  0.00  0.00    +0.277 C 
ENDBRANCH  25   4
ENDBRANCH   7  23
ENDBRANCH  13  16
ENDBRANCH   9  13
BRANCH  10  15
ATOM     15  C   UNL     1      12.667   6.997  20.770  0.00  0.00    +0.064 C 
BRANCH  15  17
ATOM      3  O   UNL     1      10.318   8.992  22.632  0.00  0.00    -0.354 OA
ATOM      8  N   UNL     1      10.676   7.844  21.937  0.00  0.00    -0.083 NA
ATOM     17  C   UNL     1      11.941   8.049  21.558  0.00  0.00    +0.085 A 
ATOM     22  C   UNL     1      12.429   9.298  21.982  0.00  0.00    +0.076 A 
ATOM     24  C   UNL     1      11.371   9.851  22.652  0.00  0.00    +0.167 A 
BRANCH  24  27
ATOM      1  F   UNL     1      10.508  14.656  25.319  0.00  0.00    -0.205 F 
ATOM     27  C   UNL     1      11.149  11.089  23.340  0.00  0.00    +0.020 A 
ATOM     31  C   UNL     1      11.057  11.107  24.731  0.00  0.00    +0.014 A 
ATOM     32  C   UNL     1      11.025  12.276  22.617  0.00  0.00    +0.014 A 
ATOM     34  C   UNL     1      10.840  12.312  25.400  0.00  0.00    +0.039 A 
ATOM     35  C   UNL     1      10.809  13.480  23.286  0.00  0.00    +0.039 A 
ATOM     36  C   UNL     1      10.716  13.499  24.678  0.00  0.00    +0.123 A 
ENDBRANCH  24  27
ENDBRANCH  15  17
ENDBRANCH  10  15
TORSDOF 7
ENDMDL
MODEL 3
REMARK VINA RESULT:      -7.2     25.478     29.175
REMARK  Name = 25313506
REMARK  8 active torsions:
REMARK  status: ('A' for Active; 'I' for Inactive)
REMARK    1  A    between atoms: O_4  and  C_25
REMARK    2  A    between atoms: O_4  and  C_33
REMARK    3  A    between atoms: N_7  and  C_23
REMARK    4  A    between atoms: C_9  and  C_13
REMARK    5  A    between atoms: C_10  and  C_15
REMARK    6  A    between atoms: C_13  and  C_16
REMARK    7  A    between atoms: C_15  and  C_17
REMARK    8  A    between atoms: C_24  and  C_27
REMARK                            x       y       z     vdW  Elec       q    Type
REMARK                         _______ _______ _______ _____ _____    ______ ____
ROOT
ATOM      5  N   UNL     1      15.278   3.403   1.709  0.00  0.00    -0.316 NA
ATOM      9  C   UNL     1      13.560   5.282   0.218  0.00  0.00    +0.004 C 
ATOM     10  C   UNL     1      13.164   4.702   1.595  0.00  0.00    +0.012 C 
ATOM     11  C   UNL     1      15.092   5.252   0.081  0.00  0.00    +0.019 C 
ATOM     12  C   UNL     1      13.823   3.335   1.846  0.00  0.00    +0.085 C 
ATOM     14  C   UNL     1      15.678   3.874   0.385  0.00  0.00    +0.081 C 
ATOM     37  H   UNL     1      15.677   2.479   1.873  0.00  0.00    +0.122 HD
ENDROOT
BRANCH   9  13
ATOM     13  C   UNL     1      12.894   4.580  -0.971  0.00  0.00    +0.100 C 
BRANCH  13  16
ATOM      2  O   UNL     1      13.554   5.786  -2.902  0.00  0.00    -0.276 OA
ATOM      6  N   UNL     1      11.402   6.172  -2.123  0.00  0.00    -0.298 N 
ATOM      7  N   UNL     1       8.734   6.464  -2.994  0.00  0.00    -0.324 N 
ATOM     16  C   UNL     1      12.655   5.565  -2.087  0.00  0.00    +0.216 C 
ATOM     18  C   UNL     1      10.309   5.937  -1.176  0.00  0.00    +0.126 C 
ATOM     19  C   UNL     1      11.090   7.158  -3.155  0.00  0.00    +0.126 C 
ATOM     20  C   UNL     1       9.037   5.517  -1.913  0.00  0.00    +0.124 C 
ATOM     21  C   UNL     1       9.835   6.755  -3.926  0.00  0.00    +0.124 C 
BRANCH   7  23
ATOM     23  C   UNL     1       7.426   6.557  -3.485  0.00  0.00    +0.072 A 
ATOM     25  C   UNL     1       6.601   7.617  -3.110  0.00  0.00    +0.141 A 
ATOM     26  C   UNL     1       6.951   5.578  -4.357  0.00  0.00    +0.027 A 
ATOM     28  C   UNL     1       5.300   7.698  -3.608  0.00  0.00    +0.047 A 
ATOM     29  C   UNL     1       5.650   5.659  -4.854  0.00  0.00    +0.002 A 
ATOM     30  C   UNL     1       4.825   6.719  -4.480  0.00  0.00    +0.004 A 
BRANCH  25   4
ATOM      4  O   UNL     1       7.046   8.584  -2.258  0.00  0.00    -0.493 OA
ATOM     33  C   UNL     1       6.081   9.516  -1.776  0.00  0.00    +0.277 C 
ENDBRANCH  25   4
ENDBRANCH   7  23
ENDBRANCH  13  16
ENDBRANCH   9  13
BRANCH  10  15
ATOM     15  C   UNL     1      11.651   4.612   1.795  0.00  0.00    +0.064 C 
BRANCH  15  17
ATOM      3  O   UNL     1      10.937   6.550   4.745  0.00  0.00    -0.354 OA
ATOM      8  N   UNL     1      11.402   6.420   3.442  0.00  0.00    -0.083 NA
ATOM     17  C   UNL     1      11.247   5.126   3.147  0.00  0.00    +0.085 A 
ATOM     22  C   UNL     1      10.693   4.398   4.215  0.00  0.00    +0.076 A 
ATOM     24  C   UNL     1      10.518   5.339   5.194  0.00  0.00    +0.167 A 
BRANCH  24  27
ATOM      1  F   UNL     1       8.533   5.252  10.390  0.00  0.00    -0.205 F 
ATOM     27  C   UNL     1      10.007   5.317   6.534  0.00  0.00    +0.020 A 
ATOM     31  C   UNL     1      10.023   4.130   7.266  0.00  0.00    +0.014 A 
ATOM     32  C   UNL     1       9.494   6.482   7.105  0.00  0.00    +0.014 A 
ATOM     34  C   UNL     1       9.524   4.108   8.569  0.00  0.00    +0.039 A 
ATOM     35  C   UNL     1       8.996   6.459   8.407  0.00  0.00    +0.039 A 
ATOM     36  C   UNL     1       9.012   5.272   9.140  0.00  0.00    +0.123 A 
ENDBRANCH  24  27
ENDBRANCH  15  17
ENDBRANCH  10  15
TORSDOF 7
ENDMDL
MODEL 4
REMARK VINA RESULT:      -7.2      5.277      8.877
REMARK  Name = 25313506
REMARK  8 active torsions:
REMARK  status: ('A' for Active; 'I' for Inactive)
REMARK    1  A    between atoms: O_4  and  C_25
REMARK    2  A    between atoms: O_4  and  C_33
REMARK    3  A    between atoms: N_7  and  C_23
REMARK    4  A    between atoms: C_9  and  C_13
REMARK    5  A    between atoms: C_10  and  C_15
REMARK    6  A    between atoms: C_13  and  C_16
REMARK    7  A    between atoms: C_15  and  C_17
REMARK    8  A    between atoms: C_24  and  C_27
REMARK                            x       y       z     vdW  Elec       q    Type
REMARK                         _______ _______ _______ _____ _____    ______ ____
ROOT
ATOM      5  N   UNL     1      -3.142 -14.339  15.119  0.00  0.00    -0.316 NA
ATOM      9  C   UNL     1      -2.181 -12.042  13.535  0.00  0.00    +0.004 C 
ATOM     10  C   UNL     1      -3.203 -11.894  14.687  0.00  0.00    +0.012 C 
ATOM     11  C   UNL     1      -1.349 -13.316  13.763  0.00  0.00    +0.019 C 
ATOM     12  C   UNL     1      -4.013 -13.184  14.896  0.00  0.00    +0.085 C 
ATOM     14  C   UNL     1      -2.220 -14.547  14.005  0.00  0.00    +0.081 C 
ATOM     37  H   UNL     1      -3.714 -15.174  15.245  0.00  0.00    +0.122 HD
ENDROOT
BRANCH   9  13
ATOM     13  C   UNL     1      -2.811 -12.047  12.138  0.00  0.00    +0.100 C 
BRANCH  13  16
ATOM      2  O   UNL     1      -1.646 -10.060  11.578  0.00  0.00    -0.276 OA
ATOM      6  N   UNL     1      -3.867 -10.182  10.915  0.00  0.00    -0.298 N 
ATOM      7  N   UNL     1      -5.574  -9.658   8.729  0.00  0.00    -0.324 N 
ATOM     16  C   UNL     1      -2.715 -10.674  11.522  0.00  0.00    +0.216 C 
ATOM     18  C   UNL     1      -5.153 -10.878  10.827  0.00  0.00    +0.126 C 
ATOM     19  C   UNL     1      -3.872  -8.850  10.313  0.00  0.00    +0.126 C 
ATOM     20  C   UNL     1      -5.614 -10.979   9.373  0.00  0.00    +0.124 C 
ATOM     21  C   UNL     1      -4.307  -8.919   8.851  0.00  0.00    +0.124 C 
BRANCH   7  23
ATOM     23  C   UNL     1      -6.360  -9.418   7.596  0.00  0.00    +0.072 A 
ATOM     25  C   UNL     1      -7.448  -8.548   7.659  0.00  0.00    +0.141 A 
ATOM     26  C   UNL     1      -6.045 -10.056   6.397  0.00  0.00    +0.027 A 
ATOM     28  C   UNL     1      -8.222  -8.316   6.522  0.00  0.00    +0.047 A 
ATOM     29  C   UNL     1      -6.820  -9.825   5.260  0.00  0.00    +0.002 A 
ATOM     30  C   UNL     1      -7.907  -8.955   5.322  0.00  0.00    +0.004 A 
BRANCH  25   4
ATOM      4  O   UNL     1      -7.772  -7.915   8.822  0.00  0.00    -0.493 OA
ATOM     33  C   UNL     1      -9.049  -8.207   9.383  0.00  0.00    +0.277 C 
ENDBRANCH  25   4
ENDBRANCH   7  23
ENDBRANCH  13  16
ENDBRANCH   9  13
BRANCH  10  15
ATOM     15  C   UNL     1      -4.137 -10.697  14.508  0.00  0.00    +0.064 C 
BRANCH  15  17
ATOM      3  O   UNL     1      -5.654 -10.271  17.746  0.00  0.00    -0.354 OA
ATOM      8  N   UNL     1      -4.549 -10.384  16.912  0.00  0.00    -0.083 NA
ATOM     17  C   UNL     1      -5.057 -10.540  15.685  0.00  0.00    +0.085 A 
ATOM     22  C   UNL     1      -6.463 -10.533  15.685  0.00  0.00    +0.076 A 
ATOM     24  C   UNL     1      -6.787 -10.361  17.004  0.00  0.00    +0.167 A 
BRANCH  24  27
ATOM      1  F   UNL     1     -11.561  -9.974  19.834  0.00  0.00    -0.205 F 
ATOM     27  C   UNL     1      -8.017 -10.261  17.734  0.00  0.00    +0.020 A 
ATOM     31  C   UNL     1      -8.215 -11.035  18.878  0.00  0.00    +0.014 A 
ATOM     32  C   UNL     1      -9.017  -9.390  17.300  0.00  0.00    +0.014 A 
ATOM     34  C   UNL     1      -9.412 -10.938  19.587  0.00  0.00    +0.039 A 
ATOM     35  C   UNL     1     -10.214  -9.293  18.010  0.00  0.00    +0.039 A 
ATOM     36  C   UNL     1     -10.412 -10.067  19.154  0.00  0.00    +0.123 A 
ENDBRANCH  24  27
ENDBRANCH  15  17
ENDBRANCH  10  15
TORSDOF 7
ENDMDL
MODEL 5
REMARK VINA RESULT:      -7.1      1.737      2.537
REMARK  Name = 25313506
REMARK  8 active torsions:
REMARK  status: ('A' for Active; 'I' for Inactive)
REMARK    1  A    between atoms: O_4  and  C_25
REMARK    2  A    between atoms: O_4  and  C_33
REMARK    3  A    between atoms: N_7  and  C_23
REMARK    4  A    between atoms: C_9  and  C_13
REMARK    5  A    between atoms: C_10  and  C_15
REMARK    6  A    between atoms: C_13  and  C_16
REMARK    7  A    between atoms: C_15  and  C_17
REMARK    8  A    between atoms: C_24  and  C_27
REMARK                            x       y       z     vdW  Elec       q    Type
REMARK                         _______ _______ _______ _____ _____    ______ ____
ROOT
ATOM      5  N   UNL     1     -13.363 -10.148  18.801  0.00  0.00    -0.316 NA
ATOM      9  C   UNL     1     -10.452  -9.680  18.686  0.00  0.00    +0.004 C 
ATOM     10  C   UNL     1     -11.435  -9.091  17.647  0.00  0.00    +0.012 C 
ATOM     11  C   UNL     1     -11.210  -9.952  19.996  0.00  0.00    +0.019 C 
ATOM     12  C   UNL     1     -12.701  -9.953  17.511  0.00  0.00    +0.085 C 
ATOM     14  C   UNL     1     -12.477 -10.779  19.777  0.00  0.00    +0.081 C 
ATOM     37  H   UNL     1     -14.191 -10.730  18.672  0.00  0.00    +0.122 HD
ENDROOT
BRANCH   9  13
ATOM     13  C   UNL     1      -9.719 -10.939  18.209  0.00  0.00    +0.100 C 
BRANCH  13  16
ATOM      2  O   UNL     1      -8.459 -11.629  20.093  0.00  0.00    -0.276 OA
ATOM      6  N   UNL     1      -7.271 -10.662  18.349  0.00  0.00    -0.298 N 
ATOM      7  N   UNL     1      -4.923 -10.962  16.813  0.00  0.00    -0.324 N 
ATOM     16  C   UNL     1      -8.432 -11.110  18.974  0.00  0.00    +0.216 C 
ATOM     18  C   UNL     1      -7.198 -10.042  17.024  0.00  0.00    +0.126 C 
ATOM     19  C   UNL     1      -5.981 -10.766  19.027  0.00  0.00    +0.126 C 
ATOM     20  C   UNL     1      -6.212 -10.795  16.130  0.00  0.00    +0.124 C 
ATOM     21  C   UNL     1      -4.980 -11.534  18.168  0.00  0.00    +0.124 C 
BRANCH   7  23
ATOM     23  C   UNL     1      -3.765 -11.190  16.060  0.00  0.00    +0.072 A 
ATOM     25  C   UNL     1      -3.675 -12.294  15.214  0.00  0.00    +0.141 A 
ATOM     26  C   UNL     1      -2.697 -10.298  16.160  0.00  0.00    +0.027 A 
ATOM     28  C   UNL     1      -2.516 -12.509  14.467  0.00  0.00    +0.047 A 
ATOM     29  C   UNL     1      -1.538 -10.513  15.413  0.00  0.00    +0.002 A 
ATOM     30  C   UNL     1      -1.448 -11.617  14.567  0.00  0.00    +0.004 A 
BRANCH  25   4
ATOM      4  O   UNL     1      -4.708 -13.178  15.102  0.00  0.00    -0.493 OA
ATOM     33  C   UNL     1      -4.415 -14.551  15.350  0.00  0.00    +0.277 C 
ENDBRANCH  25   4
ENDBRANCH   7  23
ENDBRANCH  13  16
ENDBRANCH   9  13
BRANCH  10  15
ATOM     15  C   UNL     1     -10.793  -8.860  16.279  0.00  0.00    +0.064 C 
BRANCH  15  17
ATOM      3  O   UNL     1     -11.488  -5.422  15.466  0.00  0.00    -0.354 OA
ATOM      8  N   UNL     1     -10.928  -6.406  16.271  0.00  0.00    -0.083 NA
ATOM     17  C   UNL     1     -11.242  -7.560  15.676  0.00  0.00    +0.085 A 
ATOM     22  C   UNL     1     -11.990  -7.368  14.501  0.00  0.00    +0.076 A 
ATOM     24  C   UNL     1     -12.118  -6.008  14.415  0.00  0.00    +0.167 A 
BRANCH  24  27
ATOM      1  F   UNL     1     -14.561  -2.526  10.830  0.00  0.00    -0.205 F 
ATOM     27  C   UNL     1     -12.748  -5.111  13.490  0.00  0.00    +0.020 A 
ATOM     31  C   UNL     1     -11.978  -4.422  12.553  0.00  0.00    +0.014 A 
ATOM     32  C   UNL     1     -14.131  -4.927  13.528  0.00  0.00    +0.014 A 
ATOM     34  C   UNL     1     -12.591  -3.548  11.655  0.00  0.00    +0.039 A 
ATOM     35  C   UNL     1     -14.742  -4.054  12.629  0.00  0.00    +0.039 A 
ATOM     36  C   UNL     1     -13.973  -3.365  11.692  0.00  0.00    +0.123 A 
ENDBRANCH  24  27
ENDBRANCH  15  17
ENDBRANCH  10  15
TORSDOF 7
ENDMDL
MODEL 6
REMARK VINA RESULT:      -7.0     25.485     28.882
REMARK  Name = 25313506
REMARK  8 active torsions:
REMARK  status: ('A' for Active; 'I' for Inactive)
REMARK    1  A    between atoms: O_4  and  C_25
REMARK    2  A    between atoms: O_4  and  C_33
REMARK    3  A    between atoms: N_7  and  C_23
REMARK    4  A    between atoms: C_9  and  C_13
REMARK    5  A    between atoms: C_10  and  C_15
REMARK    6  A    between atoms: C_13  and  C_16
REMARK    7  A    between atoms: C_15  and  C_17
REMARK    8  A    between atoms: C_24  and  C_27
REMARK                            x       y       z     vdW  Elec       q    Type
REMARK                         _______ _______ _______ _____ _____    ______ ____
ROOT
ATOM      5  N   UNL     1      -9.323   8.663  39.606  0.00  0.00    -0.316 NA
ATOM      9  C   UNL     1      -8.966   8.837  36.682  0.00  0.00    +0.004 C 
ATOM     10  C   UNL     1      -7.822   9.126  37.682  0.00  0.00    +0.012 C 
ATOM     11  C   UNL     1      -9.996   7.911  37.352  0.00  0.00    +0.019 C 
ATOM     12  C   UNL     1      -8.363   9.610  39.038  0.00  0.00    +0.085 C 
ATOM     14  C   UNL     1     -10.456   8.435  38.711  0.00  0.00    +0.081 C 
ATOM     37  H   UNL     1      -9.664   9.022  40.498  0.00  0.00    +0.122 HD
ENDROOT
BRANCH   9  13
ATOM     13  C   UNL     1      -9.644  10.095  36.127  0.00  0.00    +0.100 C 
BRANCH  13  16
ATOM      2  O   UNL     1      -8.712  10.181  33.950  0.00  0.00    -0.276 OA
ATOM      6  N   UNL     1     -10.989   9.754  34.087  0.00  0.00    -0.298 N 
ATOM      7  N   UNL     1     -13.015   8.099  33.028  0.00  0.00    -0.324 N 
ATOM     16  C   UNL     1      -9.732  10.016  34.625  0.00  0.00    +0.216 C 
ATOM     18  C   UNL     1     -12.222   9.552  34.852  0.00  0.00    +0.126 C 
ATOM     19  C   UNL     1     -11.171   9.683  32.639  0.00  0.00    +0.126 C 
ATOM     20  C   UNL     1     -12.872   8.218  34.486  0.00  0.00    +0.124 C 
ATOM     21  C   UNL     1     -11.800   8.350  32.238  0.00  0.00    +0.124 C 
BRANCH   7  23
ATOM     23  C   UNL     1     -13.966   7.221  32.496  0.00  0.00    +0.072 A 
ATOM     25  C   UNL     1     -15.040   7.704  31.749  0.00  0.00    +0.141 A 
ATOM     26  C   UNL     1     -13.831   5.850  32.718  0.00  0.00    +0.027 A 
ATOM     28  C   UNL     1     -15.980   6.817  31.224  0.00  0.00    +0.047 A 
ATOM     29  C   UNL     1     -14.771   4.963  32.192  0.00  0.00    +0.002 A 
ATOM     30  C   UNL     1     -15.845   5.446  31.446  0.00  0.00    +0.004 A 
BRANCH  25   4
ATOM      4  O   UNL     1     -15.190   9.040  31.522  0.00  0.00    -0.493 OA
ATOM     33  C   UNL     1     -15.635   9.430  30.225  0.00  0.00    +0.277 C 
ENDBRANCH  25   4
ENDBRANCH   7  23
ENDBRANCH  13  16
ENDBRANCH   9  13
BRANCH  10  15
ATOM     15  C   UNL     1      -6.784  10.108  37.137  0.00  0.00    +0.064 C 
BRANCH  15  17
ATOM      3  O   UNL     1      -3.336   9.191  36.657  0.00  0.00    -0.354 OA
ATOM      8  N   UNL     1      -4.480   9.895  36.306  0.00  0.00    -0.083 NA
ATOM     17  C   UNL     1      -5.399   9.533  37.208  0.00  0.00    +0.085 A 
ATOM     22  C   UNL     1      -4.894   8.613  38.143  0.00  0.00    +0.076 A 
ATOM     24  C   UNL     1      -3.594   8.431  37.752  0.00  0.00    +0.167 A 
BRANCH  24  27
ATOM      1  F   UNL     1       0.658   5.371  39.623  0.00  0.00    -0.205 F 
ATOM     27  C   UNL     1      -2.498   7.643  38.235  0.00  0.00    +0.020 A 
ATOM     31  C   UNL     1      -1.331   7.535  37.479  0.00  0.00    +0.014 A 
ATOM     32  C   UNL     1      -2.598   6.983  39.461  0.00  0.00    +0.014 A 
ATOM     34  C   UNL     1      -0.265   6.767  37.948  0.00  0.00    +0.039 A 
ATOM     35  C   UNL     1      -1.532   6.216  39.929  0.00  0.00    +0.039 A 
ATOM     36  C   UNL     1      -0.365   6.108  39.173  0.00  0.00    +0.123 A 
ENDBRANCH  24  27
ENDBRANCH  15  17
ENDBRANCH  10  15
TORSDOF 7
ENDMDL
MODEL 7
REMARK VINA RESULT:      -7.0     27.146     31.438
REMARK  Name = 25313506
REMARK  8 active torsions:
REMARK  status: ('A' for Active; 'I' for Inactive)
REMARK    1  A    between atoms: O_4  and  C_25
REMARK    2  A    between atoms: O_4  and  C_33
REMARK    3  A    between atoms: N_7  and  C_23
REMARK    4  A    between atoms: C_9  and  C_13
REMARK    5  A    between atoms: C_10  and  C_15
REMARK    6  A    between atoms: C_13  and  C_16
REMARK    7  A    between atoms: C_15  and  C_17
REMARK    8  A    between atoms: C_24  and  C_27
REMARK                            x       y       z     vdW  Elec       q    Type
REMARK                         _______ _______ _______ _____ _____    ______ ____
ROOT
ATOM      5  N   UNL     1      17.146   5.357  -1.096  0.00  0.00    -0.316 NA
ATOM      9  C   UNL     1      14.409   5.399   0.005  0.00  0.00    +0.004 C 
ATOM     10  C   UNL     1      15.235   6.685  -0.229  0.00  0.00    +0.012 C 
ATOM     11  C   UNL     1      14.922   4.294  -0.935  0.00  0.00    +0.019 C 
ATOM     12  C   UNL     1      16.747   6.409  -0.162  0.00  0.00    +0.085 C 
ATOM     14  C   UNL     1      16.436   4.105  -0.842  0.00  0.00    +0.081 C 
ATOM     37  H   UNL     1      18.150   5.197  -1.016  0.00  0.00    +0.122 HD
ENDROOT
BRANCH   9  13
ATOM     13  C   UNL     1      14.403   4.917   1.460  0.00  0.00    +0.100 C 
BRANCH  13  16
ATOM      2  O   UNL     1      12.923   3.066   1.457  0.00  0.00    -0.276 OA
ATOM      6  N   UNL     1      12.137   5.022   2.430  0.00  0.00    -0.298 N 
ATOM      7  N   UNL     1      10.742   5.987   4.685  0.00  0.00    -0.324 N 
ATOM     16  C   UNL     1      13.092   4.245   1.778  0.00  0.00    +0.216 C 
ATOM     18  C   UNL     1      12.298   6.422   2.827  0.00  0.00    +0.126 C 
ATOM     19  C   UNL     1      10.828   4.460   2.756  0.00  0.00    +0.126 C 
ATOM     20  C   UNL     1      12.029   6.594   4.322  0.00  0.00    +0.124 C 
ATOM     21  C   UNL     1      10.538   4.596   4.249  0.00  0.00    +0.124 C 
BRANCH   7  23
ATOM     23  C   UNL     1      10.082   6.407   5.846  0.00  0.00    +0.072 A 
ATOM     25  C   UNL     1       9.313   7.569   5.845  0.00  0.00    +0.141 A 
ATOM     26  C   UNL     1      10.200   5.649   7.011  0.00  0.00    +0.027 A 
ATOM     28  C   UNL     1       8.660   7.976   7.009  0.00  0.00    +0.047 A 
ATOM     29  C   UNL     1       9.547   6.056   8.176  0.00  0.00    +0.002 A 
ATOM     30  C   UNL     1       8.777   7.218   8.174  0.00  0.00    +0.004 A 
BRANCH  25   4
ATOM      4  O   UNL     1       9.186   8.324   4.716  0.00  0.00    -0.493 OA
ATOM     33  C   UNL     1       9.374   9.731   4.854  0.00  0.00    +0.277 C 
ENDBRANCH  25   4
ENDBRANCH   7  23
ENDBRANCH  13  16
ENDBRANCH   9  13
BRANCH  10  15
ATOM     15  C   UNL     1      14.855   7.823   0.718  0.00  0.00    +0.064 C 
BRANCH  15  17
ATOM      3  O   UNL     1      17.784   9.248   2.251  0.00  0.00    -0.354 OA
ATOM      8  N   UNL     1      16.864   9.149   1.216  0.00  0.00    -0.083 NA
ATOM     17  C   UNL     1      16.004   8.203   1.606  0.00  0.00    +0.085 A 
ATOM     22  C   UNL     1      16.329   7.676   2.869  0.00  0.00    +0.076 A 
ATOM     24  C   UNL     1      17.455   8.367   3.230  0.00  0.00    +0.167 A 
BRANCH  24  27
ATOM      1  F   UNL     1      20.815   8.327   7.664  0.00  0.00    -0.205 F 
ATOM     27  C   UNL     1      18.320   8.356   4.374  0.00  0.00    +0.020 A 
ATOM     31  C   UNL     1      17.908   8.950   5.566  0.00  0.00    +0.014 A 
ATOM     32  C   UNL     1      19.575   7.751   4.293  0.00  0.00    +0.014 A 
ATOM     34  C   UNL     1      18.751   8.941   6.678  0.00  0.00    +0.039 A 
ATOM     35  C   UNL     1      20.417   7.742   5.405  0.00  0.00    +0.039 A 
ATOM     36  C   UNL     1      20.006   8.336   6.597  0.00  0.00    +0.123 A 
ENDBRANCH  24  27
ENDBRANCH  15  17
ENDBRANCH  10  15
TORSDOF 7
ENDMDL
MODEL 8
REMARK VINA RESULT:      -6.9     26.990     30.576
REMARK  Name = 25313506
REMARK  8 active torsions:
REMARK  status: ('A' for Active; 'I' for Inactive)
REMARK    1  A    between atoms: O_4  and  C_25
REMARK    2  A    between atoms: O_4  and  C_33
REMARK    3  A    between atoms: N_7  and  C_23
REMARK    4  A    between atoms: C_9  and  C_13
REMARK    5  A    between atoms: C_10  and  C_15
REMARK    6  A    between atoms: C_13  and  C_16
REMARK    7  A    between atoms: C_15  and  C_17
REMARK    8  A    between atoms: C_24  and  C_27
REMARK                            x       y       z     vdW  Elec       q    Type
REMARK                         _______ _______ _______ _____ _____    ______ ____
ROOT
ATOM      5  N   UNL     1      13.830   5.491  -0.818  0.00  0.00    -0.316 NA
ATOM      9  C   UNL     1      13.657   6.197   2.041  0.00  0.00    +0.004 C 
ATOM     10  C   UNL     1      12.436   5.713   1.224  0.00  0.00    +0.012 C 
ATOM     11  C   UNL     1      14.943   5.674   1.379  0.00  0.00    +0.019 C 
ATOM     12  C   UNL     1      12.589   6.038  -0.271  0.00  0.00    +0.085 C 
ATOM     14  C   UNL     1      15.005   5.998  -0.113  0.00  0.00    +0.081 C 
ATOM     37  H   UNL     1      13.900   5.734  -1.807  0.00  0.00    +0.122 HD
ENDROOT
BRANCH   9  13
ATOM     13  C   UNL     1      13.720   7.717   2.229  0.00  0.00    +0.100 C 
BRANCH  13  16
ATOM      2  O   UNL     1      13.455   7.787   4.583  0.00  0.00    -0.276 OA
ATOM      6  N   UNL     1      15.443   8.636   3.737  0.00  0.00    -0.298 N 
ATOM      7  N   UNL     1      18.232   8.632   4.167  0.00  0.00    -0.324 N 
ATOM     16  C   UNL     1      14.186   8.047   3.624  0.00  0.00    +0.216 C 
ATOM     18  C   UNL     1      16.340   8.960   2.625  0.00  0.00    +0.126 C 
ATOM     19  C   UNL     1      15.965   9.012   5.049  0.00  0.00    +0.126 C 
ATOM     20  C   UNL     1      17.710   8.314   2.831  0.00  0.00    +0.124 C 
ATOM     21  C   UNL     1      17.326   8.363   5.295  0.00  0.00    +0.124 C 
BRANCH   7  23
ATOM     23  C   UNL     1      19.609   8.555   4.407  0.00  0.00    +0.072 A 
ATOM     25  C   UNL     1      20.381   9.713   4.487  0.00  0.00    +0.141 A 
ATOM     26  C   UNL     1      20.207   7.306   4.569  0.00  0.00    +0.027 A 
ATOM     28  C   UNL     1      21.753   9.623   4.728  0.00  0.00    +0.047 A 
ATOM     29  C   UNL     1      21.578   7.215   4.810  0.00  0.00    +0.002 A 
ATOM     30  C   UNL     1      22.350   8.373   4.890  0.00  0.00    +0.004 A 
BRANCH  25   4
ATOM      4  O   UNL     1      19.817  10.945   4.331  0.00  0.00    -0.493 OA
ATOM     33  C   UNL     1      19.963  11.865   5.409  0.00  0.00    +0.277 C 
ENDBRANCH  25   4
ENDBRANCH   7  23
ENDBRANCH  13  16
ENDBRANCH   9  13
BRANCH  10  15
ATOM     15  C   UNL     1      11.107   6.251   1.757  0.00  0.00    +0.064 C 
BRANCH  15  17
ATOM      3  O   UNL     1      10.471   4.138   4.602  0.00  0.00    -0.354 OA
ATOM      8  N   UNL     1      10.829   4.337   3.275  0.00  0.00    -0.083 NA
ATOM     17  C   UNL     1      10.776   5.661   3.097  0.00  0.00    +0.085 A 
ATOM     22  C   UNL     1      10.396   6.341   4.268  0.00  0.00    +0.076 A 
ATOM     24  C   UNL     1      10.216   5.339   5.183  0.00  0.00    +0.167 A 
BRANCH  24  27
ATOM      1  F   UNL     1       8.730   5.157  10.541  0.00  0.00    -0.205 F 
ATOM     27  C   UNL     1       9.832   5.292   6.564  0.00  0.00    +0.020 A 
ATOM     31  C   UNL     1       9.375   6.445   7.200  0.00  0.00    +0.014 A 
ATOM     32  C   UNL     1       9.916   4.092   7.271  0.00  0.00    +0.014 A 
ATOM     34  C   UNL     1       9.003   6.400   8.544  0.00  0.00    +0.039 A 
ATOM     35  C   UNL     1       9.544   4.047   8.614  0.00  0.00    +0.039 A 
ATOM     36  C   UNL     1       9.087   5.201   9.251  0.00  0.00    +0.123 A 
ENDBRANCH  24  27
ENDBRANCH  15  17
ENDBRANCH  10  15
TORSDOF 7
ENDMDL
MODEL 9
REMARK VINA RESULT:      -6.9     29.866     31.941
REMARK  Name = 25313506
REMARK  8 active torsions:
REMARK  status: ('A' for Active; 'I' for Inactive)
REMARK    1  A    between atoms: O_4  and  C_25
REMARK    2  A    between atoms: O_4  and  C_33
REMARK    3  A    between atoms: N_7  and  C_23
REMARK    4  A    between atoms: C_9  and  C_13
REMARK    5  A    between atoms: C_10  and  C_15
REMARK    6  A    between atoms: C_13  and  C_16
REMARK    7  A    between atoms: C_15  and  C_17
REMARK    8  A    between atoms: C_24  and  C_27
REMARK                            x       y       z     vdW  Elec       q    Type
REMARK                         _______ _______ _______ _____ _____    ______ ____
ROOT
ATOM      5  N   UNL     1      15.696   6.981  19.249  0.00  0.00    -0.316 NA
ATOM      9  C   UNL     1      17.445   7.684  21.517  0.00  0.00    +0.004 C 
ATOM     10  C   UNL     1      16.115   8.418  21.230  0.00  0.00    +0.012 C 
ATOM     11  C   UNL     1      17.384   6.274  20.907  0.00  0.00    +0.019 C 
ATOM     12  C   UNL     1      15.745   8.359  19.739  0.00  0.00    +0.085 C 
ATOM     14  C   UNL     1      16.970   6.291  19.436  0.00  0.00    +0.081 C 
ATOM     37  H   UNL     1      15.456   6.983  18.257  0.00  0.00    +0.122 HD
ENDROOT
BRANCH   9  13
ATOM     13  C   UNL     1      18.690   8.434  21.029  0.00  0.00    +0.100 C 
BRANCH  13  16
ATOM      2  O   UNL     1      19.699   9.041  23.086  0.00  0.00    -0.276 OA
ATOM      6  N   UNL     1      20.837   7.486  21.791  0.00  0.00    -0.298 N 
ATOM      7  N   UNL     1      22.236   5.041  21.959  0.00  0.00    -0.324 N 
ATOM     16  C   UNL     1      19.783   8.354  22.065  0.00  0.00    +0.216 C 
ATOM     18  C   UNL     1      20.972   6.654  20.593  0.00  0.00    +0.126 C 
ATOM     19  C   UNL     1      21.951   7.362  22.728  0.00  0.00    +0.126 C 
ATOM     20  C   UNL     1      21.156   5.185  20.973  0.00  0.00    +0.124 C 
ATOM     21  C   UNL     1      22.146   5.906  23.146  0.00  0.00    +0.124 C 
BRANCH   7  23
ATOM     23  C   UNL     1      22.881   3.807  22.102  0.00  0.00    +0.072 A 
ATOM     25  C   UNL     1      23.805   3.375  21.151  0.00  0.00    +0.141 A 
ATOM     26  C   UNL     1      22.593   3.008  23.208  0.00  0.00    +0.027 A 
ATOM     28  C   UNL     1      24.441   2.143  21.306  0.00  0.00    +0.047 A 
ATOM     29  C   UNL     1      23.230   1.776  23.363  0.00  0.00    +0.002 A 
ATOM     30  C   UNL     1      24.154   1.344  22.413  0.00  0.00    +0.004 A 
BRANCH  25   4
ATOM      4  O   UNL     1      24.099   4.140  20.062  0.00  0.00    -0.493 OA
ATOM     33  C   UNL     1      25.290   3.818  19.347  0.00  0.00    +0.277 C 
ENDBRANCH  25   4
ENDBRANCH   7  23
ENDBRANCH  13  16
ENDBRANCH   9  13
BRANCH  10  15
ATOM     15  C   UNL     1      16.108   9.864  21.728  0.00  0.00    +0.064 C 
BRANCH  15  17
ATOM      3  O   UNL     1      12.615  10.174  22.545  0.00  0.00    -0.354 OA
ATOM      8  N   UNL     1      13.751   9.423  22.272  0.00  0.00    -0.083 NA
ATOM     17  C   UNL     1      14.717  10.322  22.057  0.00  0.00    +0.085 A 
ATOM     22  C   UNL     1      14.252  11.643  22.181  0.00  0.00    +0.076 A 
ATOM     24  C   UNL     1      12.926  11.494  22.488  0.00  0.00    +0.167 A 
BRANCH  24  27
ATOM      1  F   UNL     1       8.728  15.000  23.506  0.00  0.00    -0.205 F 
ATOM     27  C   UNL     1      11.844  12.399  22.751  0.00  0.00    +0.020 A 
ATOM     31  C   UNL     1      11.381  12.572  24.055  0.00  0.00    +0.014 A 
ATOM     32  C   UNL     1      11.254  13.105  21.701  0.00  0.00    +0.014 A 
ATOM     34  C   UNL     1      10.328  13.450  24.310  0.00  0.00    +0.039 A 
ATOM     35  C   UNL     1      10.202  13.983  21.957  0.00  0.00    +0.039 A 
ATOM     36  C   UNL     1       9.738  14.157  23.261  0.00  0.00    +0.123 A 
ENDBRANCH  24  27
ENDBRANCH  15  17
ENDBRANCH  10  15
TORSDOF 7
ENDMDL
MODEL 10
REMARK VINA RESULT:      -6.9      4.062     10.579
REMARK  Name = 25313506
REMARK  8 active torsions:
REMARK  status: ('A' for Active; 'I' for Inactive)
REMARK    1  A    between atoms: O_4  and  C_25
REMARK    2  A    between atoms: O_4  and  C_33
REMARK    3  A    between atoms: N_7  and  C_23
REMARK    4  A    between atoms: C_9  and  C_13
REMARK    5  A    between atoms: C_10  and  C_15
REMARK    6  A    between atoms: C_13  and  C_16
REMARK    7  A    between atoms: C_15  and  C_17
REMARK    8  A    between atoms: C_24  and  C_27
REMARK                            x       y       z     vdW  Elec       q    Type
REMARK                         _______ _______ _______ _____ _____    ______ ____
ROOT
ATOM      5  N   UNL     1     -14.056 -12.552  17.910  0.00  0.00    -0.316 NA
ATOM      9  C   UNL     1     -12.243 -10.435  16.943  0.00  0.00    +0.004 C 
ATOM     10  C   UNL     1     -12.013 -11.188  18.274  0.00  0.00    +0.012 C 
ATOM     11  C   UNL     1     -13.083 -11.317  16.005  0.00  0.00    +0.019 C 
ATOM     12  C   UNL     1     -13.332 -11.713  18.865  0.00  0.00    +0.085 C 
ATOM     14  C   UNL     1     -14.356 -11.834  16.673  0.00  0.00    +0.081 C 
ATOM     37  H   UNL     1     -14.927 -12.873  18.333  0.00  0.00    +0.122 HD
ENDROOT
BRANCH   9  13
ATOM     13  C   UNL     1     -12.886  -9.053  17.111  0.00  0.00    +0.100 C 
BRANCH  13  16
ATOM      2  O   UNL     1     -10.760  -8.131  16.614  0.00  0.00    -0.276 OA
ATOM      6  N   UNL     1     -12.608  -6.891  15.954  0.00  0.00    -0.298 N 
ATOM      7  N   UNL     1     -13.633  -5.396  13.792  0.00  0.00    -0.324 N 
ATOM     16  C   UNL     1     -11.983  -7.989  16.541  0.00  0.00    +0.216 C 
ATOM     18  C   UNL     1     -14.054  -6.686  15.847  0.00  0.00    +0.126 C 
ATOM     19  C   UNL     1     -11.811  -5.801  15.396  0.00  0.00    +0.126 C 
ATOM     20  C   UNL     1     -14.460  -6.451  14.392  0.00  0.00    +0.124 C 
ATOM     21  C   UNL     1     -12.177  -5.557  13.934  0.00  0.00    +0.124 C 
BRANCH   7  23
ATOM     23  C   UNL     1     -14.104  -4.703  12.670  0.00  0.00    +0.072 A 
ATOM     25  C   UNL     1     -13.979  -5.251  11.394  0.00  0.00    +0.141 A 
ATOM     26  C   UNL     1     -14.703  -3.455  12.838  0.00  0.00    +0.027 A 
ATOM     28  C   UNL     1     -14.454  -4.551  10.284  0.00  0.00    +0.047 A 
ATOM     29  C   UNL     1     -15.178  -2.755  11.728  0.00  0.00    +0.002 A 
ATOM     30  C   UNL     1     -15.053  -3.303  10.452  0.00  0.00    +0.004 A 
BRANCH  25   4
ATOM      4  O   UNL     1     -13.396  -6.470  11.208  0.00  0.00    -0.493 OA
ATOM     33  C   UNL     1     -14.118  -7.422  10.431  0.00  0.00    +0.277 C 
ENDBRANCH  25   4
ENDBRANCH   7  23
ENDBRANCH  13  16
ENDBRANCH   9  13
BRANCH  10  15
ATOM     15  C   UNL     1     -11.254 -10.358  19.309  0.00  0.00    +0.064 C 
BRANCH  15  17
ATOM      3  O   UNL     1      -7.856 -11.360  19.952  0.00  0.00    -0.354 OA
ATOM      8  N   UNL     1      -9.192 -11.244  20.313  0.00  0.00    -0.083 NA
ATOM     17  C   UNL     1      -9.781 -10.649  19.271  0.00  0.00    +0.085 A 
ATOM     22  C   UNL     1      -8.874 -10.371  18.233  0.00  0.00    +0.076 A 
ATOM     24  C   UNL     1      -7.679 -10.837  18.712  0.00  0.00    +0.167 A 
BRANCH  24  27
ATOM      1  F   UNL     1      -2.483 -11.028  16.733  0.00  0.00    -0.205 F 
ATOM     27  C   UNL     1      -6.340 -10.887  18.201  0.00  0.00    +0.020 A 
ATOM     31  C   UNL     1      -5.372 -11.648  18.857  0.00  0.00    +0.014 A 
ATOM     32  C   UNL     1      -6.005 -10.174  17.050  0.00  0.00    +0.014 A 
ATOM     34  C   UNL     1      -4.069 -11.695  18.361  0.00  0.00    +0.039 A 
ATOM     35  C   UNL     1      -4.702 -10.222  16.555  0.00  0.00    +0.039 A 
ATOM     36  C   UNL     1      -3.734 -10.983  17.209  0.00  0.00    +0.123 A 
ENDBRANCH  24  27
ENDBRANCH  15  17
ENDBRANCH  10  15
TORSDOF 7
ENDMDL
