MODEL 1
REMARK VINA RESULT:      -8.2      0.000      0.000
REMARK  Name = 40587821
REMARK  5 active torsions:
REMARK  status: ('A' for Active; 'I' for Inactive)
REMARK    1  A    between atoms: O_4  and  C_28
REMARK    2  A    between atoms: O_4  and  C_34
REMARK    3  A    between atoms: N_7  and  C_22
REMARK    4  A    between atoms: N_8  and  C_20
REMARK    5  A    between atoms: N_9  and  C_29
REMARK                            x       y       z     vdW  Elec       q    Type
REMARK                         _______ _______ _______ _____ _____    ______ ____
ROOT
ATOM      1  O   UNL     1      15.736   6.191  18.724  0.00  0.00    -0.266 OA
ATOM      2  O   UNL     1      14.045  11.824  19.353  0.00  0.00    -0.252 OA
ATOM      5  N   UNL     1      12.622  10.031  19.695  0.00  0.00    -0.284 N 
ATOM      6  N   UNL     1      14.410   7.414  20.209  0.00  0.00    -0.310 N 
ATOM      7  N   UNL     1      13.105  10.776  17.509  0.00  0.00    -0.269 N 
ATOM     10  C   UNL     1      11.877   7.647  19.936  0.00  0.00    +0.027 C 
ATOM     11  C   UNL     1      13.008   8.764  21.807  0.00  0.00    +0.054 C 
ATOM     12  C   UNL     1      11.864   7.819  21.448  0.00  0.00    +0.018 C 
ATOM     13  C   UNL     1      11.687   8.999  19.221  0.00  0.00    +0.114 C 
ATOM     14  C   UNL     1      13.189   6.964  19.529  0.00  0.00    +0.130 C 
ATOM     15  C   UNL     1      12.756  10.134  21.154  0.00  0.00    +0.119 C 
ATOM     16  C   UNL     1      14.347   8.213  21.354  0.00  0.00    +0.027 A 
ATOM     17  C   UNL     1      15.467   8.516  22.030  0.00  0.00    +0.024 A 
ATOM     18  C   UNL     1      15.633   6.912  19.717  0.00  0.00    +0.273 A 
ATOM     19  C   UNL     1      13.324  10.945  18.876  0.00  0.00    +0.306 C 
ATOM     20  C   UNL     1      16.860   7.293  20.484  0.00  0.00    +0.100 A 
ATOM     21  C   UNL     1      16.748   8.046  21.583  0.00  0.00    +0.030 A 
ATOM     36  H   UNL     1      12.215  10.395  17.209  0.00  0.00    +0.156 HD
ENDROOT
BRANCH  20   8
ATOM      3  O   UNL     1      18.981   6.278  22.084  0.00  0.00    -0.252 OA
ATOM      8  N   UNL     1      18.065   6.842  20.030  0.00  0.00    -0.265 N 
ATOM      9  N   UNL     1      20.186   5.969  20.094  0.00  0.00    -0.269 N 
ATOM     23  C   UNL     1      19.080   6.350  20.861  0.00  0.00    +0.308 C 
ATOM     37  H   UNL     1      18.326   7.101  19.083  0.00  0.00    +0.157 HD
ATOM     38  H   UNL     1      20.106   6.090  19.087  0.00  0.00    +0.156 HD
BRANCH   9  29
ATOM     29  C   UNL     1      21.412   5.425  20.546  0.00  0.00    +0.035 A 
ATOM     30  C   UNL     1      22.556   6.222  20.582  0.00  0.00    +0.023 A 
ATOM     31  C   UNL     1      21.476   4.093  20.954  0.00  0.00    +0.023 A 
ATOM     32  C   UNL     1      23.764   5.688  21.029  0.00  0.00    +0.002 A 
ATOM     33  C   UNL     1      22.685   3.559  21.401  0.00  0.00    +0.002 A 
ATOM     35  C   UNL     1      23.829   4.356  21.437  0.00  0.00    +0.000 A 
ENDBRANCH   9  29
ENDBRANCH  20   8
BRANCH   7  22
ATOM     22  C   UNL     1      14.008  11.062  16.455  0.00  0.00    +0.035 A 
ATOM     24  C   UNL     1      14.554  10.022  15.703  0.00  0.00    +0.027 A 
ATOM     25  C   UNL     1      14.352  12.384  16.170  0.00  0.00    +0.027 A 
ATOM     26  C   UNL     1      15.443  10.302  14.665  0.00  0.00    +0.047 A 
ATOM     27  C   UNL     1      15.242  12.664  15.132  0.00  0.00    +0.047 A 
ATOM     28  C   UNL     1      15.786  11.623  14.380  0.00  0.00    +0.120 A 
BRANCH  28   4
ATOM      4  O   UNL     1      16.654  11.897  13.367  0.00  0.00    -0.495 OA
ATOM     34  C   UNL     1      16.099  12.051  12.061  0.00  0.00    +0.277 C 
ENDBRANCH  28   4
ENDBRANCH   7  22
TORSDOF 4
ENDMDL
MODEL 2
REMARK VINA RESULT:      -8.1     29.391     31.766
REMARK  Name = 40587821
REMARK  5 active torsions:
REMARK  status: ('A' for Active; 'I' for Inactive)
REMARK    1  A    between atoms: O_4  and  C_28
REMARK    2  A    between atoms: O_4  and  C_34
REMARK    3  A    between atoms: N_7  and  C_22
REMARK    4  A    between atoms: N_8  and  C_20
REMARK    5  A    between atoms: N_9  and  C_29
REMARK                            x       y       z     vdW  Elec       q    Type
REMARK                         _______ _______ _______ _____ _____    ______ ____
ROOT
ATOM      1  O   UNL     1     -10.680  -9.612  14.271  0.00  0.00    -0.266 OA
ATOM      2  O   UNL     1     -12.477  -4.463  11.982  0.00  0.00    -0.252 OA
ATOM      5  N   UNL     1     -13.935  -6.154  12.588  0.00  0.00    -0.284 N 
ATOM      6  N   UNL     1     -12.420  -8.098  14.646  0.00  0.00    -0.310 N 
ATOM      7  N   UNL     1     -12.759  -6.262  10.546  0.00  0.00    -0.269 N 
ATOM     10  C   UNL     1     -14.721  -8.333  13.554  0.00  0.00    +0.027 C 
ATOM     11  C   UNL     1     -14.268  -6.434  15.043  0.00  0.00    +0.054 C 
ATOM     12  C   UNL     1     -15.231  -7.590  14.780  0.00  0.00    +0.018 C 
ATOM     13  C   UNL     1     -14.664  -7.406  12.324  0.00  0.00    +0.114 C 
ATOM     14  C   UNL     1     -13.349  -8.938  13.880  0.00  0.00    +0.130 C 
ATOM     15  C   UNL     1     -14.289  -5.475  13.841  0.00  0.00    +0.119 C 
ATOM     16  C   UNL     1     -12.855  -6.932  15.283  0.00  0.00    +0.027 A 
ATOM     17  C   UNL     1     -12.020  -6.242  16.076  0.00  0.00    +0.024 A 
ATOM     18  C   UNL     1     -11.103  -8.582  14.796  0.00  0.00    +0.273 A 
ATOM     19  C   UNL     1     -13.002  -5.547  11.717  0.00  0.00    +0.306 C 
ATOM     20  C   UNL     1     -10.196  -7.771  15.668  0.00  0.00    +0.100 A 
ATOM     21  C   UNL     1     -10.663  -6.672  16.270  0.00  0.00    +0.030 A 
ATOM     36  H   UNL     1     -13.501  -6.846  10.177  0.00  0.00    +0.156 HD
ENDROOT
BRANCH  20   8
ATOM      3  O   UNL     1      -9.246  -9.522  17.698  0.00  0.00    -0.252 OA
ATOM      8  N   UNL     1      -8.910  -8.197  15.825  0.00  0.00    -0.265 N 
ATOM      9  N   UNL     1      -7.118  -9.306  16.734  0.00  0.00    -0.269 N 
ATOM     23  C   UNL     1      -8.491  -9.062  16.845  0.00  0.00    +0.308 C 
ATOM     37  H   UNL     1      -8.189  -7.674  15.337  0.00  0.00    +0.157 HD
ATOM     38  H   UNL     1      -6.635  -8.849  15.964  0.00  0.00    +0.156 HD
BRANCH   9  29
ATOM     29  C   UNL     1      -6.310 -10.121  17.561  0.00  0.00    +0.035 A 
ATOM     30  C   UNL     1      -5.154 -10.707  17.046  0.00  0.00    +0.023 A 
ATOM     31  C   UNL     1      -6.669 -10.338  18.891  0.00  0.00    +0.023 A 
ATOM     32  C   UNL     1      -4.357 -11.510  17.861  0.00  0.00    +0.002 A 
ATOM     33  C   UNL     1      -5.872 -11.141  19.706  0.00  0.00    +0.002 A 
ATOM     35  C   UNL     1      -4.716 -11.727  19.191  0.00  0.00    +0.000 A 
ENDBRANCH   9  29
ENDBRANCH  20   8
BRANCH   7  22
ATOM     22  C   UNL     1     -11.559  -6.291   9.793  0.00  0.00    +0.035 A 
ATOM     24  C   UNL     1     -10.910  -7.504   9.560  0.00  0.00    +0.027 A 
ATOM     25  C   UNL     1     -11.026  -5.106   9.284  0.00  0.00    +0.027 A 
ATOM     26  C   UNL     1      -9.729  -7.533   8.819  0.00  0.00    +0.047 A 
ATOM     27  C   UNL     1      -9.844  -5.136   8.543  0.00  0.00    +0.047 A 
ATOM     28  C   UNL     1      -9.196  -6.349   8.310  0.00  0.00    +0.120 A 
BRANCH  28   4
ATOM      4  O   UNL     1      -8.044  -6.377   7.586  0.00  0.00    -0.495 OA
ATOM     34  C   UNL     1      -7.949  -7.358   6.554  0.00  0.00    +0.277 C 
ENDBRANCH  28   4
ENDBRANCH   7  22
TORSDOF 4
ENDMDL
MODEL 3
REMARK VINA RESULT:      -8.0     13.063     15.464
REMARK  Name = 40587821
REMARK  5 active torsions:
REMARK  status: ('A' for Active; 'I' for Inactive)
REMARK    1  A    between atoms: O_4  and  C_28
REMARK    2  A    between atoms: O_4  and  C_34
REMARK    3  A    between atoms: N_7  and  C_22
REMARK    4  A    between atoms: N_8  and  C_20
REMARK    5  A    between atoms: N_9  and  C_29
REMARK                            x       y       z     vdW  Elec       q    Type
REMARK                         _______ _______ _______ _____ _____    ______ ____
ROOT
ATOM      1  O   UNL     1      13.389   6.996   7.413  0.00  0.00    -0.266 OA
ATOM      2  O   UNL     1      10.380   7.393   2.336  0.00  0.00    -0.252 OA
ATOM      5  N   UNL     1       9.401   6.779   4.341  0.00  0.00    -0.284 N 
ATOM      6  N   UNL     1      11.296   7.781   6.733  0.00  0.00    -0.310 N 
ATOM      7  N   UNL     1      10.644   5.214   3.087  0.00  0.00    -0.269 N 
ATOM     10  C   UNL     1       9.186   6.337   6.802  0.00  0.00    +0.027 C 
ATOM     11  C   UNL     1       9.057   8.641   5.964  0.00  0.00    +0.054 C 
ATOM     12  C   UNL     1       8.448   7.659   6.961  0.00  0.00    +0.018 C 
ATOM     13  C   UNL     1       9.043   5.788   5.369  0.00  0.00    +0.114 C 
ATOM     14  C   UNL     1      10.655   6.543   7.193  0.00  0.00    +0.130 C 
ATOM     15  C   UNL     1       8.830   8.118   4.535  0.00  0.00    +0.119 C 
ATOM     16  C   UNL     1      10.541   8.836   6.213  0.00  0.00    +0.027 A 
ATOM     17  C   UNL     1      11.131  10.004   5.908  0.00  0.00    +0.024 A 
ATOM     18  C   UNL     1      12.687   7.890   6.942  0.00  0.00    +0.273 A 
ATOM     19  C   UNL     1      10.173   6.523   3.185  0.00  0.00    +0.306 C 
ATOM     20  C   UNL     1      13.310   9.198   6.566  0.00  0.00    +0.100 A 
ATOM     21  C   UNL     1      12.544  10.185   6.088  0.00  0.00    +0.030 A 
ATOM     36  H   UNL     1      10.100   4.475   3.516  0.00  0.00    +0.156 HD
ENDROOT
BRANCH  20   8
ATOM      3  O   UNL     1      15.338   7.972   4.993  0.00  0.00    -0.252 OA
ATOM      8  N   UNL     1      14.656   9.339   6.737  0.00  0.00    -0.265 N 
ATOM      9  N   UNL     1      16.903   9.056   6.365  0.00  0.00    -0.269 N 
ATOM     23  C   UNL     1      15.617   8.712   5.933  0.00  0.00    +0.308 C 
ATOM     37  H   UNL     1      14.970   9.713   7.628  0.00  0.00    +0.157 HD
ATOM     38  H   UNL     1      16.962   9.686   7.161  0.00  0.00    +0.156 HD
BRANCH   9  29
ATOM     29  C   UNL     1      18.142   8.638   5.826  0.00  0.00    +0.035 A 
ATOM     30  C   UNL     1      19.249   8.485   6.660  0.00  0.00    +0.023 A 
ATOM     31  C   UNL     1      18.257   8.380   4.460  0.00  0.00    +0.023 A 
ATOM     32  C   UNL     1      20.471   8.072   6.129  0.00  0.00    +0.002 A 
ATOM     33  C   UNL     1      19.479   7.968   3.929  0.00  0.00    +0.002 A 
ATOM     35  C   UNL     1      20.586   7.814   4.763  0.00  0.00    +0.000 A 
ENDBRANCH   9  29
ENDBRANCH  20   8
BRANCH   7  22
ATOM     22  C   UNL     1      11.837   4.778   2.460  0.00  0.00    +0.035 A 
ATOM     24  C   UNL     1      11.943   3.466   1.999  0.00  0.00    +0.027 A 
ATOM     25  C   UNL     1      12.907   5.661   2.304  0.00  0.00    +0.027 A 
ATOM     26  C   UNL     1      13.118   3.036   1.381  0.00  0.00    +0.047 A 
ATOM     27  C   UNL     1      14.082   5.230   1.687  0.00  0.00    +0.047 A 
ATOM     28  C   UNL     1      14.187   3.918   1.225  0.00  0.00    +0.120 A 
BRANCH  28   4
ATOM      4  O   UNL     1      15.333   3.499   0.622  0.00  0.00    -0.495 OA
ATOM     34  C   UNL     1      16.033   4.453  -0.176  0.00  0.00    +0.277 C 
ENDBRANCH  28   4
ENDBRANCH   7  22
TORSDOF 4
ENDMDL
MODEL 4
REMARK VINA RESULT:      -7.7     28.075     30.845
REMARK  Name = 40587821
REMARK  5 active torsions:
REMARK  status: ('A' for Active; 'I' for Inactive)
REMARK    1  A    between atoms: O_4  and  C_28
REMARK    2  A    between atoms: O_4  and  C_34
REMARK    3  A    between atoms: N_7  and  C_22
REMARK    4  A    between atoms: N_8  and  C_20
REMARK    5  A    between atoms: N_9  and  C_29
REMARK                            x       y       z     vdW  Elec       q    Type
REMARK                         _______ _______ _______ _____ _____    ______ ____
ROOT
ATOM      1  O   UNL     1      -5.813 -12.198  10.776  0.00  0.00    -0.266 OA
ATOM      2  O   UNL     1      -3.737 -10.028  15.872  0.00  0.00    -0.252 OA
ATOM      5  N   UNL     1      -3.342 -12.197  15.167  0.00  0.00    -0.284 N 
ATOM      6  N   UNL     1      -3.824 -12.325  11.995  0.00  0.00    -0.310 N 
ATOM      7  N   UNL     1      -5.405 -11.615  16.154  0.00  0.00    -0.269 N 
ATOM     10  C   UNL     1      -3.338 -14.204  13.661  0.00  0.00    +0.027 C 
ATOM     11  C   UNL     1      -1.683 -12.423  13.319  0.00  0.00    +0.054 C 
ATOM     12  C   UNL     1      -1.876 -13.937  13.333  0.00  0.00    +0.018 C 
ATOM     13  C   UNL     1      -3.716 -13.614  15.034  0.00  0.00    +0.114 C 
ATOM     14  C   UNL     1      -4.209 -13.636  12.533  0.00  0.00    +0.130 C 
ATOM     15  C   UNL     1      -1.984 -11.863  14.720  0.00  0.00    +0.119 C 
ATOM     16  C   UNL     1      -2.581 -11.758  12.293  0.00  0.00    +0.027 A 
ATOM     17  C   UNL     1      -2.199 -10.616  11.697  0.00  0.00    +0.024 A 
ATOM     18  C   UNL     1      -4.718 -11.727  11.083  0.00  0.00    +0.273 A 
ATOM     19  C   UNL     1      -4.145 -11.184  15.740  0.00  0.00    +0.306 C 
ATOM     20  C   UNL     1      -4.266 -10.443  10.461  0.00  0.00    +0.100 A 
ATOM     21  C   UNL     1      -3.062  -9.947  10.764  0.00  0.00    +0.030 A 
ATOM     36  H   UNL     1      -5.510 -12.580  16.444  0.00  0.00    +0.156 HD
ENDROOT
BRANCH  20   8
ATOM      3  O   UNL     1      -6.444  -8.748  11.147  0.00  0.00    -0.252 OA
ATOM      8  N   UNL     1      -5.109  -9.823   9.586  0.00  0.00    -0.265 N 
ATOM      9  N   UNL     1      -6.845  -8.516   8.847  0.00  0.00    -0.269 N 
ATOM     23  C   UNL     1      -6.171  -8.996   9.975  0.00  0.00    +0.308 C 
ATOM     37  H   UNL     1      -5.120 -10.172   8.632  0.00  0.00    +0.157 HD
ATOM     38  H   UNL     1      -6.488  -8.814   7.942  0.00  0.00    +0.156 HD
BRANCH   9  29
ATOM     29  C   UNL     1      -7.966  -7.655   8.805  0.00  0.00    +0.035 A 
ATOM     30  C   UNL     1      -7.837  -6.367   8.286  0.00  0.00    +0.023 A 
ATOM     31  C   UNL     1      -9.201  -8.094   9.282  0.00  0.00    +0.023 A 
ATOM     32  C   UNL     1      -8.942  -5.518   8.244  0.00  0.00    +0.002 A 
ATOM     33  C   UNL     1     -10.307  -7.245   9.239  0.00  0.00    +0.002 A 
ATOM     35  C   UNL     1     -10.177  -5.957   8.721  0.00  0.00    +0.000 A 
ENDBRANCH   9  29
ENDBRANCH  20   8
BRANCH   7  22
ATOM     22  C   UNL     1      -6.598 -10.853  16.201  0.00  0.00    +0.035 A 
ATOM     24  C   UNL     1      -6.949 -10.179  17.371  0.00  0.00    +0.027 A 
ATOM     25  C   UNL     1      -7.423 -10.777  15.078  0.00  0.00    +0.027 A 
ATOM     26  C   UNL     1      -8.124  -9.428  17.418  0.00  0.00    +0.047 A 
ATOM     27  C   UNL     1      -8.598 -10.027  15.126  0.00  0.00    +0.047 A 
ATOM     28  C   UNL     1      -8.948  -9.352  16.296  0.00  0.00    +0.120 A 
BRANCH  28   4
ATOM      4  O   UNL     1     -10.095  -8.619  16.342  0.00  0.00    -0.495 OA
ATOM     34  C   UNL     1     -10.006  -7.250  15.949  0.00  0.00    +0.277 C 
ENDBRANCH  28   4
ENDBRANCH   7  22
TORSDOF 4
ENDMDL
MODEL 5
REMARK VINA RESULT:      -7.6     13.277     17.928
REMARK  Name = 40587821
REMARK  5 active torsions:
REMARK  status: ('A' for Active; 'I' for Inactive)
REMARK    1  A    between atoms: O_4  and  C_28
REMARK    2  A    between atoms: O_4  and  C_34
REMARK    3  A    between atoms: N_7  and  C_22
REMARK    4  A    between atoms: N_8  and  C_20
REMARK    5  A    between atoms: N_9  and  C_29
REMARK                            x       y       z     vdW  Elec       q    Type
REMARK                         _______ _______ _______ _____ _____    ______ ____
ROOT
ATOM      1  O   UNL     1      10.793   7.684   2.355  0.00  0.00    -0.266 OA
ATOM      2  O   UNL     1      13.512   6.353   7.437  0.00  0.00    -0.252 OA
ATOM      5  N   UNL     1      11.517   7.522   7.339  0.00  0.00    -0.284 N 
ATOM      6  N   UNL     1      10.161   6.955   4.484  0.00  0.00    -0.310 N 
ATOM      7  N   UNL     1      13.566   8.615   6.924  0.00  0.00    -0.269 N 
ATOM     10  C   UNL     1       9.461   8.563   6.346  0.00  0.00    +0.027 C 
ATOM     11  C   UNL     1       9.513   6.147   6.779  0.00  0.00    +0.054 C 
ATOM     12  C   UNL     1       8.636   7.393   6.863  0.00  0.00    +0.018 C 
ATOM     13  C   UNL     1      10.736   8.760   7.189  0.00  0.00    +0.114 C 
ATOM     14  C   UNL     1       9.784   8.322   4.866  0.00  0.00    +0.130 C 
ATOM     15  C   UNL     1      10.737   6.328   7.693  0.00  0.00    +0.119 C 
ATOM     16  C   UNL     1       9.965   5.881   5.355  0.00  0.00    +0.027 A 
ATOM     17  C   UNL     1      10.205   4.625   4.945  0.00  0.00    +0.024 A 
ATOM     18  C   UNL     1      10.624   6.771   3.164  0.00  0.00    +0.273 A 
ATOM     19  C   UNL     1      12.923   7.418   7.238  0.00  0.00    +0.306 C 
ATOM     20  C   UNL     1      10.903   5.359   2.754  0.00  0.00    +0.100 A 
ATOM     21  C   UNL     1      10.685   4.361   3.617  0.00  0.00    +0.030 A 
ATOM     36  H   UNL     1      13.134   9.483   7.218  0.00  0.00    +0.156 HD
ENDROOT
BRANCH  20   8
ATOM      3  O   UNL     1       9.403   4.321   0.571  0.00  0.00    -0.252 OA
ATOM      8  N   UNL     1      11.368   5.139   1.490  0.00  0.00    -0.265 N 
ATOM      9  N   UNL     1      11.353   4.518  -0.719  0.00  0.00    -0.269 N 
ATOM     23  C   UNL     1      10.587   4.625   0.447  0.00  0.00    +0.308 C 
ATOM     37  H   UNL     1      12.376   5.116   1.369  0.00  0.00    +0.157 HD
ATOM     38  H   UNL     1      12.323   4.817  -0.655  0.00  0.00    +0.156 HD
BRANCH   9  29
ATOM     29  C   UNL     1      10.943   4.046  -1.988  0.00  0.00    +0.035 A 
ATOM     30  C   UNL     1      11.456   2.849  -2.486  0.00  0.00    +0.023 A 
ATOM     31  C   UNL     1      10.026   4.779  -2.742  0.00  0.00    +0.023 A 
ATOM     32  C   UNL     1      11.052   2.383  -3.736  0.00  0.00    +0.002 A 
ATOM     33  C   UNL     1       9.622   4.313  -3.993  0.00  0.00    +0.002 A 
ATOM     35  C   UNL     1      10.135   3.115  -4.490  0.00  0.00    +0.000 A 
ENDBRANCH   9  29
ENDBRANCH  20   8
BRANCH   7  22
ATOM     22  C   UNL     1      14.775   8.774   6.204  0.00  0.00    +0.035 A 
ATOM     24  C   UNL     1      15.155   7.822   5.258  0.00  0.00    +0.027 A 
ATOM     25  C   UNL     1      15.587   9.885   6.440  0.00  0.00    +0.027 A 
ATOM     26  C   UNL     1      16.346   7.979   4.549  0.00  0.00    +0.047 A 
ATOM     27  C   UNL     1      16.779  10.040   5.731  0.00  0.00    +0.047 A 
ATOM     28  C   UNL     1      17.158   9.088   4.785  0.00  0.00    +0.120 A 
BRANCH  28   4
ATOM      4  O   UNL     1      18.320   9.241   4.093  0.00  0.00    -0.495 OA
ATOM     34  C   UNL     1      19.181   8.106   4.011  0.00  0.00    +0.277 C 
ENDBRANCH  28   4
ENDBRANCH   7  22
TORSDOF 4
ENDMDL
MODEL 6
REMARK VINA RESULT:      -7.6     28.646     31.269
REMARK  Name = 40587821
REMARK  5 active torsions:
REMARK  status: ('A' for Active; 'I' for Inactive)
REMARK    1  A    between atoms: O_4  and  C_28
REMARK    2  A    between atoms: O_4  and  C_34
REMARK    3  A    between atoms: N_7  and  C_22
REMARK    4  A    between atoms: N_8  and  C_20
REMARK    5  A    between atoms: N_9  and  C_29
REMARK                            x       y       z     vdW  Elec       q    Type
REMARK                         _______ _______ _______ _____ _____    ______ ____
ROOT
ATOM      1  O   UNL     1      -7.458  -8.797  17.138  0.00  0.00    -0.266 OA
ATOM      2  O   UNL     1      -5.412 -12.989  13.502  0.00  0.00    -0.252 OA
ATOM      5  N   UNL     1      -4.426 -12.488  15.535  0.00  0.00    -0.284 N 
ATOM      6  N   UNL     1      -6.588 -10.955  17.348  0.00  0.00    -0.310 N 
ATOM      7  N   UNL     1      -4.028 -11.133  13.645  0.00  0.00    -0.269 N 
ATOM     10  C   UNL     1      -4.108 -11.413  17.780  0.00  0.00    +0.027 C 
ATOM     11  C   UNL     1      -5.670 -13.292  17.541  0.00  0.00    +0.054 C 
ATOM     12  C   UNL     1      -4.597 -12.691  18.446  0.00  0.00    +0.018 C 
ATOM     13  C   UNL     1      -3.518 -11.702  16.386  0.00  0.00    +0.114 C 
ATOM     14  C   UNL     1      -5.272 -10.415  17.714  0.00  0.00    +0.130 C 
ATOM     15  C   UNL     1      -5.042 -13.652  16.183  0.00  0.00    +0.119 C 
ATOM     16  C   UNL     1      -6.826 -12.332  17.337  0.00  0.00    +0.027 A 
ATOM     17  C   UNL     1      -8.065 -12.802  17.116  0.00  0.00    +0.024 A 
ATOM     18  C   UNL     1      -7.616 -10.018  17.120  0.00  0.00    +0.273 A 
ATOM     19  C   UNL     1      -4.683 -12.248  14.166  0.00  0.00    +0.306 C 
ATOM     20  C   UNL     1      -8.977 -10.582  16.853  0.00  0.00    +0.100 A 
ATOM     21  C   UNL     1      -9.160 -11.906  16.868  0.00  0.00    +0.030 A 
ATOM     36  H   UNL     1      -3.143 -10.860  14.057  0.00  0.00    +0.156 HD
ENDROOT
BRANCH  20   8
ATOM      3  O   UNL     1      -9.398  -9.124  14.447  0.00  0.00    -0.252 OA
ATOM      8  N   UNL     1      -9.996  -9.708  16.610  0.00  0.00    -0.265 N 
ATOM      9  N   UNL     1     -11.296  -8.198  15.471  0.00  0.00    -0.269 N 
ATOM     23  C   UNL     1     -10.160  -9.013  15.404  0.00  0.00    +0.308 C 
ATOM     37  H   UNL     1     -10.510  -9.365  17.416  0.00  0.00    +0.157 HD
ATOM     38  H   UNL     1     -11.824  -8.224  16.340  0.00  0.00    +0.156 HD
BRANCH   9  29
ATOM     29  C   UNL     1     -11.810  -7.341  14.470  0.00  0.00    +0.035 A 
ATOM     30  C   UNL     1     -12.304  -7.876  13.281  0.00  0.00    +0.023 A 
ATOM     31  C   UNL     1     -11.823  -5.961  14.673  0.00  0.00    +0.023 A 
ATOM     32  C   UNL     1     -12.812  -7.032  12.294  0.00  0.00    +0.002 A 
ATOM     33  C   UNL     1     -12.332  -5.117  13.686  0.00  0.00    +0.002 A 
ATOM     35  C   UNL     1     -12.825  -5.651  12.496  0.00  0.00    +0.000 A 
ENDBRANCH   9  29
ENDBRANCH  20   8
BRANCH   7  22
ATOM     22  C   UNL     1      -4.469 -10.295  12.591  0.00  0.00    +0.035 A 
ATOM     24  C   UNL     1      -5.705  -9.655  12.679  0.00  0.00    +0.027 A 
ATOM     25  C   UNL     1      -3.667 -10.110  11.464  0.00  0.00    +0.027 A 
ATOM     26  C   UNL     1      -6.140  -8.830  11.641  0.00  0.00    +0.047 A 
ATOM     27  C   UNL     1      -4.102  -9.285  10.426  0.00  0.00    +0.047 A 
ATOM     28  C   UNL     1      -5.338  -8.645  10.515  0.00  0.00    +0.120 A 
BRANCH  28   4
ATOM      4  O   UNL     1      -5.762  -7.840   9.503  0.00  0.00    -0.495 OA
ATOM     34  C   UNL     1      -7.067  -8.085   8.981  0.00  0.00    +0.277 C 
ENDBRANCH  28   4
ENDBRANCH   7  22
TORSDOF 4
ENDMDL
MODEL 7
REMARK VINA RESULT:      -7.4      3.305      7.380
REMARK  Name = 40587821
REMARK  5 active torsions:
REMARK  status: ('A' for Active; 'I' for Inactive)
REMARK    1  A    between atoms: O_4  and  C_28
REMARK    2  A    between atoms: O_4  and  C_34
REMARK    3  A    between atoms: N_7  and  C_22
REMARK    4  A    between atoms: N_8  and  C_20
REMARK    5  A    between atoms: N_9  and  C_29
REMARK                            x       y       z     vdW  Elec       q    Type
REMARK                         _______ _______ _______ _____ _____    ______ ____
ROOT
ATOM      1  O   UNL     1      14.523  11.688  21.629  0.00  0.00    -0.266 OA
ATOM      2  O   UNL     1      15.474   6.779  18.469  0.00  0.00    -0.252 OA
ATOM      5  N   UNL     1      13.711   7.007  19.952  0.00  0.00    -0.284 N 
ATOM      6  N   UNL     1      13.223  10.140  20.458  0.00  0.00    -0.310 N 
ATOM      7  N   UNL     1      15.881   6.513  20.737  0.00  0.00    -0.269 N 
ATOM     10  C   UNL     1      12.147   8.107  21.577  0.00  0.00    +0.027 C 
ATOM     11  C   UNL     1      11.850   8.469  19.167  0.00  0.00    +0.054 C 
ATOM     12  C   UNL     1      11.103   8.219  20.474  0.00  0.00    +0.018 C 
ATOM     13  C   UNL     1      13.125   6.948  21.301  0.00  0.00    +0.114 C 
ATOM     14  C   UNL     1      12.873   9.451  21.707  0.00  0.00    +0.130 C 
ATOM     15  C   UNL     1      12.758   7.264  18.865  0.00  0.00    +0.119 C 
ATOM     16  C   UNL     1      12.680   9.737  19.234  0.00  0.00    +0.027 A 
ATOM     17  C   UNL     1      12.918  10.451  18.122  0.00  0.00    +0.024 A 
ATOM     18  C   UNL     1      14.038  11.285  20.572  0.00  0.00    +0.273 A 
ATOM     19  C   UNL     1      15.069   6.772  19.634  0.00  0.00    +0.306 C 
ATOM     20  C   UNL     1      14.300  12.038  19.305  0.00  0.00    +0.100 A 
ATOM     21  C   UNL     1      13.745  11.624  18.161  0.00  0.00    +0.030 A 
ATOM     36  H   UNL     1      15.461   6.077  21.550  0.00  0.00    +0.156 HD
ENDROOT
BRANCH  20   8
ATOM      3  O   UNL     1      17.134  12.073  19.073  0.00  0.00    -0.252 OA
ATOM      8  N   UNL     1      15.098  13.142  19.370  0.00  0.00    -0.265 N 
ATOM      9  N   UNL     1      17.018  14.400  19.360  0.00  0.00    -0.269 N 
ATOM     23  C   UNL     1      16.494  13.107  19.249  0.00  0.00    +0.308 C 
ATOM     37  H   UNL     1      14.688  13.984  19.764  0.00  0.00    +0.157 HD
ATOM     38  H   UNL     1      16.348  15.152  19.501  0.00  0.00    +0.156 HD
BRANCH   9  29
ATOM     29  C   UNL     1      18.374  14.796  19.294  0.00  0.00    +0.035 A 
ATOM     30  C   UNL     1      18.933  15.165  18.070  0.00  0.00    +0.023 A 
ATOM     31  C   UNL     1      19.153  14.818  20.451  0.00  0.00    +0.023 A 
ATOM     32  C   UNL     1      20.270  15.556  18.004  0.00  0.00    +0.002 A 
ATOM     33  C   UNL     1      20.489  15.210  20.385  0.00  0.00    +0.002 A 
ATOM     35  C   UNL     1      21.048  15.578  19.161  0.00  0.00    +0.000 A 
ENDBRANCH   9  29
ENDBRANCH  20   8
BRANCH   7  22
ATOM     22  C   UNL     1      17.259   6.810  20.875  0.00  0.00    +0.035 A 
ATOM     24  C   UNL     1      17.661   7.964  21.547  0.00  0.00    +0.027 A 
ATOM     25  C   UNL     1      18.216   5.946  20.339  0.00  0.00    +0.027 A 
ATOM     26  C   UNL     1      19.018   8.256  21.683  0.00  0.00    +0.047 A 
ATOM     27  C   UNL     1      19.573   6.240  20.475  0.00  0.00    +0.047 A 
ATOM     28  C   UNL     1      19.974   7.394  21.148  0.00  0.00    +0.120 A 
BRANCH  28   4
ATOM      4  O   UNL     1      21.298   7.679  21.280  0.00  0.00    -0.495 OA
ATOM     34  C   UNL     1      22.206   6.941  20.464  0.00  0.00    +0.277 C 
ENDBRANCH  28   4
ENDBRANCH   7  22
TORSDOF 4
ENDMDL
MODEL 8
REMARK VINA RESULT:      -7.3     28.148     31.003
REMARK  Name = 40587821
REMARK  5 active torsions:
REMARK  status: ('A' for Active; 'I' for Inactive)
REMARK    1  A    between atoms: O_4  and  C_28
REMARK    2  A    between atoms: O_4  and  C_34
REMARK    3  A    between atoms: N_7  and  C_22
REMARK    4  A    between atoms: N_8  and  C_20
REMARK    5  A    between atoms: N_9  and  C_29
REMARK                            x       y       z     vdW  Elec       q    Type
REMARK                         _______ _______ _______ _____ _____    ______ ____
ROOT
ATOM      1  O   UNL     1      -6.228 -11.727  11.058  0.00  0.00    -0.266 OA
ATOM      2  O   UNL     1      -3.269 -10.244  15.960  0.00  0.00    -0.252 OA
ATOM      5  N   UNL     1      -3.190 -12.361  15.027  0.00  0.00    -0.284 N 
ATOM      6  N   UNL     1      -4.112 -12.141  11.959  0.00  0.00    -0.310 N 
ATOM      7  N   UNL     1      -5.031 -11.703  16.348  0.00  0.00    -0.269 N 
ATOM     10  C   UNL     1      -3.590 -14.206  13.375  0.00  0.00    +0.027 C 
ATOM     11  C   UNL     1      -1.831 -12.548  12.945  0.00  0.00    +0.054 C 
ATOM     12  C   UNL     1      -2.167 -14.034  12.860  0.00  0.00    +0.018 C 
ATOM     13  C   UNL     1      -3.717 -13.721  14.832  0.00  0.00    +0.114 C 
ATOM     14  C   UNL     1      -4.547 -13.460  12.437  0.00  0.00    +0.130 C 
ATOM     15  C   UNL     1      -1.880 -12.102  14.417  0.00  0.00    +0.119 C 
ATOM     16  C   UNL     1      -2.791 -11.713  12.119  0.00  0.00    +0.027 A 
ATOM     17  C   UNL     1      -2.384 -10.556  11.572  0.00  0.00    +0.024 A 
ATOM     18  C   UNL     1      -5.060 -11.383  11.241  0.00  0.00    +0.273 A 
ATOM     19  C   UNL     1      -3.804 -11.343  15.793  0.00  0.00    +0.306 C 
ATOM     20  C   UNL     1      -4.574 -10.088  10.668  0.00  0.00    +0.100 A 
ATOM     21  C   UNL     1      -3.296  -9.728  10.833  0.00  0.00    +0.030 A 
ATOM     36  H   UNL     1      -5.190 -12.679  16.570  0.00  0.00    +0.156 HD
ENDROOT
BRANCH  20   8
ATOM      3  O   UNL     1      -5.270 -10.374   7.925  0.00  0.00    -0.252 OA
ATOM      8  N   UNL     1      -5.464  -9.317   9.980  0.00  0.00    -0.265 N 
ATOM      9  N   UNL     1      -6.718  -8.550   8.217  0.00  0.00    -0.269 N 
ATOM     23  C   UNL     1      -5.774  -9.499   8.625  0.00  0.00    +0.308 C 
ATOM     37  H   UNL     1      -5.725  -8.430  10.400  0.00  0.00    +0.157 HD
ATOM     38  H   UNL     1      -7.039  -7.894   8.925  0.00  0.00    +0.156 HD
BRANCH   9  29
ATOM     29  C   UNL     1      -7.292  -8.392   6.934  0.00  0.00    +0.035 A 
ATOM     30  C   UNL     1      -8.306  -7.455   6.736  0.00  0.00    +0.023 A 
ATOM     31  C   UNL     1      -6.846  -9.173   5.868  0.00  0.00    +0.023 A 
ATOM     32  C   UNL     1      -8.872  -7.297   5.471  0.00  0.00    +0.002 A 
ATOM     33  C   UNL     1      -7.413  -9.016   4.604  0.00  0.00    +0.002 A 
ATOM     35  C   UNL     1      -8.426  -8.078   4.405  0.00  0.00    +0.000 A 
ENDBRANCH   9  29
ENDBRANCH  20   8
BRANCH   7  22
ATOM     22  C   UNL     1      -6.126 -10.850  16.632  0.00  0.00    +0.035 A 
ATOM     24  C   UNL     1      -6.936 -10.386  15.596  0.00  0.00    +0.027 A 
ATOM     25  C   UNL     1      -6.395 -10.474  17.949  0.00  0.00    +0.027 A 
ATOM     26  C   UNL     1      -8.014  -9.546  15.876  0.00  0.00    +0.047 A 
ATOM     27  C   UNL     1      -7.473  -9.634  18.228  0.00  0.00    +0.047 A 
ATOM     28  C   UNL     1      -8.283  -9.170  17.191  0.00  0.00    +0.120 A 
BRANCH  28   4
ATOM      4  O   UNL     1      -9.335  -8.351  17.464  0.00  0.00    -0.495 OA
ATOM     34  C   UNL     1     -10.627  -8.954  17.527  0.00  0.00    +0.277 C 
ENDBRANCH  28   4
ENDBRANCH   7  22
TORSDOF 4
ENDMDL
MODEL 9
REMARK VINA RESULT:      -7.3     15.196     20.343
REMARK  Name = 40587821
REMARK  5 active torsions:
REMARK  status: ('A' for Active; 'I' for Inactive)
REMARK    1  A    between atoms: O_4  and  C_28
REMARK    2  A    between atoms: O_4  and  C_34
REMARK    3  A    between atoms: N_7  and  C_22
REMARK    4  A    between atoms: N_8  and  C_20
REMARK    5  A    between atoms: N_9  and  C_29
REMARK                            x       y       z     vdW  Elec       q    Type
REMARK                         _______ _______ _______ _____ _____    ______ ____
ROOT
ATOM      1  O   UNL     1      13.443   7.185   1.128  0.00  0.00    -0.266 OA
ATOM      2  O   UNL     1       9.202   4.779  -2.222  0.00  0.00    -0.252 OA
ATOM      5  N   UNL     1      11.332   5.227  -3.008  0.00  0.00    -0.284 N 
ATOM      6  N   UNL     1      13.298   5.498  -0.483  0.00  0.00    -0.310 N 
ATOM      7  N   UNL     1       9.736   6.954  -2.826  0.00  0.00    -0.269 N 
ATOM     10  C   UNL     1      13.746   5.912  -2.967  0.00  0.00    +0.027 C 
ATOM     11  C   UNL     1      13.106   3.669  -2.203  0.00  0.00    +0.054 C 
ATOM     12  C   UNL     1      14.149   4.445  -3.002  0.00  0.00    +0.018 C 
ATOM     13  C   UNL     1      12.350   6.121  -3.584  0.00  0.00    +0.114 C 
ATOM     14  C   UNL     1      13.811   6.406  -1.516  0.00  0.00    +0.130 C 
ATOM     15  C   UNL     1      11.734   3.819  -2.883  0.00  0.00    +0.119 C 
ATOM     16  C   UNL     1      13.029   4.157  -0.769  0.00  0.00    +0.027 A 
ATOM     17  C   UNL     1      12.674   3.313   0.215  0.00  0.00    +0.024 A 
ATOM     18  C   UNL     1      13.198   6.017   0.825  0.00  0.00    +0.273 A 
ATOM     19  C   UNL     1      10.019   5.601  -2.643  0.00  0.00    +0.306 C 
ATOM     20  C   UNL     1      12.776   5.051   1.888  0.00  0.00    +0.100 A 
ATOM     21  C   UNL     1      12.544   3.773   1.569  0.00  0.00    +0.030 A 
ATOM     36  H   UNL     1      10.228   7.453  -3.558  0.00  0.00    +0.156 HD
ENDROOT
BRANCH  20   8
ATOM      3  O   UNL     1      10.335   5.600   3.240  0.00  0.00    -0.252 OA
ATOM      8  N   UNL     1      12.650   5.518   3.164  0.00  0.00    -0.265 N 
ATOM      9  N   UNL     1      11.631   6.242   5.088  0.00  0.00    -0.269 N 
ATOM     23  C   UNL     1      11.421   5.773   3.787  0.00  0.00    +0.308 C 
ATOM     37  H   UNL     1      13.478   5.926   3.587  0.00  0.00    +0.157 HD
ATOM     38  H   UNL     1      12.598   6.325   5.392  0.00  0.00    +0.156 HD
BRANCH   9  29
ATOM     29  C   UNL     1      10.658   6.612   6.046  0.00  0.00    +0.035 A 
ATOM     30  C   UNL     1      10.418   5.792   7.148  0.00  0.00    +0.023 A 
ATOM     31  C   UNL     1       9.938   7.796   5.888  0.00  0.00    +0.023 A 
ATOM     32  C   UNL     1       9.460   6.157   8.093  0.00  0.00    +0.002 A 
ATOM     33  C   UNL     1       8.980   8.161   6.833  0.00  0.00    +0.002 A 
ATOM     35  C   UNL     1       8.740   7.341   7.935  0.00  0.00    +0.000 A 
ENDBRANCH   9  29
ENDBRANCH  20   8
BRANCH   7  22
ATOM     22  C   UNL     1       8.832   7.749  -2.079  0.00  0.00    +0.035 A 
ATOM     24  C   UNL     1       7.561   8.021  -2.584  0.00  0.00    +0.027 A 
ATOM     25  C   UNL     1       9.213   8.258  -0.836  0.00  0.00    +0.027 A 
ATOM     26  C   UNL     1       6.670   8.804  -1.848  0.00  0.00    +0.047 A 
ATOM     27  C   UNL     1       8.322   9.041  -0.101  0.00  0.00    +0.047 A 
ATOM     28  C   UNL     1       7.051   9.313  -0.607  0.00  0.00    +0.120 A 
BRANCH  28   4
ATOM      4  O   UNL     1       6.182  10.076   0.111  0.00  0.00    -0.495 OA
ATOM     34  C   UNL     1       6.227   9.949   1.531  0.00  0.00    +0.277 C 
ENDBRANCH  28   4
ENDBRANCH   7  22
TORSDOF 4
ENDMDL
MODEL 10
REMARK VINA RESULT:      -7.2     27.858     31.633
REMARK  Name = 40587821
REMARK  5 active torsions:
REMARK  status: ('A' for Active; 'I' for Inactive)
REMARK    1  A    between atoms: O_4  and  C_28
REMARK    2  A    between atoms: O_4  and  C_34
REMARK    3  A    between atoms: N_7  and  C_22
REMARK    4  A    between atoms: N_8  and  C_20
REMARK    5  A    between atoms: N_9  and  C_29
REMARK                            x       y       z     vdW  Elec       q    Type
REMARK                         _______ _______ _______ _____ _____    ______ ____
ROOT
ATOM      1  O   UNL     1      -8.042  -8.788  16.071  0.00  0.00    -0.266 OA
ATOM      2  O   UNL     1      -4.646 -13.448  14.753  0.00  0.00    -0.252 OA
ATOM      5  N   UNL     1      -4.663 -12.446  16.839  0.00  0.00    -0.284 N 
ATOM      6  N   UNL     1      -7.386 -10.768  17.124  0.00  0.00    -0.310 N 
ATOM      7  N   UNL     1      -3.446 -11.486  15.060  0.00  0.00    -0.269 N 
ATOM     10  C   UNL     1      -5.366 -10.902  18.688  0.00  0.00    +0.027 C 
ATOM     11  C   UNL     1      -6.682 -12.922  18.223  0.00  0.00    +0.054 C 
ATOM     12  C   UNL     1      -6.118 -12.051  19.343  0.00  0.00    +0.018 C 
ATOM     13  C   UNL     1      -4.220 -11.422  17.798  0.00  0.00    +0.114 C 
ATOM     14  C   UNL     1      -6.365 -10.048  17.895  0.00  0.00    +0.130 C 
ATOM     15  C   UNL     1      -5.519 -13.500  17.398  0.00  0.00    +0.119 C 
ATOM     16  C   UNL     1      -7.613 -12.133  17.322  0.00  0.00    +0.027 A 
ATOM     17  C   UNL     1      -8.630 -12.747  16.695  0.00  0.00    +0.024 A 
ATOM     18  C   UNL     1      -8.192  -9.995  16.262  0.00  0.00    +0.273 A 
ATOM     19  C   UNL     1      -4.280 -12.522  15.480  0.00  0.00    +0.306 C 
ATOM     20  C   UNL     1      -9.298 -10.722  15.563  0.00  0.00    +0.100 A 
ATOM     21  C   UNL     1      -9.487 -12.025  15.797  0.00  0.00    +0.030 A 
ATOM     36  H   UNL     1      -2.834 -11.055  15.744  0.00  0.00    +0.156 HD
ENDROOT
BRANCH  20   8
ATOM      3  O   UNL     1     -11.392  -8.944  16.301  0.00  0.00    -0.252 OA
ATOM      8  N   UNL     1     -10.090 -10.013  14.708  0.00  0.00    -0.265 N 
ATOM      9  N   UNL     1     -11.737  -8.575  14.009  0.00  0.00    -0.269 N 
ATOM     23  C   UNL     1     -11.111  -9.148  15.122  0.00  0.00    +0.308 C 
ATOM     37  H   UNL     1     -10.102 -10.312  13.737  0.00  0.00    +0.157 HD
ATOM     38  H   UNL     1     -11.380  -8.848  13.096  0.00  0.00    +0.156 HD
BRANCH   9  29
ATOM     29  C   UNL     1     -12.808  -7.652  13.993  0.00  0.00    +0.035 A 
ATOM     30  C   UNL     1     -12.553  -6.290  13.836  0.00  0.00    +0.023 A 
ATOM     31  C   UNL     1     -14.121  -8.103  14.135  0.00  0.00    +0.023 A 
ATOM     32  C   UNL     1     -13.608  -5.380  13.819  0.00  0.00    +0.002 A 
ATOM     33  C   UNL     1     -15.176  -7.193  14.119  0.00  0.00    +0.002 A 
ATOM     35  C   UNL     1     -14.921  -5.831  13.961  0.00  0.00    +0.000 A 
ENDBRANCH   9  29
ENDBRANCH  20   8
BRANCH   7  22
ATOM     22  C   UNL     1      -3.359 -10.930  13.760  0.00  0.00    +0.035 A 
ATOM     24  C   UNL     1      -2.124 -10.844  13.119  0.00  0.00    +0.027 A 
ATOM     25  C   UNL     1      -4.511 -10.469  13.119  0.00  0.00    +0.027 A 
ATOM     26  C   UNL     1      -2.038 -10.297  11.839  0.00  0.00    +0.047 A 
ATOM     27  C   UNL     1      -4.424  -9.922  11.839  0.00  0.00    +0.047 A 
ATOM     28  C   UNL     1      -3.188  -9.836  11.199  0.00  0.00    +0.120 A 
BRANCH  28   4
ATOM      4  O   UNL     1      -3.104  -9.302   9.949  0.00  0.00    -0.495 OA
ATOM     34  C   UNL     1      -4.332  -8.970   9.302  0.00  0.00    +0.277 C 
ENDBRANCH  28   4
ENDBRANCH   7  22
TORSDOF 4
ENDMDL
