MODEL 1
REMARK VINA RESULT:      -7.0      0.000      0.000
REMARK  Name = 45784106
REMARK  13 active torsions:
REMARK  status: ('A' for Active; 'I' for Inactive)
REMARK    1  A    between atoms: O_2  and  C_28
REMARK    2  A    between atoms: O_2  and  C_32
REMARK    3  A    between atoms: N_3  and  C_16
REMARK    4  A    between atoms: N_3  and  C_22
REMARK    5  A    between atoms: N_7  and  C_31
REMARK    6  A    between atoms: C_9  and  C_13
REMARK    7  A    between atoms: C_10  and  C_16
REMARK    8  A    between atoms: C_12  and  C_17
REMARK    9  A    between atoms: C_13  and  C_18
REMARK   10  A    between atoms: C_13  and  C_19
REMARK   11  A    between atoms: C_14  and  C_20
REMARK   12  A    between atoms: C_17  and  C_21
REMARK   13  A    between atoms: C_23  and  C_26
REMARK                            x       y       z     vdW  Elec       q    Type
REMARK                         _______ _______ _______ _____ _____    ______ ____
ROOT
ATOM      9  C   UNL     1      17.534   8.383  21.661  0.00  0.00    +0.000 C 
ATOM     10  C   UNL     1      16.802   7.467  20.648  0.00  0.00    +0.032 C 
ATOM     11  C   UNL     1      19.019   8.510  21.291  0.00  0.00    +0.012 C 
ATOM     12  C   UNL     1      19.732   7.145  21.263  0.00  0.00    +0.024 C 
ATOM     14  C   UNL     1      18.932   6.108  20.502  0.00  0.00    -0.073 C 
ATOM     15  C   UNL     1      17.626   6.275  20.225  0.00  0.00    -0.022 C 
ATOM     20  C   UNL     1      19.677   4.892  20.026  0.00  0.00    +0.039 C 
ENDROOT
BRANCH   9  13
ATOM     13  C   UNL     1      16.897   9.774  21.734  0.00  0.00    -0.013 C 
ATOM     18  C   UNL     1      16.248  10.134  20.402  0.00  0.00    +0.007 C 
ATOM     19  C   UNL     1      17.940  10.816  22.126  0.00  0.00    +0.007 C 
ENDBRANCH   9  13
BRANCH  10  16
ATOM     16  C   UNL     1      15.459   6.986  21.210  0.00  0.00    +0.109 C 
BRANCH  16   3
ATOM      3  N   UNL     1      14.685   6.387  20.158  0.00  0.00    -0.342 N 
ATOM     33  H   UNL     1      14.697   5.380  20.038  0.00  0.00    +0.146 HD
BRANCH   3  22
ATOM      6  N   UNL     1      11.792   7.999  18.562  0.00  0.00    -0.219 NA
ATOM     22  C   UNL     1      13.936   7.110  19.237  0.00  0.00    +0.046 A 
ATOM     24  C   UNL     1      14.528   7.656  18.104  0.00  0.00    +0.029 A 
ATOM     25  C   UNL     1      12.577   7.307  19.418  0.00  0.00    +0.137 A 
ATOM     27  C   UNL     1      13.753   8.375  17.200  0.00  0.00    +0.069 A 
ATOM     28  C   UNL     1      12.402   8.517  17.473  0.00  0.00    +0.214 A 
BRANCH  28   2
ATOM      2  O   UNL     1      11.618   9.221  16.597  0.00  0.00    -0.480 OA
ATOM     32  C   UNL     1      10.392   8.615  16.205  0.00  0.00    +0.279 C 
ENDBRANCH  28   2
ENDBRANCH   3  22
ENDBRANCH  16   3
ENDBRANCH  10  16
BRANCH  12  17
ATOM     17  C   UNL     1      20.052   6.659  22.681  0.00  0.00    +0.105 C 
BRANCH  17  21
ATOM      1  O   UNL     1      21.399   4.631  22.845  0.00  0.00    -0.419 OA
ATOM      4  N   UNL     1      22.595   6.516  22.712  0.00  0.00    -0.112 NA
ATOM      5  N   UNL     1      23.478   5.456  22.799  0.00  0.00    -0.106 NA
ATOM     21  C   UNL     1      21.394   5.988  22.742  0.00  0.00    +0.218 A 
ATOM     23  C   UNL     1      22.735   4.376  22.876  0.00  0.00    +0.266 A 
BRANCH  23  26
ATOM      7  N   UNL     1      23.336   2.341  24.134  0.00  0.00    -0.329 N 
ATOM      8  N   UNL     1      24.227   1.058  22.555  0.00  0.00    -0.243 NA
ATOM     26  C   UNL     1      23.272   3.069  22.980  0.00  0.00    +0.125 A 
ATOM     29  C   UNL     1      23.828   2.257  22.020  0.00  0.00    +0.143 A 
ATOM     30  C   UNL     1      23.916   1.141  23.830  0.00  0.00    +0.199 A 
ATOM     31  C   UNL     1      22.880   2.739  25.446  0.00  0.00    +0.150 C 
ENDBRANCH  23  26
ENDBRANCH  17  21
ENDBRANCH  12  17
TORSDOF 8
ENDMDL
MODEL 2
REMARK VINA RESULT:      -7.0      1.963      2.509
REMARK  Name = 45784106
REMARK  13 active torsions:
REMARK  status: ('A' for Active; 'I' for Inactive)
REMARK    1  A    between atoms: O_2  and  C_28
REMARK    2  A    between atoms: O_2  and  C_32
REMARK    3  A    between atoms: N_3  and  C_16
REMARK    4  A    between atoms: N_3  and  C_22
REMARK    5  A    between atoms: N_7  and  C_31
REMARK    6  A    between atoms: C_9  and  C_13
REMARK    7  A    between atoms: C_10  and  C_16
REMARK    8  A    between atoms: C_12  and  C_17
REMARK    9  A    between atoms: C_13  and  C_18
REMARK   10  A    between atoms: C_13  and  C_19
REMARK   11  A    between atoms: C_14  and  C_20
REMARK   12  A    between atoms: C_17  and  C_21
REMARK   13  A    between atoms: C_23  and  C_26
REMARK                            x       y       z     vdW  Elec       q    Type
REMARK                         _______ _______ _______ _____ _____    ______ ____
ROOT
ATOM      9  C   UNL     1      18.320   8.834  21.753  0.00  0.00    +0.000 C 
ATOM     10  C   UNL     1      17.201   8.354  20.794  0.00  0.00    +0.032 C 
ATOM     11  C   UNL     1      19.700   8.445  21.202  0.00  0.00    +0.012 C 
ATOM     12  C   UNL     1      19.843   6.923  21.008  0.00  0.00    +0.024 C 
ATOM     14  C   UNL     1      18.641   6.331  20.301  0.00  0.00    -0.073 C 
ATOM     15  C   UNL     1      17.472   6.991  20.204  0.00  0.00    -0.022 C 
ATOM     20  C   UNL     1      18.824   4.980  19.668  0.00  0.00    +0.039 C 
ENDROOT
BRANCH   9  13
ATOM     13  C   UNL     1      18.262  10.347  21.983  0.00  0.00    -0.013 C 
ATOM     18  C   UNL     1      18.353  11.092  20.655  0.00  0.00    +0.007 C 
ATOM     19  C   UNL     1      19.378  10.785  22.926  0.00  0.00    +0.007 C 
ENDBRANCH   9  13
BRANCH  10  16
ATOM     16  C   UNL     1      15.839   8.345  21.497  0.00  0.00    +0.109 C 
BRANCH  16   3
ATOM      3  N   UNL     1      14.957   9.276  20.849  0.00  0.00    -0.342 N 
ATOM     33  H   UNL     1      14.984  10.255  21.109  0.00  0.00    +0.146 HD
BRANCH   3  22
ATOM      6  N   UNL     1      12.723   7.175  18.822  0.00  0.00    -0.219 NA
ATOM     22  C   UNL     1      14.011   8.915  19.897  0.00  0.00    +0.046 A 
ATOM     24  C   UNL     1      13.413   9.870  19.084  0.00  0.00    +0.029 A 
ATOM     25  C   UNL     1      13.636   7.592  19.728  0.00  0.00    +0.137 A 
ATOM     27  C   UNL     1      12.469   9.479  18.139  0.00  0.00    +0.069 A 
ATOM     28  C   UNL     1      12.162   8.132  18.050  0.00  0.00    +0.214 A 
BRANCH  28   2
ATOM      2  O   UNL     1      11.235   7.722  17.128  0.00  0.00    -0.480 OA
ATOM     32  C   UNL     1      10.759   8.707  16.218  0.00  0.00    +0.279 C 
ENDBRANCH  28   2
ENDBRANCH   3  22
ENDBRANCH  16   3
ENDBRANCH  10  16
BRANCH  12  17
ATOM     17  C   UNL     1      20.096   6.217  22.344  0.00  0.00    +0.105 C 
BRANCH  17  21
ATOM      1  O   UNL     1      22.080   5.442  21.153  0.00  0.00    -0.419 OA
ATOM      4  N   UNL     1      21.982   4.789  23.290  0.00  0.00    -0.112 NA
ATOM      5  N   UNL     1      23.147   4.284  22.742  0.00  0.00    -0.106 NA
ATOM     21  C   UNL     1      21.392   5.458  22.327  0.00  0.00    +0.218 A 
ATOM     23  C   UNL     1      23.161   4.690  21.493  0.00  0.00    +0.266 A 
BRANCH  23  26
ATOM      7  N   UNL     1      25.123   5.268  20.115  0.00  0.00    -0.329 N 
ATOM      8  N   UNL     1      25.624   3.321  19.170  0.00  0.00    -0.243 NA
ATOM     26  C   UNL     1      24.203   4.375  20.586  0.00  0.00    +0.125 A 
ATOM     29  C   UNL     1      24.532   3.181  19.989  0.00  0.00    +0.143 A 
ATOM     30  C   UNL     1      25.956   4.590  19.269  0.00  0.00    +0.199 A 
ATOM     31  C   UNL     1      25.224   6.673  20.436  0.00  0.00    +0.150 C 
ENDBRANCH  23  26
ENDBRANCH  17  21
ENDBRANCH  12  17
TORSDOF 8
ENDMDL
MODEL 3
REMARK VINA RESULT:      -6.8     28.071     31.483
REMARK  Name = 45784106
REMARK  13 active torsions:
REMARK  status: ('A' for Active; 'I' for Inactive)
REMARK    1  A    between atoms: O_2  and  C_28
REMARK    2  A    between atoms: O_2  and  C_32
REMARK    3  A    between atoms: N_3  and  C_16
REMARK    4  A    between atoms: N_3  and  C_22
REMARK    5  A    between atoms: N_7  and  C_31
REMARK    6  A    between atoms: C_9  and  C_13
REMARK    7  A    between atoms: C_10  and  C_16
REMARK    8  A    between atoms: C_12  and  C_17
REMARK    9  A    between atoms: C_13  and  C_18
REMARK   10  A    between atoms: C_13  and  C_19
REMARK   11  A    between atoms: C_14  and  C_20
REMARK   12  A    between atoms: C_17  and  C_21
REMARK   13  A    between atoms: C_23  and  C_26
REMARK                            x       y       z     vdW  Elec       q    Type
REMARK                         _______ _______ _______ _____ _____    ______ ____
ROOT
ATOM      9  C   UNL     1      -2.948 -12.513  13.330  0.00  0.00    +0.000 C 
ATOM     10  C   UNL     1      -1.864 -11.429  13.550  0.00  0.00    +0.032 C 
ATOM     11  C   UNL     1      -3.112 -12.809  11.831  0.00  0.00    +0.012 C 
ATOM     12  C   UNL     1      -3.505 -11.555  11.028  0.00  0.00    +0.024 C 
ATOM     14  C   UNL     1      -2.646 -10.362  11.391  0.00  0.00    -0.073 C 
ATOM     15  C   UNL     1      -1.909 -10.328  12.516  0.00  0.00    -0.022 C 
ATOM     20  C   UNL     1      -2.616  -9.224  10.410  0.00  0.00    +0.039 C 
ENDROOT
BRANCH   9  13
ATOM     13  C   UNL     1      -2.621 -13.807  14.081  0.00  0.00    -0.013 C 
ATOM     18  C   UNL     1      -2.114 -14.871  13.114  0.00  0.00    +0.007 C 
ATOM     19  C   UNL     1      -3.846 -14.306  14.840  0.00  0.00    +0.007 C 
ENDBRANCH   9  13
BRANCH  10  16
ATOM     16  C   UNL     1      -1.972 -10.817  14.951  0.00  0.00    +0.109 C 
BRANCH  16   3
ATOM      3  N   UNL     1      -3.281 -10.253  15.131  0.00  0.00    -0.342 N 
ATOM     33  H   UNL     1      -3.650  -9.611  14.438  0.00  0.00    +0.146 HD
BRANCH   3  22
ATOM      6  N   UNL     1      -6.189 -10.151  17.378  0.00  0.00    -0.219 NA
ATOM     22  C   UNL     1      -4.085 -10.494  16.239  0.00  0.00    +0.046 A 
ATOM     24  C   UNL     1      -3.635 -11.284  17.291  0.00  0.00    +0.029 A 
ATOM     25  C   UNL     1      -5.357  -9.955  16.330  0.00  0.00    +0.137 A 
ATOM     27  C   UNL     1      -4.462 -11.508  18.387  0.00  0.00    +0.069 A 
ATOM     28  C   UNL     1      -5.718 -10.924  18.382  0.00  0.00    +0.214 A 
BRANCH  28   2
ATOM      2  O   UNL     1      -6.551 -11.130  19.450  0.00  0.00    -0.480 OA
ATOM     32  C   UNL     1      -7.941 -11.240  19.166  0.00  0.00    +0.279 C 
ENDBRANCH  28   2
ENDBRANCH   3  22
ENDBRANCH  16   3
ENDBRANCH  10  16
BRANCH  12  17
ATOM     17  C   UNL     1      -4.994 -11.232  11.201  0.00  0.00    +0.105 C 
BRANCH  17  21
ATOM      1  O   UNL     1      -5.823 -10.059   9.229  0.00  0.00    -0.419 OA
ATOM      4  N   UNL     1      -6.275 -12.249   9.248  0.00  0.00    -0.112 NA
ATOM      5  N   UNL     1      -6.798 -11.716   8.085  0.00  0.00    -0.106 NA
ATOM     21  C   UNL     1      -5.715 -11.247   9.884  0.00  0.00    +0.218 A 
ATOM     23  C   UNL     1      -6.511 -10.435   8.116  0.00  0.00    +0.266 A 
BRANCH  23  26
ATOM      7  N   UNL     1      -7.748  -8.487   7.247  0.00  0.00    -0.329 N 
ATOM      8  N   UNL     1      -7.099  -8.427   5.124  0.00  0.00    -0.243 NA
ATOM     26  C   UNL     1      -6.881  -9.531   7.091  0.00  0.00    +0.125 A 
ATOM     29  C   UNL     1      -6.494  -9.474   5.773  0.00  0.00    +0.143 A 
ATOM     30  C   UNL     1      -7.848  -7.853   6.040  0.00  0.00    +0.199 A 
ATOM     31  C   UNL     1      -8.445  -8.100   8.453  0.00  0.00    +0.150 C 
ENDBRANCH  23  26
ENDBRANCH  17  21
ENDBRANCH  12  17
TORSDOF 8
ENDMDL
MODEL 4
REMARK VINA RESULT:      -6.7     27.873     31.169
REMARK  Name = 45784106
REMARK  13 active torsions:
REMARK  status: ('A' for Active; 'I' for Inactive)
REMARK    1  A    between atoms: O_2  and  C_28
REMARK    2  A    between atoms: O_2  and  C_32
REMARK    3  A    between atoms: N_3  and  C_16
REMARK    4  A    between atoms: N_3  and  C_22
REMARK    5  A    between atoms: N_7  and  C_31
REMARK    6  A    between atoms: C_9  and  C_13
REMARK    7  A    between atoms: C_10  and  C_16
REMARK    8  A    between atoms: C_12  and  C_17
REMARK    9  A    between atoms: C_13  and  C_18
REMARK   10  A    between atoms: C_13  and  C_19
REMARK   11  A    between atoms: C_14  and  C_20
REMARK   12  A    between atoms: C_17  and  C_21
REMARK   13  A    between atoms: C_23  and  C_26
REMARK                            x       y       z     vdW  Elec       q    Type
REMARK                         _______ _______ _______ _____ _____    ______ ____
ROOT
ATOM      9  C   UNL     1      -3.095 -12.292  13.724  0.00  0.00    +0.000 C 
ATOM     10  C   UNL     1      -1.892 -11.455  14.226  0.00  0.00    +0.032 C 
ATOM     11  C   UNL     1      -2.970 -12.558  12.216  0.00  0.00    +0.012 C 
ATOM     12  C   UNL     1      -2.907 -11.255  11.397  0.00  0.00    +0.024 C 
ATOM     14  C   UNL     1      -1.928 -10.263  11.993  0.00  0.00    -0.073 C 
ATOM     15  C   UNL     1      -1.476 -10.376  13.254  0.00  0.00    -0.022 C 
ATOM     20  C   UNL     1      -1.446  -9.162  11.090  0.00  0.00    +0.039 C 
ENDROOT
BRANCH   9  13
ATOM     13  C   UNL     1      -3.217 -13.621  14.476  0.00  0.00    -0.013 C 
ATOM     18  C   UNL     1      -2.077 -14.558  14.091  0.00  0.00    +0.007 C 
ATOM     19  C   UNL     1      -4.568 -14.269  14.195  0.00  0.00    +0.007 C 
ENDBRANCH   9  13
BRANCH  10  16
ATOM     16  C   UNL     1      -2.189 -10.825  15.592  0.00  0.00    +0.109 C 
BRANCH  16   3
ATOM      3  N   UNL     1      -3.535 -10.326  15.608  0.00  0.00    -0.342 N 
ATOM     33  H   UNL     1      -3.874  -9.771  14.829  0.00  0.00    +0.146 HD
BRANCH   3  22
ATOM      6  N   UNL     1      -6.609 -10.133  17.616  0.00  0.00    -0.219 NA
ATOM     22  C   UNL     1      -4.420 -10.512  16.664  0.00  0.00    +0.046 A 
ATOM     24  C   UNL     1      -4.045 -11.231  17.793  0.00  0.00    +0.029 A 
ATOM     25  C   UNL     1      -5.701  -9.988  16.625  0.00  0.00    +0.137 A 
ATOM     27  C   UNL     1      -4.951 -11.402  18.834  0.00  0.00    +0.069 A 
ATOM     28  C   UNL     1      -6.209 -10.838  18.698  0.00  0.00    +0.214 A 
BRANCH  28   2
ATOM      2  O   UNL     1      -7.120 -10.993  19.710  0.00  0.00    -0.480 OA
ATOM     32  C   UNL     1      -8.491 -11.042  19.335  0.00  0.00    +0.279 C 
ENDBRANCH  28   2
ENDBRANCH   3  22
ENDBRANCH  16   3
ENDBRANCH  10  16
BRANCH  12  17
ATOM     17  C   UNL     1      -4.298 -10.629  11.246  0.00  0.00    +0.105 C 
BRANCH  17  21
ATOM      1  O   UNL     1      -4.592 -11.417   8.955  0.00  0.00    -0.419 OA
ATOM      4  N   UNL     1      -4.938  -9.223   9.221  0.00  0.00    -0.112 NA
ATOM      5  N   UNL     1      -5.137  -9.529   7.887  0.00  0.00    -0.106 NA
ATOM     21  C   UNL     1      -4.623 -10.355   9.806  0.00  0.00    +0.218 A 
ATOM     23  C   UNL     1      -4.924 -10.820   7.779  0.00  0.00    +0.266 A 
BRANCH  23  26
ATOM      7  N   UNL     1      -6.175 -12.096   6.079  0.00  0.00    -0.329 N 
ATOM      8  N   UNL     1      -4.609 -12.516   4.560  0.00  0.00    -0.243 NA
ATOM     26  C   UNL     1      -5.029 -11.525   6.554  0.00  0.00    +0.125 A 
ATOM     29  C   UNL     1      -4.077 -11.797   5.600  0.00  0.00    +0.143 A 
ATOM     30  C   UNL     1      -5.874 -12.679   4.879  0.00  0.00    +0.199 A 
ATOM     31  C   UNL     1      -7.477 -12.099   6.706  0.00  0.00    +0.150 C 
ENDBRANCH  23  26
ENDBRANCH  17  21
ENDBRANCH  12  17
TORSDOF 8
ENDMDL
MODEL 5
REMARK VINA RESULT:      -6.6     28.039     31.192
REMARK  Name = 45784106
REMARK  13 active torsions:
REMARK  status: ('A' for Active; 'I' for Inactive)
REMARK    1  A    between atoms: O_2  and  C_28
REMARK    2  A    between atoms: O_2  and  C_32
REMARK    3  A    between atoms: N_3  and  C_16
REMARK    4  A    between atoms: N_3  and  C_22
REMARK    5  A    between atoms: N_7  and  C_31
REMARK    6  A    between atoms: C_9  and  C_13
REMARK    7  A    between atoms: C_10  and  C_16
REMARK    8  A    between atoms: C_12  and  C_17
REMARK    9  A    between atoms: C_13  and  C_18
REMARK   10  A    between atoms: C_13  and  C_19
REMARK   11  A    between atoms: C_14  and  C_20
REMARK   12  A    between atoms: C_17  and  C_21
REMARK   13  A    between atoms: C_23  and  C_26
REMARK                            x       y       z     vdW  Elec       q    Type
REMARK                         _______ _______ _______ _____ _____    ______ ____
ROOT
ATOM      9  C   UNL     1      -5.329 -11.091  13.838  0.00  0.00    +0.000 C 
ATOM     10  C   UNL     1      -3.922 -10.970  13.200  0.00  0.00    +0.032 C 
ATOM     11  C   UNL     1      -5.430 -10.196  15.083  0.00  0.00    +0.012 C 
ATOM     12  C   UNL     1      -4.377 -10.558  16.148  0.00  0.00    +0.024 C 
ATOM     14  C   UNL     1      -2.998 -10.722  15.543  0.00  0.00    -0.073 C 
ATOM     15  C   UNL     1      -2.813 -10.893  14.222  0.00  0.00    -0.022 C 
ATOM     20  C   UNL     1      -1.830 -10.641  16.487  0.00  0.00    +0.039 C 
ENDROOT
BRANCH   9  13
ATOM     13  C   UNL     1      -6.437 -10.726  12.847  0.00  0.00    -0.013 C 
ATOM     18  C   UNL     1      -6.289  -9.278  12.391  0.00  0.00    +0.007 C 
ATOM     19  C   UNL     1      -7.809 -10.958  13.472  0.00  0.00    +0.007 C 
ENDBRANCH   9  13
BRANCH  10  16
ATOM     16  C   UNL     1      -3.650 -12.134  12.239  0.00  0.00    +0.109 C 
BRANCH  16   3
ATOM      3  N   UNL     1      -3.148 -11.623  10.995  0.00  0.00    -0.342 N 
ATOM     33  H   UNL     1      -2.154 -11.666  10.800  0.00  0.00    +0.146 HD
BRANCH   3  22
ATOM      6  N   UNL     1      -5.728 -11.190   8.412  0.00  0.00    -0.219 NA
ATOM     22  C   UNL     1      -3.941 -11.013  10.030  0.00  0.00    +0.046 A 
ATOM     24  C   UNL     1      -3.770  -9.672   9.706  0.00  0.00    +0.029 A 
ATOM     25  C   UNL     1      -4.924 -11.722   9.359  0.00  0.00    +0.137 A 
ATOM     27  C   UNL     1      -4.579  -9.089   8.735  0.00  0.00    +0.069 A 
ATOM     28  C   UNL     1      -5.534  -9.883   8.124  0.00  0.00    +0.214 A 
BRANCH  28   2
ATOM      2  O   UNL     1      -6.343  -9.331   7.166  0.00  0.00    -0.480 OA
ATOM     32  C   UNL     1      -7.439  -8.550   7.626  0.00  0.00    +0.279 C 
ENDBRANCH  28   2
ENDBRANCH   3  22
ENDBRANCH  16   3
ENDBRANCH  10  16
BRANCH  12  17
ATOM     17  C   UNL     1      -4.787 -11.813  16.927  0.00  0.00    +0.105 C 
BRANCH  17  21
ATOM      1  O   UNL     1      -6.996 -11.760  17.963  0.00  0.00    -0.419 OA
ATOM      4  N   UNL     1      -5.365 -10.922  19.243  0.00  0.00    -0.112 NA
ATOM      5  N   UNL     1      -6.550 -10.829  19.948  0.00  0.00    -0.106 NA
ATOM     21  C   UNL     1      -5.673 -11.471  18.091  0.00  0.00    +0.218 A 
ATOM     23  C   UNL     1      -7.475 -11.330  19.162  0.00  0.00    +0.266 A 
BRANCH  23  26
ATOM      7  N   UNL     1      -9.440 -12.523  20.057  0.00  0.00    -0.329 N 
ATOM      8  N   UNL     1     -11.032 -10.981  19.910  0.00  0.00    -0.243 NA
ATOM     26  C   UNL     1      -8.842 -11.415  19.526  0.00  0.00    +0.125 A 
ATOM     29  C   UNL     1      -9.844 -10.477  19.445  0.00  0.00    +0.143 A 
ATOM     30  C   UNL     1     -10.755 -12.214  20.271  0.00  0.00    +0.199 A 
ATOM     31  C   UNL     1      -8.823 -13.796  20.350  0.00  0.00    +0.150 C 
ENDBRANCH  23  26
ENDBRANCH  17  21
ENDBRANCH  12  17
TORSDOF 8
ENDMDL
MODEL 6
REMARK VINA RESULT:      -6.5     15.949     19.227
REMARK  Name = 45784106
REMARK  13 active torsions:
REMARK  status: ('A' for Active; 'I' for Inactive)
REMARK    1  A    between atoms: O_2  and  C_28
REMARK    2  A    between atoms: O_2  and  C_32
REMARK    3  A    between atoms: N_3  and  C_16
REMARK    4  A    between atoms: N_3  and  C_22
REMARK    5  A    between atoms: N_7  and  C_31
REMARK    6  A    between atoms: C_9  and  C_13
REMARK    7  A    between atoms: C_10  and  C_16
REMARK    8  A    between atoms: C_12  and  C_17
REMARK    9  A    between atoms: C_13  and  C_18
REMARK   10  A    between atoms: C_13  and  C_19
REMARK   11  A    between atoms: C_14  and  C_20
REMARK   12  A    between atoms: C_17  and  C_21
REMARK   13  A    between atoms: C_23  and  C_26
REMARK                            x       y       z     vdW  Elec       q    Type
REMARK                         _______ _______ _______ _____ _____    ______ ____
ROOT
ATOM      9  C   UNL     1       9.127   8.161   5.231  0.00  0.00    +0.000 C 
ATOM     10  C   UNL     1       8.654   8.716   6.597  0.00  0.00    +0.032 C 
ATOM     11  C   UNL     1       8.686   6.699   5.065  0.00  0.00    +0.012 C 
ATOM     12  C   UNL     1       9.242   5.792   6.179  0.00  0.00    +0.024 C 
ATOM     14  C   UNL     1       9.051   6.405   7.551  0.00  0.00    -0.073 C 
ATOM     15  C   UNL     1       8.776   7.711   7.718  0.00  0.00    -0.022 C 
ATOM     20  C   UNL     1       9.138   5.473   8.728  0.00  0.00    +0.039 C 
ENDROOT
BRANCH   9  13
ATOM     13  C   UNL     1       8.598   8.998   4.062  0.00  0.00    -0.013 C 
ATOM     18  C   UNL     1       7.169   9.453   4.337  0.00  0.00    +0.007 C 
ATOM     19  C   UNL     1       8.671   8.204   2.762  0.00  0.00    +0.007 C 
ENDBRANCH   9  13
BRANCH  10  16
ATOM     16  C   UNL     1       9.419   9.992   6.970  0.00  0.00    +0.109 C 
BRANCH  16   3
ATOM      3  N   UNL     1      10.525   9.657   7.824  0.00  0.00    -0.342 N 
ATOM     33  H   UNL     1      10.360   9.464   8.806  0.00  0.00    +0.146 HD
BRANCH   3  22
ATOM      6  N   UNL     1      13.907  10.806   6.956  0.00  0.00    -0.219 NA
ATOM     22  C   UNL     1      11.848   9.620   7.401  0.00  0.00    +0.046 A 
ATOM     24  C   UNL     1      12.441   8.426   7.008  0.00  0.00    +0.029 A 
ATOM     25  C   UNL     1      12.616  10.772   7.356  0.00  0.00    +0.137 A 
ATOM     27  C   UNL     1      13.769   8.421   6.589  0.00  0.00    +0.069 A 
ATOM     28  C   UNL     1      14.451   9.626   6.582  0.00  0.00    +0.214 A 
BRANCH  28   2
ATOM      2  O   UNL     1      15.759   9.646   6.174  0.00  0.00    -0.480 OA
ATOM     32  C   UNL     1      16.119   8.742   5.136  0.00  0.00    +0.279 C 
ENDBRANCH  28   2
ENDBRANCH   3  22
ENDBRANCH  16   3
ENDBRANCH  10  16
BRANCH  12  17
ATOM     17  C   UNL     1      10.716   5.452   5.931  0.00  0.00    +0.105 C 
BRANCH  17  21
ATOM      1  O   UNL     1      10.685   4.866   3.562  0.00  0.00    -0.419 OA
ATOM      4  N   UNL     1      11.831   6.728   4.029  0.00  0.00    -0.112 NA
ATOM      5  N   UNL     1      11.897   6.517   2.664  0.00  0.00    -0.106 NA
ATOM     21  C   UNL     1      11.114   5.741   4.512  0.00  0.00    +0.218 A 
ATOM     23  C   UNL     1      11.214   5.419   2.438  0.00  0.00    +0.266 A 
BRANCH  23  26
ATOM      7  N   UNL     1      11.882   3.948   0.574  0.00  0.00    -0.329 N 
ATOM      8  N   UNL     1      10.284   4.329  -0.921  0.00  0.00    -0.243 NA
ATOM     26  C   UNL     1      11.044   4.862   1.146  0.00  0.00    +0.125 A 
ATOM     29  C   UNL     1      10.066   5.082   0.205  0.00  0.00    +0.143 A 
ATOM     30  C   UNL     1      11.386   3.658  -0.667  0.00  0.00    +0.199 A 
ATOM     31  C   UNL     1      13.078   3.376   1.149  0.00  0.00    +0.150 C 
ENDBRANCH  23  26
ENDBRANCH  17  21
ENDBRANCH  12  17
TORSDOF 8
ENDMDL
MODEL 7
REMARK VINA RESULT:      -6.5     28.038     31.468
REMARK  Name = 45784106
REMARK  13 active torsions:
REMARK  status: ('A' for Active; 'I' for Inactive)
REMARK    1  A    between atoms: O_2  and  C_28
REMARK    2  A    between atoms: O_2  and  C_32
REMARK    3  A    between atoms: N_3  and  C_16
REMARK    4  A    between atoms: N_3  and  C_22
REMARK    5  A    between atoms: N_7  and  C_31
REMARK    6  A    between atoms: C_9  and  C_13
REMARK    7  A    between atoms: C_10  and  C_16
REMARK    8  A    between atoms: C_12  and  C_17
REMARK    9  A    between atoms: C_13  and  C_18
REMARK   10  A    between atoms: C_13  and  C_19
REMARK   11  A    between atoms: C_14  and  C_20
REMARK   12  A    between atoms: C_17  and  C_21
REMARK   13  A    between atoms: C_23  and  C_26
REMARK                            x       y       z     vdW  Elec       q    Type
REMARK                         _______ _______ _______ _____ _____    ______ ____
ROOT
ATOM      9  C   UNL     1      -3.151 -12.591  13.077  0.00  0.00    +0.000 C 
ATOM     10  C   UNL     1      -1.843 -11.764  13.155  0.00  0.00    +0.032 C 
ATOM     11  C   UNL     1      -3.624 -12.709  11.620  0.00  0.00    +0.012 C 
ATOM     12  C   UNL     1      -3.877 -11.333  10.977  0.00  0.00    +0.024 C 
ATOM     14  C   UNL     1      -2.739 -10.368  11.243  0.00  0.00    -0.073 C 
ATOM     15  C   UNL     1      -1.832 -10.584  12.212  0.00  0.00    -0.022 C 
ATOM     20  C   UNL     1      -2.640  -9.171  10.340  0.00  0.00    +0.039 C 
ENDROOT
BRANCH   9  13
ATOM     13  C   UNL     1      -2.977 -13.989  13.680  0.00  0.00    -0.013 C 
ATOM     18  C   UNL     1      -2.004 -14.812  12.844  0.00  0.00    +0.007 C 
ATOM     19  C   UNL     1      -4.326 -14.692  13.789  0.00  0.00    +0.007 C 
ENDBRANCH   9  13
BRANCH  10  16
ATOM     16  C   UNL     1      -1.582 -11.277  14.585  0.00  0.00    +0.109 C 
BRANCH  16   3
ATOM      3  N   UNL     1      -2.568 -10.296  14.946  0.00  0.00    -0.342 N 
ATOM     33  H   UNL     1      -2.486  -9.350  14.592  0.00  0.00    +0.146 HD
BRANCH   3  22
ATOM      6  N   UNL     1      -4.406 -11.310  17.964  0.00  0.00    -0.219 NA
ATOM     22  C   UNL     1      -3.631 -10.545  15.806  0.00  0.00    +0.046 A 
ATOM     24  C   UNL     1      -4.941 -10.297  15.414  0.00  0.00    +0.029 A 
ATOM     25  C   UNL     1      -3.419 -11.047  17.079  0.00  0.00    +0.137 A 
ATOM     27  C   UNL     1      -5.986 -10.556  16.297  0.00  0.00    +0.069 A 
ATOM     28  C   UNL     1      -5.667 -11.056  17.549  0.00  0.00    +0.214 A 
BRANCH  28   2
ATOM      2  O   UNL     1      -6.679 -11.318  18.436  0.00  0.00    -0.480 OA
ATOM     32  C   UNL     1      -6.339 -11.300  19.817  0.00  0.00    +0.279 C 
ENDBRANCH  28   2
ENDBRANCH   3  22
ENDBRANCH  16   3
ENDBRANCH  10  16
BRANCH  12  17
ATOM     17  C   UNL     1      -5.214 -10.743  11.440  0.00  0.00    +0.105 C 
BRANCH  17  21
ATOM      1  O   UNL     1      -6.683  -9.074  10.436  0.00  0.00    -0.419 OA
ATOM      4  N   UNL     1      -6.226 -10.811   9.103  0.00  0.00    -0.112 NA
ATOM      5  N   UNL     1      -7.061  -9.952   8.413  0.00  0.00    -0.106 NA
ATOM     21  C   UNL     1      -6.032 -10.258  10.278  0.00  0.00    +0.218 A 
ATOM     23  C   UNL     1      -7.302  -8.952   9.230  0.00  0.00    +0.266 A 
BRANCH  23  26
ATOM      7  N   UNL     1      -9.448  -7.737   9.213  0.00  0.00    -0.329 N 
ATOM      8  N   UNL     1      -8.935  -5.892   8.088  0.00  0.00    -0.243 NA
ATOM     26  C   UNL     1      -8.126  -7.852   8.889  0.00  0.00    +0.125 A 
ATOM     29  C   UNL     1      -7.832  -6.701   8.195  0.00  0.00    +0.143 A 
ATOM     30  C   UNL     1      -9.891  -6.545   8.712  0.00  0.00    +0.199 A 
ATOM     31  C   UNL     1     -10.254  -8.684   9.950  0.00  0.00    +0.150 C 
ENDBRANCH  23  26
ENDBRANCH  17  21
ENDBRANCH  12  17
TORSDOF 8
ENDMDL
MODEL 8
REMARK VINA RESULT:      -6.5     14.240     18.787
REMARK  Name = 45784106
REMARK  13 active torsions:
REMARK  status: ('A' for Active; 'I' for Inactive)
REMARK    1  A    between atoms: O_2  and  C_28
REMARK    2  A    between atoms: O_2  and  C_32
REMARK    3  A    between atoms: N_3  and  C_16
REMARK    4  A    between atoms: N_3  and  C_22
REMARK    5  A    between atoms: N_7  and  C_31
REMARK    6  A    between atoms: C_9  and  C_13
REMARK    7  A    between atoms: C_10  and  C_16
REMARK    8  A    between atoms: C_12  and  C_17
REMARK    9  A    between atoms: C_13  and  C_18
REMARK   10  A    between atoms: C_13  and  C_19
REMARK   11  A    between atoms: C_14  and  C_20
REMARK   12  A    between atoms: C_17  and  C_21
REMARK   13  A    between atoms: C_23  and  C_26
REMARK                            x       y       z     vdW  Elec       q    Type
REMARK                         _______ _______ _______ _____ _____    ______ ____
ROOT
ATOM      9  C   UNL     1       9.820   6.086   6.913  0.00  0.00    +0.000 C 
ATOM     10  C   UNL     1       9.212   5.589   5.578  0.00  0.00    +0.032 C 
ATOM     11  C   UNL     1       8.885   7.106   7.580  0.00  0.00    +0.012 C 
ATOM     12  C   UNL     1       8.619   8.328   6.681  0.00  0.00    +0.024 C 
ATOM     14  C   UNL     1       8.273   7.919   5.264  0.00  0.00    -0.073 C 
ATOM     15  C   UNL     1       8.534   6.687   4.792  0.00  0.00    -0.022 C 
ATOM     20  C   UNL     1       7.578   8.945   4.413  0.00  0.00    +0.039 C 
ENDROOT
BRANCH   9  13
ATOM     13  C   UNL     1      10.097   4.929   7.878  0.00  0.00    -0.013 C 
ATOM     18  C   UNL     1       9.518   3.629   7.330  0.00  0.00    +0.007 C 
ATOM     19  C   UNL     1       9.524   5.237   9.257  0.00  0.00    +0.007 C 
ENDBRANCH   9  13
BRANCH  10  16
ATOM     16  C   UNL     1      10.277   4.919   4.702  0.00  0.00    +0.109 C 
BRANCH  16   3
ATOM      3  N   UNL     1      10.235   5.479   3.380  0.00  0.00    -0.342 N 
ATOM     33  H   UNL     1       9.723   6.339   3.216  0.00  0.00    +0.146 HD
BRANCH   3  22
ATOM      6  N   UNL     1      12.600   3.536   1.344  0.00  0.00    -0.219 NA
ATOM     22  C   UNL     1      10.822   4.888   2.267  0.00  0.00    +0.046 A 
ATOM     24  C   UNL     1      10.265   5.034   1.002  0.00  0.00    +0.029 A 
ATOM     25  C   UNL     1      11.980   4.137   2.384  0.00  0.00    +0.137 A 
ATOM     27  C   UNL     1      10.875   4.430  -0.094  0.00  0.00    +0.069 A 
ATOM     28  C   UNL     1      12.030   3.699   0.129  0.00  0.00    +0.214 A 
BRANCH  28   2
ATOM      2  O   UNL     1      12.649   3.095  -0.934  0.00  0.00    -0.480 OA
ATOM     32  C   UNL     1      13.057   3.942  -2.002  0.00  0.00    +0.279 C 
ENDBRANCH  28   2
ENDBRANCH   3  22
ENDBRANCH  16   3
ENDBRANCH  10  16
BRANCH  12  17
ATOM     17  C   UNL     1       9.807   9.296   6.698  0.00  0.00    +0.105 C 
BRANCH  17  21
ATOM      1  O   UNL     1       9.779  10.348   8.900  0.00  0.00    -0.419 OA
ATOM      4  N   UNL     1       9.076  11.675   7.243  0.00  0.00    -0.112 NA
ATOM      5  N   UNL     1       9.007  12.393   8.422  0.00  0.00    -0.106 NA
ATOM     21  C   UNL     1       9.531  10.488   7.569  0.00  0.00    +0.218 A 
ATOM     23  C   UNL     1       9.427  11.578   9.363  0.00  0.00    +0.266 A 
BRANCH  23  26
ATOM      7  N   UNL     1      10.669  12.176  11.408  0.00  0.00    -0.329 N 
ATOM      8  N   UNL     1       9.032  12.491  12.876  0.00  0.00    -0.243 NA
ATOM     26  C   UNL     1       9.507  11.944  10.729  0.00  0.00    +0.125 A 
ATOM     29  C   UNL     1       8.511  12.144  11.656  0.00  0.00    +0.143 A 
ATOM     30  C   UNL     1      10.334  12.501  12.693  0.00  0.00    +0.199 A 
ATOM     31  C   UNL     1      12.016  12.101  10.889  0.00  0.00    +0.150 C 
ENDBRANCH  23  26
ENDBRANCH  17  21
ENDBRANCH  12  17
TORSDOF 8
ENDMDL
MODEL 9
REMARK VINA RESULT:      -6.4     27.451     33.368
REMARK  Name = 45784106
REMARK  13 active torsions:
REMARK  status: ('A' for Active; 'I' for Inactive)
REMARK    1  A    between atoms: O_2  and  C_28
REMARK    2  A    between atoms: O_2  and  C_32
REMARK    3  A    between atoms: N_3  and  C_16
REMARK    4  A    between atoms: N_3  and  C_22
REMARK    5  A    between atoms: N_7  and  C_31
REMARK    6  A    between atoms: C_9  and  C_13
REMARK    7  A    between atoms: C_10  and  C_16
REMARK    8  A    between atoms: C_12  and  C_17
REMARK    9  A    between atoms: C_13  and  C_18
REMARK   10  A    between atoms: C_13  and  C_19
REMARK   11  A    between atoms: C_14  and  C_20
REMARK   12  A    between atoms: C_17  and  C_21
REMARK   13  A    between atoms: C_23  and  C_26
REMARK                            x       y       z     vdW  Elec       q    Type
REMARK                         _______ _______ _______ _____ _____    ______ ____
ROOT
ATOM      9  C   UNL     1     -10.330  -9.767  18.621  0.00  0.00    +0.000 C 
ATOM     10  C   UNL     1      -9.270 -10.557  17.813  0.00  0.00    +0.032 C 
ATOM     11  C   UNL     1     -11.635  -9.647  17.819  0.00  0.00    +0.012 C 
ATOM     12  C   UNL     1     -11.426  -8.941  16.466  0.00  0.00    +0.024 C 
ATOM     14  C   UNL     1     -10.224  -9.490  15.725  0.00  0.00    -0.073 C 
ATOM     15  C   UNL     1      -9.277 -10.221  16.340  0.00  0.00    -0.022 C 
ATOM     20  C   UNL     1     -10.156  -9.218  14.248  0.00  0.00    +0.039 C 
ENDROOT
BRANCH   9  13
ATOM     13  C   UNL     1     -10.614 -10.418  19.977  0.00  0.00    -0.013 C 
ATOM     18  C   UNL     1     -10.586 -11.938  19.855  0.00  0.00    +0.007 C 
ATOM     19  C   UNL     1     -11.956  -9.944  20.525  0.00  0.00    +0.007 C 
ENDBRANCH   9  13
BRANCH  10  16
ATOM     16  C   UNL     1      -7.864 -10.334  18.381  0.00  0.00    +0.109 C 
BRANCH  16   3
ATOM      3  N   UNL     1      -6.992 -11.384  17.931  0.00  0.00    -0.342 N 
ATOM     33  H   UNL     1      -7.215 -12.348  18.149  0.00  0.00    +0.146 HD
BRANCH   3  22
ATOM      6  N   UNL     1      -4.701 -10.571  15.173  0.00  0.00    -0.219 NA
ATOM     22  C   UNL     1      -5.807 -11.165  17.239  0.00  0.00    +0.046 A 
ATOM     24  C   UNL     1      -4.575 -11.308  17.866  0.00  0.00    +0.029 A 
ATOM     25  C   UNL     1      -5.816 -10.799  15.903  0.00  0.00    +0.137 A 
ATOM     27  C   UNL     1      -3.405 -11.083  17.147  0.00  0.00    +0.069 A 
ATOM     28  C   UNL     1      -3.522 -10.719  15.816  0.00  0.00    +0.214 A 
BRANCH  28   2
ATOM      2  O   UNL     1      -2.383 -10.491  15.088  0.00  0.00    -0.480 OA
ATOM     32  C   UNL     1      -1.153 -10.503  15.803  0.00  0.00    +0.279 C 
ENDBRANCH  28   2
ENDBRANCH   3  22
ENDBRANCH  16   3
ENDBRANCH  10  16
BRANCH  12  17
ATOM     17  C   UNL     1     -11.312  -7.423  16.647  0.00  0.00    +0.105 C 
BRANCH  17  21
ATOM      1  O   UNL     1     -11.505  -6.190  14.550  0.00  0.00    -0.419 OA
ATOM      4  N   UNL     1     -13.438  -6.438  15.647  0.00  0.00    -0.112 NA
ATOM      5  N   UNL     1     -13.692  -5.727  14.489  0.00  0.00    -0.106 NA
ATOM     21  C   UNL     1     -12.149  -6.687  15.641  0.00  0.00    +0.218 A 
ATOM     23  C   UNL     1     -12.535  -5.606  13.880  0.00  0.00    +0.266 A 
BRANCH  23  26
ATOM      7  N   UNL     1     -12.304  -5.543  11.426  0.00  0.00    -0.329 N 
ATOM      8  N   UNL     1     -12.112  -3.367  11.027  0.00  0.00    -0.243 NA
ATOM     26  C   UNL     1     -12.373  -4.932  12.645  0.00  0.00    +0.125 A 
ATOM     29  C   UNL     1     -12.252  -3.589  12.374  0.00  0.00    +0.143 A 
ATOM     30  C   UNL     1     -12.147  -4.564  10.485  0.00  0.00    +0.199 A 
ATOM     31  C   UNL     1     -12.381  -6.960  11.152  0.00  0.00    +0.150 C 
ENDBRANCH  23  26
ENDBRANCH  17  21
ENDBRANCH  12  17
TORSDOF 8
ENDMDL
MODEL 10
REMARK VINA RESULT:      -6.3     14.536     18.804
REMARK  Name = 45784106
REMARK  13 active torsions:
REMARK  status: ('A' for Active; 'I' for Inactive)
REMARK    1  A    between atoms: O_2  and  C_28
REMARK    2  A    between atoms: O_2  and  C_32
REMARK    3  A    between atoms: N_3  and  C_16
REMARK    4  A    between atoms: N_3  and  C_22
REMARK    5  A    between atoms: N_7  and  C_31
REMARK    6  A    between atoms: C_9  and  C_13
REMARK    7  A    between atoms: C_10  and  C_16
REMARK    8  A    between atoms: C_12  and  C_17
REMARK    9  A    between atoms: C_13  and  C_18
REMARK   10  A    between atoms: C_13  and  C_19
REMARK   11  A    between atoms: C_14  and  C_20
REMARK   12  A    between atoms: C_17  and  C_21
REMARK   13  A    between atoms: C_23  and  C_26
REMARK                            x       y       z     vdW  Elec       q    Type
REMARK                         _______ _______ _______ _____ _____    ______ ____
ROOT
ATOM      9  C   UNL     1      11.203   7.305   5.249  0.00  0.00    +0.000 C 
ATOM     10  C   UNL     1      10.975   5.777   5.367  0.00  0.00    +0.032 C 
ATOM     11  C   UNL     1      11.495   7.910   6.630  0.00  0.00    +0.012 C 
ATOM     12  C   UNL     1      10.349   7.663   7.629  0.00  0.00    +0.024 C 
ATOM     14  C   UNL     1       9.884   6.221   7.607  0.00  0.00    -0.073 C 
ATOM     15  C   UNL     1      10.185   5.390   6.594  0.00  0.00    -0.022 C 
ATOM     20  C   UNL     1       9.103   5.743   8.799  0.00  0.00    +0.039 C 
ENDROOT
BRANCH   9  13
ATOM     13  C   UNL     1      12.347   7.638   4.286  0.00  0.00    -0.013 C 
ATOM     18  C   UNL     1      13.679   7.655   5.027  0.00  0.00    +0.007 C 
ATOM     19  C   UNL     1      12.092   8.976   3.600  0.00  0.00    +0.007 C 
ENDBRANCH   9  13
BRANCH  10  16
ATOM     16  C   UNL     1      10.281   5.225   4.117  0.00  0.00    +0.109 C 
BRANCH  16   3
ATOM      3  N   UNL     1      11.051   4.137   3.580  0.00  0.00    -0.342 N 
ATOM     33  H   UNL     1      11.445   3.444   4.207  0.00  0.00    +0.146 HD
BRANCH   3  22
ATOM      6  N   UNL     1      10.614   4.127  -0.070  0.00  0.00    -0.219 NA
ATOM     22  C   UNL     1      11.344   3.986   2.229  0.00  0.00    +0.046 A 
ATOM     24  C   UNL     1      12.600   3.560   1.813  0.00  0.00    +0.029 A 
ATOM     25  C   UNL     1      10.394   4.253   1.258  0.00  0.00    +0.137 A 
ATOM     27  C   UNL     1      12.864   3.418   0.454  0.00  0.00    +0.069 A 
ATOM     28  C   UNL     1      11.846   3.712  -0.438  0.00  0.00    +0.214 A 
BRANCH  28   2
ATOM      2  O   UNL     1      12.082   3.579  -1.782  0.00  0.00    -0.480 OA
ATOM     32  C   UNL     1      11.632   2.377  -2.395  0.00  0.00    +0.279 C 
ENDBRANCH  28   2
ENDBRANCH   3  22
ENDBRANCH  16   3
ENDBRANCH  10  16
BRANCH  12  17
ATOM     17  C   UNL     1       9.178   8.620   7.376  0.00  0.00    +0.105 C 
BRANCH  17  21
ATOM      1  O   UNL     1       9.241  10.126   9.295  0.00  0.00    -0.419 OA
ATOM      4  N   UNL     1       9.852  11.077   7.366  0.00  0.00    -0.112 NA
ATOM      5  N   UNL     1       9.933  12.036   8.359  0.00  0.00    -0.106 NA
ATOM     21  C   UNL     1       9.445   9.979   7.958  0.00  0.00    +0.218 A 
ATOM     23  C   UNL     1       9.567  11.435   9.468  0.00  0.00    +0.266 A 
BRANCH  23  26
ATOM      7  N   UNL     1       8.496  12.894  11.144  0.00  0.00    -0.329 N 
ATOM      8  N   UNL     1       9.967  12.857  12.808  0.00  0.00    -0.243 NA
ATOM     26  C   UNL     1       9.515  12.088  10.725  0.00  0.00    +0.125 A 
ATOM     29  C   UNL     1      10.411  12.080  11.768  0.00  0.00    +0.143 A 
ATOM     30  C   UNL     1       8.811  13.332  12.400  0.00  0.00    +0.199 A 
ATOM     31  C   UNL     1       7.295  13.236  10.417  0.00  0.00    +0.150 C 
ENDBRANCH  23  26
ENDBRANCH  17  21
ENDBRANCH  12  17
TORSDOF 8
ENDMDL
