MODEL 1
REMARK VINA RESULT:      -6.6      0.000      0.000
REMARK  Name = 71693354
REMARK  8 active torsions:
REMARK  status: ('A' for Active; 'I' for Inactive)
REMARK    1  A    between atoms: O_3  and  C_15
REMARK    2  A    between atoms: N_5  and  C_13
REMARK    3  A    between atoms: N_6  and  C_20
REMARK    4  A    between atoms: C_7  and  C_12
REMARK    5  A    between atoms: C_10  and  C_15
REMARK    6  A    between atoms: C_11  and  C_14
REMARK    7  A    between atoms: C_13  and  C_18
REMARK    8  A    between atoms: C_13  and  C_19
REMARK                            x       y       z     vdW  Elec       q    Type
REMARK                         _______ _______ _______ _____ _____    ______ ____
ROOT
ATOM      1  O   UNL     1      14.133   7.656  21.590  0.00  0.00    -0.361 OA
ATOM      4  O   UNL     1      14.343  10.789  19.776  0.00  0.00    -0.273 OA
ATOM      5  N   UNL     1      14.031   8.637  18.953  0.00  0.00    -0.289 N 
ATOM     10  C   UNL     1      13.746   7.230  19.260  0.00  0.00    +0.135 C 
ATOM     11  C   UNL     1      14.503   6.775  20.522  0.00  0.00    +0.171 C 
ATOM     16  C   UNL     1      14.257   9.573  19.956  0.00  0.00    +0.242 C 
ATOM     17  C   UNL     1      14.478   9.001  21.350  0.00  0.00    +0.256 C 
ENDROOT
BRANCH  11  14
ATOM     14  C   UNL     1      16.011   6.583  20.455  0.00  0.00    -0.017 A 
ATOM     20  C   UNL     1      18.776   6.232  20.330  0.00  0.00    +0.033 A 
ATOM     21  C   UNL     1      16.803   6.895  21.559  0.00  0.00    +0.008 A 
ATOM     22  C   UNL     1      16.600   6.095  19.287  0.00  0.00    +0.008 A 
ATOM     23  C   UNL     1      18.186   6.719  21.497  0.00  0.00    +0.023 A 
ATOM     24  C   UNL     1      17.983   5.919  19.225  0.00  0.00    +0.023 A 
BRANCH  20   6
ATOM      2  O   UNL     1      20.452   3.758  20.688  0.00  0.00    -0.275 OA
ATOM      6  N   UNL     1      20.159   6.056  20.267  0.00  0.00    -0.285 N 
ATOM     12  C   UNL     1      20.885   4.875  20.443  0.00  0.00    +0.220 C 
ATOM     25  H   UNL     1      20.694   6.897  20.060  0.00  0.00    +0.155 HD
BRANCH  12   7
ATOM      7  C   UNL     1      22.365   5.050  20.306  0.00  0.00    +0.075 C 
ATOM      8  C   UNL     1      23.253   4.374  21.295  0.00  0.00    +0.013 C 
ATOM      9  C   UNL     1      23.080   5.863  21.331  0.00  0.00    +0.013 C 
ENDBRANCH  12   7
ENDBRANCH  20   6
ENDBRANCH  11  14
BRANCH   5  13
ATOM     13  C   UNL     1      13.890   9.064  17.566  0.00  0.00    +0.070 C 
ATOM     18  C   UNL     1      12.479   9.582  17.314  0.00  0.00    +0.028 C 
ATOM     19  C   UNL     1      14.237   7.924  16.618  0.00  0.00    +0.028 C 
ENDBRANCH   5  13
BRANCH  10  15
ATOM     15  C   UNL     1      12.234   7.033  19.439  0.00  0.00    +0.181 C 
BRANCH  15   3
ATOM      3  O   UNL     1      12.026   5.842  20.170  0.00  0.00    -0.393 OA
ATOM     26  H   UNL     1      11.478   5.257  19.619  0.00  0.00    +0.209 HD
ENDBRANCH  15   3
ENDBRANCH  10  15
TORSDOF 6
ENDMDL
MODEL 2
REMARK VINA RESULT:      -6.3      4.413      6.986
REMARK  Name = 71693354
REMARK  8 active torsions:
REMARK  status: ('A' for Active; 'I' for Inactive)
REMARK    1  A    between atoms: O_3  and  C_15
REMARK    2  A    between atoms: N_5  and  C_13
REMARK    3  A    between atoms: N_6  and  C_20
REMARK    4  A    between atoms: C_7  and  C_12
REMARK    5  A    between atoms: C_10  and  C_15
REMARK    6  A    between atoms: C_11  and  C_14
REMARK    7  A    between atoms: C_13  and  C_18
REMARK    8  A    between atoms: C_13  and  C_19
REMARK                            x       y       z     vdW  Elec       q    Type
REMARK                         _______ _______ _______ _____ _____    ______ ____
ROOT
ATOM      1  O   UNL     1      13.916   6.475  20.017  0.00  0.00    -0.361 OA
ATOM      4  O   UNL     1      14.787   8.912  22.557  0.00  0.00    -0.273 OA
ATOM      5  N   UNL     1      12.741   8.547  21.518  0.00  0.00    -0.289 N 
ATOM     10  C   UNL     1      11.937   7.677  20.649  0.00  0.00    +0.135 C 
ATOM     11  C   UNL     1      12.775   7.148  19.470  0.00  0.00    +0.171 C 
ATOM     16  C   UNL     1      14.096   8.322  21.724  0.00  0.00    +0.242 C 
ATOM     17  C   UNL     1      14.746   7.316  20.784  0.00  0.00    +0.256 C 
ENDROOT
BRANCH  11  14
ATOM     14  C   UNL     1      13.172   8.101  18.354  0.00  0.00    -0.017 A 
ATOM     20  C   UNL     1      13.902   9.853  16.308  0.00  0.00    +0.033 A 
ATOM     21  C   UNL     1      13.910   7.634  17.266  0.00  0.00    +0.008 A 
ATOM     22  C   UNL     1      12.799   9.445  18.419  0.00  0.00    +0.008 A 
ATOM     23  C   UNL     1      14.274   8.510  16.243  0.00  0.00    +0.023 A 
ATOM     24  C   UNL     1      13.164  10.320  17.395  0.00  0.00    +0.023 A 
BRANCH  20   6
ATOM      2  O   UNL     1      15.998  12.012  16.236  0.00  0.00    -0.275 OA
ATOM      6  N   UNL     1      14.267  10.729  15.285  0.00  0.00    -0.285 N 
ATOM     12  C   UNL     1      15.254  11.718  15.310  0.00  0.00    +0.220 C 
ATOM     25  H   UNL     1      13.747  10.622  14.417  0.00  0.00    +0.155 HD
BRANCH  12   7
ATOM      7  C   UNL     1      15.379  12.480  14.028  0.00  0.00    +0.075 C 
ATOM      8  C   UNL     1      14.254  12.415  13.053  0.00  0.00    +0.013 C 
ATOM      9  C   UNL     1      15.546  11.711  12.761  0.00  0.00    +0.013 C 
ENDBRANCH  12   7
ENDBRANCH  20   6
ENDBRANCH  11  14
BRANCH   5  13
ATOM     13  C   UNL     1      12.033   9.550  22.304  0.00  0.00    +0.070 C 
ATOM     18  C   UNL     1      10.556   9.190  22.413  0.00  0.00    +0.028 C 
ATOM     19  C   UNL     1      12.220  10.935  21.697  0.00  0.00    +0.028 C 
ENDBRANCH   5  13
BRANCH  10  15
ATOM     15  C   UNL     1      11.364   6.512  21.469  0.00  0.00    +0.181 C 
BRANCH  15   3
ATOM      3  O   UNL     1      11.228   5.395  20.614  0.00  0.00    -0.393 OA
ATOM     26  H   UNL     1      10.279   5.282  20.435  0.00  0.00    +0.209 HD
ENDBRANCH  15   3
ENDBRANCH  10  15
TORSDOF 6
ENDMDL
MODEL 3
REMARK VINA RESULT:      -5.9     29.861     32.369
REMARK  Name = 71693354
REMARK  8 active torsions:
REMARK  status: ('A' for Active; 'I' for Inactive)
REMARK    1  A    between atoms: O_3  and  C_15
REMARK    2  A    between atoms: N_5  and  C_13
REMARK    3  A    between atoms: N_6  and  C_20
REMARK    4  A    between atoms: C_7  and  C_12
REMARK    5  A    between atoms: C_10  and  C_15
REMARK    6  A    between atoms: C_11  and  C_14
REMARK    7  A    between atoms: C_13  and  C_18
REMARK    8  A    between atoms: C_13  and  C_19
REMARK                            x       y       z     vdW  Elec       q    Type
REMARK                         _______ _______ _______ _____ _____    ______ ____
ROOT
ATOM      1  O   UNL     1     -11.783 -10.505  17.781  0.00  0.00    -0.361 OA
ATOM      4  O   UNL     1      -9.765 -12.257  15.329  0.00  0.00    -0.273 OA
ATOM      5  N   UNL     1      -9.098 -10.755  16.972  0.00  0.00    -0.289 N 
ATOM     10  C   UNL     1      -9.471  -9.995  18.172  0.00  0.00    +0.135 C 
ATOM     11  C   UNL     1     -10.891  -9.414  18.039  0.00  0.00    +0.171 C 
ATOM     16  C   UNL     1     -10.036 -11.476  16.243  0.00  0.00    +0.242 C 
ATOM     17  C   UNL     1     -11.492 -11.195  16.586  0.00  0.00    +0.256 C 
ENDROOT
BRANCH  11  14
ATOM     14  C   UNL     1     -11.134  -8.258  17.080  0.00  0.00    -0.017 A 
ATOM     20  C   UNL     1     -11.579  -6.137  15.323  0.00  0.00    +0.033 A 
ATOM     21  C   UNL     1     -10.054  -7.540  16.566  0.00  0.00    +0.008 A 
ATOM     22  C   UNL     1     -12.437  -7.915  16.716  0.00  0.00    +0.008 A 
ATOM     23  C   UNL     1     -10.277  -6.480  15.687  0.00  0.00    +0.023 A 
ATOM     24  C   UNL     1     -12.659  -6.855  15.837  0.00  0.00    +0.023 A 
BRANCH  20   6
ATOM      2  O   UNL     1     -12.598  -6.124  12.491  0.00  0.00    -0.275 OA
ATOM      6  N   UNL     1     -11.803  -5.076  14.444  0.00  0.00    -0.285 N 
ATOM     12  C   UNL     1     -12.280  -5.132  13.132  0.00  0.00    +0.220 C 
ATOM     25  H   UNL     1     -11.594  -4.152  14.818  0.00  0.00    +0.155 HD
BRANCH  12   7
ATOM      7  C   UNL     1     -12.399  -3.792  12.475  0.00  0.00    +0.075 C 
ATOM      8  C   UNL     1     -13.495  -3.582  11.487  0.00  0.00    +0.013 C 
ATOM      9  C   UNL     1     -12.073  -3.685  11.024  0.00  0.00    +0.013 C 
ENDBRANCH  12   7
ENDBRANCH  20   6
ENDBRANCH  11  14
BRANCH   5  13
ATOM     13  C   UNL     1      -7.677 -10.881  16.672  0.00  0.00    +0.070 C 
ATOM     18  C   UNL     1      -7.072 -12.041  17.453  0.00  0.00    +0.028 C 
ATOM     19  C   UNL     1      -6.950  -9.576  16.971  0.00  0.00    +0.028 C 
ENDBRANCH   5  13
BRANCH  10  15
ATOM     15  C   UNL     1      -9.372 -10.897  19.411  0.00  0.00    +0.181 C 
BRANCH  15   3
ATOM      3  O   UNL     1      -9.990 -10.231  20.493  0.00  0.00    -0.393 OA
ATOM     26  H   UNL     1      -9.281  -9.887  21.062  0.00  0.00    +0.209 HD
ENDBRANCH  15   3
ENDBRANCH  10  15
TORSDOF 6
ENDMDL
MODEL 4
REMARK VINA RESULT:      -5.8     22.560     26.457
REMARK  Name = 71693354
REMARK  8 active torsions:
REMARK  status: ('A' for Active; 'I' for Inactive)
REMARK    1  A    between atoms: O_3  and  C_15
REMARK    2  A    between atoms: N_5  and  C_13
REMARK    3  A    between atoms: N_6  and  C_20
REMARK    4  A    between atoms: C_7  and  C_12
REMARK    5  A    between atoms: C_10  and  C_15
REMARK    6  A    between atoms: C_11  and  C_14
REMARK    7  A    between atoms: C_13  and  C_18
REMARK    8  A    between atoms: C_13  and  C_19
REMARK                            x       y       z     vdW  Elec       q    Type
REMARK                         _______ _______ _______ _____ _____    ______ ____
ROOT
ATOM      1  O   UNL     1      -1.039   8.960   5.518  0.00  0.00    -0.361 OA
ATOM      4  O   UNL     1      -1.146  11.548   2.980  0.00  0.00    -0.273 OA
ATOM      5  N   UNL     1      -2.109  11.530   5.096  0.00  0.00    -0.289 N 
ATOM     10  C   UNL     1      -2.202  10.864   6.401  0.00  0.00    +0.135 C 
ATOM     11  C   UNL     1      -2.219   9.332   6.241  0.00  0.00    +0.171 C 
ATOM     16  C   UNL     1      -1.395  10.973   4.041  0.00  0.00    +0.242 C 
ATOM     17  C   UNL     1      -0.974   9.521   4.227  0.00  0.00    +0.256 C 
ENDROOT
BRANCH  11  14
ATOM     14  C   UNL     1      -3.457   8.659   5.671  0.00  0.00    -0.017 A 
ATOM     20  C   UNL     1      -5.730   7.422   4.626  0.00  0.00    +0.033 A 
ATOM     21  C   UNL     1      -4.591   9.416   5.379  0.00  0.00    +0.008 A 
ATOM     22  C   UNL     1      -3.459   7.282   5.441  0.00  0.00    +0.008 A 
ATOM     23  C   UNL     1      -5.727   8.798   4.856  0.00  0.00    +0.023 A 
ATOM     24  C   UNL     1      -4.595   6.664   4.917  0.00  0.00    +0.023 A 
BRANCH  20   6
ATOM      2  O   UNL     1      -7.904   5.850   5.991  0.00  0.00    -0.275 OA
ATOM      6  N   UNL     1      -6.866   6.803   4.103  0.00  0.00    -0.285 N 
ATOM     12  C   UNL     1      -7.846   6.082   4.791  0.00  0.00    +0.220 C 
ATOM     25  H   UNL     1      -6.989   6.900   3.098  0.00  0.00    +0.155 HD
BRANCH  12   7
ATOM      7  C   UNL     1      -8.934   5.551   3.911  0.00  0.00    +0.075 C 
ATOM      8  C   UNL     1     -10.225   5.154   4.542  0.00  0.00    +0.013 C 
ATOM      9  C   UNL     1      -9.289   4.107   4.017  0.00  0.00    +0.013 C 
ENDBRANCH  12   7
ENDBRANCH  20   6
ENDBRANCH  11  14
BRANCH   5  13
ATOM     13  C   UNL     1      -2.636  12.885   4.993  0.00  0.00    +0.070 C 
ATOM     18  C   UNL     1      -1.555  13.900   5.345  0.00  0.00    +0.028 C 
ATOM     19  C   UNL     1      -3.860  13.051   5.885  0.00  0.00    +0.028 C 
ENDBRANCH   5  13
BRANCH  10  15
ATOM     15  C   UNL     1      -1.030  11.300   7.292  0.00  0.00    +0.181 C 
BRANCH  15   3
ATOM      3  O   UNL     1      -0.482  10.147   7.898  0.00  0.00    -0.393 OA
ATOM     26  H   UNL     1       0.452  10.098   7.634  0.00  0.00    +0.209 HD
ENDBRANCH  15   3
ENDBRANCH  10  15
TORSDOF 6
ENDMDL
MODEL 5
REMARK VINA RESULT:      -5.8     15.702     19.009
REMARK  Name = 71693354
REMARK  8 active torsions:
REMARK  status: ('A' for Active; 'I' for Inactive)
REMARK    1  A    between atoms: O_3  and  C_15
REMARK    2  A    between atoms: N_5  and  C_13
REMARK    3  A    between atoms: N_6  and  C_20
REMARK    4  A    between atoms: C_7  and  C_12
REMARK    5  A    between atoms: C_10  and  C_15
REMARK    6  A    between atoms: C_11  and  C_14
REMARK    7  A    between atoms: C_13  and  C_18
REMARK    8  A    between atoms: C_13  and  C_19
REMARK                            x       y       z     vdW  Elec       q    Type
REMARK                         _______ _______ _______ _____ _____    ______ ____
ROOT
ATOM      1  O   UNL     1      10.536   7.165   0.270  0.00  0.00    -0.361 OA
ATOM      4  O   UNL     1      14.130   6.680   0.290  0.00  0.00    -0.273 OA
ATOM      5  N   UNL     1      12.440   5.100   0.074  0.00  0.00    -0.289 N 
ATOM     10  C   UNL     1      11.008   4.847  -0.135  0.00  0.00    +0.135 C 
ATOM     11  C   UNL     1      10.148   5.843   0.666  0.00  0.00    +0.171 C 
ATOM     16  C   UNL     1      12.934   6.384   0.269  0.00  0.00    +0.242 C 
ATOM     17  C   UNL     1      11.888   7.456   0.542  0.00  0.00    +0.256 C 
ENDROOT
BRANCH  11  14
ATOM     14  C   UNL     1      10.077   5.713   2.180  0.00  0.00    -0.017 A 
ATOM     20  C   UNL     1       9.944   5.474   4.956  0.00  0.00    +0.033 A 
ATOM     21  C   UNL     1      10.598   4.582   2.808  0.00  0.00    +0.008 A 
ATOM     22  C   UNL     1       9.489   6.725   2.940  0.00  0.00    +0.008 A 
ATOM     23  C   UNL     1      10.533   4.463   4.196  0.00  0.00    +0.023 A 
ATOM     24  C   UNL     1       9.424   6.606   4.328  0.00  0.00    +0.023 A 
BRANCH  20   6
ATOM      2  O   UNL     1      11.657   6.696   7.109  0.00  0.00    -0.275 OA
ATOM      6  N   UNL     1       9.878   5.355   6.345  0.00  0.00    -0.285 N 
ATOM     12  C   UNL     1      10.707   5.950   7.300  0.00  0.00    +0.220 C 
ATOM     25  H   UNL     1       9.126   4.765   6.694  0.00  0.00    +0.155 HD
BRANCH  12   7
ATOM      7  C   UNL     1      10.348   5.604   8.711  0.00  0.00    +0.075 C 
ATOM      8  C   UNL     1       9.558   4.364   8.958  0.00  0.00    +0.013 C 
ATOM      9  C   UNL     1       8.919   5.710   9.125  0.00  0.00    +0.013 C 
ENDBRANCH  12   7
ENDBRANCH  20   6
ENDBRANCH  11  14
BRANCH   5  13
ATOM     13  C   UNL     1      13.354   3.980  -0.113  0.00  0.00    +0.070 C 
ATOM     18  C   UNL     1      12.731   2.937  -1.034  0.00  0.00    +0.028 C 
ATOM     19  C   UNL     1      13.735   3.372   1.231  0.00  0.00    +0.028 C 
ENDBRANCH   5  13
BRANCH  10  15
ATOM     15  C   UNL     1      10.678   4.932  -1.632  0.00  0.00    +0.181 C 
BRANCH  15   3
ATOM      3  O   UNL     1       9.278   5.065  -1.769  0.00  0.00    -0.393 OA
ATOM     26  H   UNL     1       8.886   4.195  -1.582  0.00  0.00    +0.209 HD
ENDBRANCH  15   3
ENDBRANCH  10  15
TORSDOF 6
ENDMDL
MODEL 6
REMARK VINA RESULT:      -5.6     18.546     21.712
REMARK  Name = 71693354
REMARK  8 active torsions:
REMARK  status: ('A' for Active; 'I' for Inactive)
REMARK    1  A    between atoms: O_3  and  C_15
REMARK    2  A    between atoms: N_5  and  C_13
REMARK    3  A    between atoms: N_6  and  C_20
REMARK    4  A    between atoms: C_7  and  C_12
REMARK    5  A    between atoms: C_10  and  C_15
REMARK    6  A    between atoms: C_11  and  C_14
REMARK    7  A    between atoms: C_13  and  C_18
REMARK    8  A    between atoms: C_13  and  C_19
REMARK                            x       y       z     vdW  Elec       q    Type
REMARK                         _______ _______ _______ _____ _____    ______ ____
ROOT
ATOM      1  O   UNL     1      12.711   2.668  -2.071  0.00  0.00    -0.361 OA
ATOM      4  O   UNL     1       9.477   1.440  -3.162  0.00  0.00    -0.273 OA
ATOM      5  N   UNL     1      10.253   3.629  -3.053  0.00  0.00    -0.289 N 
ATOM     10  C   UNL     1      11.404   4.520  -2.860  0.00  0.00    +0.135 C 
ATOM     11  C   UNL     1      12.319   4.005  -1.733  0.00  0.00    +0.171 C 
ATOM     16  C   UNL     1      10.353   2.255  -2.865  0.00  0.00    +0.242 C 
ATOM     17  C   UNL     1      11.624   1.777  -2.176  0.00  0.00    +0.256 C 
ENDROOT
BRANCH  11  14
ATOM     14  C   UNL     1      11.847   4.100  -0.291  0.00  0.00    -0.017 A 
ATOM     20  C   UNL     1      10.980   4.273   2.355  0.00  0.00    +0.033 A 
ATOM     21  C   UNL     1      12.632   3.575   0.736  0.00  0.00    +0.008 A 
ATOM     22  C   UNL     1      10.628   4.711   0.005  0.00  0.00    +0.008 A 
ATOM     23  C   UNL     1      12.199   3.662   2.059  0.00  0.00    +0.023 A 
ATOM     24  C   UNL     1      10.195   4.798   1.329  0.00  0.00    +0.023 A 
BRANCH  20   6
ATOM      2  O   UNL     1      11.427   6.412   4.425  0.00  0.00    -0.275 OA
ATOM      6  N   UNL     1      10.545   4.360   3.679  0.00  0.00    -0.285 N 
ATOM     12  C   UNL     1      10.787   5.384   4.598  0.00  0.00    +0.220 C 
ATOM     25  H   UNL     1       9.980   3.578   4.002  0.00  0.00    +0.155 HD
BRANCH  12   7
ATOM      7  C   UNL     1      10.166   5.151   5.940  0.00  0.00    +0.075 C 
ATOM      8  C   UNL     1       9.042   6.034   6.364  0.00  0.00    +0.013 C 
ATOM      9  C   UNL     1      10.389   6.167   7.009  0.00  0.00    +0.013 C 
ENDBRANCH  12   7
ENDBRANCH  20   6
ENDBRANCH  11  14
BRANCH   5  13
ATOM     13  C   UNL     1       9.043   4.207  -3.626  0.00  0.00    +0.070 C 
ATOM     18  C   UNL     1       9.121   4.192  -5.148  0.00  0.00    +0.028 C 
ATOM     19  C   UNL     1       8.825   5.619  -3.098  0.00  0.00    +0.028 C 
ENDBRANCH   5  13
BRANCH  10  15
ATOM     15  C   UNL     1      12.186   4.650  -4.174  0.00  0.00    +0.181 C 
BRANCH  15   3
ATOM      3  O   UNL     1      13.566   4.651  -3.869  0.00  0.00    -0.393 OA
ATOM     26  H   UNL     1      13.657   4.947  -2.947  0.00  0.00    +0.209 HD
ENDBRANCH  15   3
ENDBRANCH  10  15
TORSDOF 6
ENDMDL
MODEL 7
REMARK VINA RESULT:      -5.6     15.628     18.965
REMARK  Name = 71693354
REMARK  8 active torsions:
REMARK  status: ('A' for Active; 'I' for Inactive)
REMARK    1  A    between atoms: O_3  and  C_15
REMARK    2  A    between atoms: N_5  and  C_13
REMARK    3  A    between atoms: N_6  and  C_20
REMARK    4  A    between atoms: C_7  and  C_12
REMARK    5  A    between atoms: C_10  and  C_15
REMARK    6  A    between atoms: C_11  and  C_14
REMARK    7  A    between atoms: C_13  and  C_18
REMARK    8  A    between atoms: C_13  and  C_19
REMARK                            x       y       z     vdW  Elec       q    Type
REMARK                         _______ _______ _______ _____ _____    ______ ____
ROOT
ATOM      1  O   UNL     1      11.870   8.206   4.163  0.00  0.00    -0.361 OA
ATOM      4  O   UNL     1       8.412   8.209   5.256  0.00  0.00    -0.273 OA
ATOM      5  N   UNL     1      10.090   6.663   5.705  0.00  0.00    -0.289 N 
ATOM     10  C   UNL     1      11.522   6.344   5.636  0.00  0.00    +0.135 C 
ATOM     11  C   UNL     1      12.127   6.802   4.296  0.00  0.00    +0.171 C 
ATOM     16  C   UNL     1       9.566   7.801   5.103  0.00  0.00    +0.242 C 
ATOM     17  C   UNL     1      10.498   8.524   4.140  0.00  0.00    +0.256 C 
ENDROOT
BRANCH  11  14
ATOM     14  C   UNL     1      11.771   6.048   3.024  0.00  0.00    -0.017 A 
ATOM     20  C   UNL     1      11.121   4.664   0.690  0.00  0.00    +0.033 A 
ATOM     21  C   UNL     1      11.078   4.840   3.100  0.00  0.00    +0.008 A 
ATOM     22  C   UNL     1      12.140   6.565   1.781  0.00  0.00    +0.008 A 
ATOM     23  C   UNL     1      10.752   4.148   1.932  0.00  0.00    +0.023 A 
ATOM     24  C   UNL     1      11.814   5.873   0.614  0.00  0.00    +0.023 A 
BRANCH  20   6
ATOM      2  O   UNL     1      12.844   3.032  -1.161  0.00  0.00    -0.275 OA
ATOM      6  N   UNL     1      10.796   3.973  -0.478  0.00  0.00    -0.285 N 
ATOM     12  C   UNL     1      11.645   3.227  -1.301  0.00  0.00    +0.220 C 
ATOM     25  H   UNL     1       9.817   4.019  -0.751  0.00  0.00    +0.155 HD
BRANCH  12   7
ATOM      7  C   UNL     1      10.957   2.615  -2.481  0.00  0.00    +0.075 C 
ATOM      8  C   UNL     1      11.441   2.968  -3.845  0.00  0.00    +0.013 C 
ATOM      9  C   UNL     1      10.127   3.495  -3.352  0.00  0.00    +0.013 C 
ENDBRANCH  12   7
ENDBRANCH  20   6
ENDBRANCH  11  14
BRANCH   5  13
ATOM     13  C   UNL     1       9.260   5.845   6.580  0.00  0.00    +0.070 C 
ATOM     18  C   UNL     1       9.269   6.409   7.996  0.00  0.00    +0.028 C 
ATOM     19  C   UNL     1       9.729   4.396   6.560  0.00  0.00    +0.028 C 
ENDBRANCH   5  13
BRANCH  10  15
ATOM     15  C   UNL     1      12.257   7.000   6.813  0.00  0.00    +0.181 C 
BRANCH  15   3
ATOM      3  O   UNL     1      13.369   6.194   7.144  0.00  0.00    -0.393 OA
ATOM     26  H   UNL     1      13.740   5.858   6.311  0.00  0.00    +0.209 HD
ENDBRANCH  15   3
ENDBRANCH  10  15
TORSDOF 6
ENDMDL
MODEL 8
REMARK VINA RESULT:      -5.5     27.791     30.025
REMARK  Name = 71693354
REMARK  8 active torsions:
REMARK  status: ('A' for Active; 'I' for Inactive)
REMARK    1  A    between atoms: O_3  and  C_15
REMARK    2  A    between atoms: N_5  and  C_13
REMARK    3  A    between atoms: N_6  and  C_20
REMARK    4  A    between atoms: C_7  and  C_12
REMARK    5  A    between atoms: C_10  and  C_15
REMARK    6  A    between atoms: C_11  and  C_14
REMARK    7  A    between atoms: C_13  and  C_18
REMARK    8  A    between atoms: C_13  and  C_19
REMARK                            x       y       z     vdW  Elec       q    Type
REMARK                         _______ _______ _______ _____ _____    ______ ____
ROOT
ATOM      1  O   UNL     1      -9.996   8.831  17.543  0.00  0.00    -0.361 OA
ATOM      4  O   UNL     1     -12.177   8.141  14.728  0.00  0.00    -0.273 OA
ATOM      5  N   UNL     1     -12.298   9.859  16.290  0.00  0.00    -0.289 N 
ATOM     10  C   UNL     1     -11.636  10.575  17.388  0.00  0.00    +0.135 C 
ATOM     11  C   UNL     1     -10.915   9.596  18.332  0.00  0.00    +0.171 C 
ATOM     16  C   UNL     1     -11.761   8.698  15.746  0.00  0.00    +0.242 C 
ATOM     17  C   UNL     1     -10.623   8.068  16.538  0.00  0.00    +0.256 C 
ENDROOT
BRANCH  11  14
ATOM     14  C   UNL     1     -11.739   8.704  19.248  0.00  0.00    -0.017 A 
ATOM     20  C   UNL     1     -13.251   7.069  20.929  0.00  0.00    +0.033 A 
ATOM     21  C   UNL     1     -13.116   8.901  19.358  0.00  0.00    +0.008 A 
ATOM     22  C   UNL     1     -11.118   7.690  19.978  0.00  0.00    +0.008 A 
ATOM     23  C   UNL     1     -13.872   8.082  20.198  0.00  0.00    +0.023 A 
ATOM     24  C   UNL     1     -11.875   6.872  20.818  0.00  0.00    +0.023 A 
BRANCH  20   6
ATOM      2  O   UNL     1     -15.673   5.377  20.353  0.00  0.00    -0.275 OA
ATOM      6  N   UNL     1     -14.007   6.251  21.770  0.00  0.00    -0.285 N 
ATOM     12  C   UNL     1     -15.129   5.484  21.443  0.00  0.00    +0.220 C 
ATOM     25  H   UNL     1     -13.689   6.210  22.736  0.00  0.00    +0.155 HD
BRANCH  12   7
ATOM      7  C   UNL     1     -15.696   4.721  22.599  0.00  0.00    +0.075 C 
ATOM      8  C   UNL     1     -16.156   5.483  23.794  0.00  0.00    +0.013 C 
ATOM      9  C   UNL     1     -14.906   4.658  23.862  0.00  0.00    +0.013 C 
ENDBRANCH  12   7
ENDBRANCH  20   6
ENDBRANCH  11  14
BRANCH   5  13
ATOM     13  C   UNL     1     -13.446  10.502  15.663  0.00  0.00    +0.070 C 
ATOM     18  C   UNL     1     -12.990  11.393  14.514  0.00  0.00    +0.028 C 
ATOM     19  C   UNL     1     -14.243  11.294  16.692  0.00  0.00    +0.028 C 
ENDBRANCH   5  13
BRANCH  10  15
ATOM     15  C   UNL     1     -10.646  11.601  16.816  0.00  0.00    +0.181 C 
BRANCH  15   3
ATOM      3  O   UNL     1      -9.431  11.486  17.528  0.00  0.00    -0.393 OA
ATOM     26  H   UNL     1      -9.254  10.538  17.646  0.00  0.00    +0.209 HD
ENDBRANCH  15   3
ENDBRANCH  10  15
TORSDOF 6
ENDMDL
MODEL 9
REMARK VINA RESULT:      -5.5     26.770     30.254
REMARK  Name = 71693354
REMARK  8 active torsions:
REMARK  status: ('A' for Active; 'I' for Inactive)
REMARK    1  A    between atoms: O_3  and  C_15
REMARK    2  A    between atoms: N_5  and  C_13
REMARK    3  A    between atoms: N_6  and  C_20
REMARK    4  A    between atoms: C_7  and  C_12
REMARK    5  A    between atoms: C_10  and  C_15
REMARK    6  A    between atoms: C_11  and  C_14
REMARK    7  A    between atoms: C_13  and  C_18
REMARK    8  A    between atoms: C_13  and  C_19
REMARK                            x       y       z     vdW  Elec       q    Type
REMARK                         _______ _______ _______ _____ _____    ______ ____
ROOT
ATOM      1  O   UNL     1      -3.813 -12.235  17.464  0.00  0.00    -0.361 OA
ATOM      4  O   UNL     1      -4.909 -14.216  14.631  0.00  0.00    -0.273 OA
ATOM      5  N   UNL     1      -4.124 -12.029  14.673  0.00  0.00    -0.289 N 
ATOM     10  C   UNL     1      -3.479 -10.966  15.455  0.00  0.00    +0.135 C 
ATOM     11  C   UNL     1      -4.018 -10.935  16.897  0.00  0.00    +0.171 C 
ATOM     16  C   UNL     1      -4.512 -13.230  15.254  0.00  0.00    +0.242 C 
ATOM     17  C   UNL     1      -4.496 -13.258  16.777  0.00  0.00    +0.256 C 
ENDROOT
BRANCH  11  14
ATOM     14  C   UNL     1      -5.431 -10.433  17.150  0.00  0.00    -0.017 A 
ATOM     20  C   UNL     1      -8.023  -9.511  17.617  0.00  0.00    +0.033 A 
ATOM     21  C   UNL     1      -6.108  -9.724  16.158  0.00  0.00    +0.008 A 
ATOM     22  C   UNL     1      -6.050 -10.681  18.376  0.00  0.00    +0.008 A 
ATOM     23  C   UNL     1      -7.405  -9.264  16.391  0.00  0.00    +0.023 A 
ATOM     24  C   UNL     1      -7.347 -10.221  18.609  0.00  0.00    +0.023 A 
BRANCH  20   6
ATOM      2  O   UNL     1     -10.681 -10.622  16.744  0.00  0.00    -0.275 OA
ATOM      6  N   UNL     1      -9.320  -9.050  17.850  0.00  0.00    -0.285 N 
ATOM     12  C   UNL     1     -10.523  -9.612  17.416  0.00  0.00    +0.220 C 
ATOM     25  H   UNL     1      -9.385  -8.204  18.411  0.00  0.00    +0.155 HD
BRANCH  12   7
ATOM      7  C   UNL     1     -11.737  -8.851  17.851  0.00  0.00    +0.075 C 
ATOM      8  C   UNL     1     -13.008  -9.601  18.056  0.00  0.00    +0.013 C 
ATOM      9  C   UNL     1     -12.855  -8.685  16.878  0.00  0.00    +0.013 C 
ENDBRANCH  12   7
ENDBRANCH  20   6
ENDBRANCH  11  14
BRANCH   5  13
ATOM     13  C   UNL     1      -4.180 -11.859  13.226  0.00  0.00    +0.070 C 
ATOM     18  C   UNL     1      -2.891 -12.356  12.585  0.00  0.00    +0.028 C 
ATOM     19  C   UNL     1      -4.448 -10.403  12.869  0.00  0.00    +0.028 C 
ENDBRANCH   5  13
BRANCH  10  15
ATOM     15  C   UNL     1      -1.957 -11.171  15.453  0.00  0.00    +0.181 C 
BRANCH  15   3
ATOM      3  O   UNL     1      -1.489 -11.018  16.777  0.00  0.00    -0.393 OA
ATOM     26  H   UNL     1      -2.195 -10.583  17.284  0.00  0.00    +0.209 HD
ENDBRANCH  15   3
ENDBRANCH  10  15
TORSDOF 6
ENDMDL
MODEL 10
REMARK VINA RESULT:      -5.4     24.416     26.004
REMARK  Name = 71693354
REMARK  8 active torsions:
REMARK  status: ('A' for Active; 'I' for Inactive)
REMARK    1  A    between atoms: O_3  and  C_15
REMARK    2  A    between atoms: N_5  and  C_13
REMARK    3  A    between atoms: N_6  and  C_20
REMARK    4  A    between atoms: C_7  and  C_12
REMARK    5  A    between atoms: C_10  and  C_15
REMARK    6  A    between atoms: C_11  and  C_14
REMARK    7  A    between atoms: C_13  and  C_18
REMARK    8  A    between atoms: C_13  and  C_19
REMARK                            x       y       z     vdW  Elec       q    Type
REMARK                         _______ _______ _______ _____ _____    ______ ____
ROOT
ATOM      1  O   UNL     1      16.140  -3.942  -4.556  0.00  0.00    -0.361 OA
ATOM      4  O   UNL     1      16.809  -6.815  -6.664  0.00  0.00    -0.273 OA
ATOM      5  N   UNL     1      15.693  -6.721  -4.628  0.00  0.00    -0.289 N 
ATOM     10  C   UNL     1      15.092  -5.873  -3.590  0.00  0.00    +0.135 C 
ATOM     11  C   UNL     1      15.966  -4.635  -3.313  0.00  0.00    +0.171 C 
ATOM     16  C   UNL     1      16.418  -6.180  -5.683  0.00  0.00    +0.242 C 
ATOM     17  C   UNL     1      16.793  -4.712  -5.538  0.00  0.00    +0.256 C 
ENDROOT
BRANCH  11  14
ATOM     14  C   UNL     1      17.288  -4.807  -2.581  0.00  0.00    -0.017 A 
ATOM     20  C   UNL     1      19.713  -5.124  -1.240  0.00  0.00    +0.033 A 
ATOM     21  C   UNL     1      18.018  -3.686  -2.187  0.00  0.00    +0.008 A 
ATOM     22  C   UNL     1      17.770  -6.087  -2.305  0.00  0.00    +0.008 A 
ATOM     23  C   UNL     1      19.231  -3.845  -1.515  0.00  0.00    +0.023 A 
ATOM     24  C   UNL     1      18.983  -6.246  -1.633  0.00  0.00    +0.023 A 
BRANCH  20   6
ATOM      2  O   UNL     1      20.376  -4.889   1.687  0.00  0.00    -0.275 OA
ATOM      6  N   UNL     1      20.927  -5.284  -0.568  0.00  0.00    -0.285 N 
ATOM     12  C   UNL     1      21.174  -5.161   0.801  0.00  0.00    +0.220 C 
ATOM     25  H   UNL     1      21.720  -5.524  -1.158  0.00  0.00    +0.155 HD
BRANCH  12   7
ATOM      7  C   UNL     1      22.602  -5.400   1.181  0.00  0.00    +0.075 C 
ATOM      8  C   UNL     1      22.901  -6.460   2.184  0.00  0.00    +0.013 C 
ATOM      9  C   UNL     1      23.044  -5.014   2.552  0.00  0.00    +0.013 C 
ENDBRANCH  12   7
ENDBRANCH  20   6
ENDBRANCH  11  14
BRANCH   5  13
ATOM     13  C   UNL     1      15.351  -8.138  -4.619  0.00  0.00    +0.070 C 
ATOM     18  C   UNL     1      14.111  -8.387  -5.469  0.00  0.00    +0.028 C 
ATOM     19  C   UNL     1      15.149  -8.630  -3.192  0.00  0.00    +0.028 C 
ENDBRANCH   5  13
BRANCH  10  15
ATOM     15  C   UNL     1      13.679  -5.451  -4.017  0.00  0.00    +0.181 C 
BRANCH  15   3
ATOM      3  O   UNL     1      12.778  -5.828  -2.996  0.00  0.00    -0.393 OA
ATOM     26  H   UNL     1      13.242  -6.458  -2.419  0.00  0.00    +0.209 HD
ENDBRANCH  15   3
ENDBRANCH  10  15
TORSDOF 6
ENDMDL
