MODEL 1
REMARK VINA RESULT:      -7.1      0.000      0.000
REMARK  Name = 11911959
REMARK  2 active torsions:
REMARK  status: ('A' for Active; 'I' for Inactive)
REMARK    1  A    between atoms: C_16  and  C_19
REMARK    2  A    between atoms: C_17  and  C_20
REMARK                            x       y       z     vdW  Elec       q    Type
REMARK                         _______ _______ _______ _____ _____    ______ ____
ROOT
ATOM      3  O   UNL     1      -6.545 -13.110  15.286  0.00  0.00    -0.267 OA
ATOM      4  O   UNL     1     -11.329 -11.961  16.291  0.00  0.00    -0.269 OA
ATOM      5  N   UNL     1     -10.231 -11.822  18.328  0.00  0.00    -0.296 N 
ATOM      6  N   UNL     1      -7.281 -12.426  17.392  0.00  0.00    -0.311 N 
ATOM      7  C   UNL     1      -8.867 -13.841  18.824  0.00  0.00    +0.027 C 
ATOM      8  C   UNL     1      -8.126 -11.637  19.629  0.00  0.00    +0.054 C 
ATOM      9  C   UNL     1      -8.227 -13.115  20.000  0.00  0.00    +0.018 C 
ATOM     10  C   UNL     1      -7.939 -13.723  17.607  0.00  0.00    +0.130 C 
ATOM     11  C   UNL     1     -10.269 -13.270  18.540  0.00  0.00    +0.113 C 
ATOM     12  C   UNL     1      -9.539 -11.067  19.387  0.00  0.00    +0.117 C 
ATOM     13  C   UNL     1      -7.282 -11.441  18.385  0.00  0.00    +0.027 A 
ATOM     14  C   UNL     1      -6.579 -10.310  18.215  0.00  0.00    +0.022 A 
ATOM     15  C   UNL     1      -6.577 -12.265  16.182  0.00  0.00    +0.260 A 
ATOM     16  C   UNL     1     -10.758 -11.276  17.142  0.00  0.00    +0.253 C 
ATOM     17  C   UNL     1      -5.828 -10.973  16.012  0.00  0.00    +0.053 A 
ATOM     18  C   UNL     1      -5.840 -10.074  17.007  0.00  0.00    +0.016 A 
ENDROOT
BRANCH  17  20
ATOM      1  S   UNL     1      -5.931 -10.140  13.430  0.00  0.00    -0.088 S 
ATOM     20  C   UNL     1      -5.102 -10.704  14.812  0.00  0.00    +0.026 A 
ATOM     21  C   UNL     1      -3.751 -10.836  14.573  0.00  0.00    +0.024 A 
ATOM     23  C   UNL     1      -3.375 -10.470  13.237  0.00  0.00    -0.010 A 
ATOM     24  C   UNL     1      -4.486 -10.064  12.492  0.00  0.00    +0.020 A 
ATOM     27  C   UNL     1      -2.108 -10.464  12.606  0.00  0.00    +0.009 A 
ATOM     28  C   UNL     1      -4.364  -9.657  11.149  0.00  0.00    +0.015 A 
ATOM     29  C   UNL     1      -1.983 -10.062  11.274  0.00  0.00    +0.001 A 
ATOM     30  C   UNL     1      -3.100  -9.663  10.555  0.00  0.00    +0.001 A 
ENDBRANCH  17  20
BRANCH  16  19
ATOM      2  S   UNL     1      -9.370  -9.316  15.846  0.00  0.00    -0.092 S 
ATOM     19  C   UNL     1     -10.579  -9.847  16.930  0.00  0.00    +0.074 A 
ATOM     22  C   UNL     1     -11.269  -8.803  17.497  0.00  0.00    +0.021 A 
ATOM     25  C   UNL     1     -10.797  -7.542  17.032  0.00  0.00    +0.008 A 
ATOM     26  C   UNL     1      -9.765  -7.675  16.131  0.00  0.00    +0.046 A 
ENDBRANCH  16  19
TORSDOF 2
ENDMDL
MODEL 2
REMARK VINA RESULT:      -7.0     19.442     21.944
REMARK  Name = 11911959
REMARK  2 active torsions:
REMARK  status: ('A' for Active; 'I' for Inactive)
REMARK    1  A    between atoms: C_16  and  C_19
REMARK    2  A    between atoms: C_17  and  C_20
REMARK                            x       y       z     vdW  Elec       q    Type
REMARK                         _______ _______ _______ _____ _____    ______ ____
ROOT
ATOM      3  O   UNL     1     -13.110  10.084  20.565  0.00  0.00    -0.267 OA
ATOM      4  O   UNL     1     -14.424  11.985  16.106  0.00  0.00    -0.269 OA
ATOM      5  N   UNL     1     -12.141  11.608  15.955  0.00  0.00    -0.296 N 
ATOM      6  N   UNL     1     -11.625  10.297  18.777  0.00  0.00    -0.311 N 
ATOM      7  C   UNL     1     -10.881  12.575  17.869  0.00  0.00    +0.027 C 
ATOM      8  C   UNL     1     -10.082  10.508  16.797  0.00  0.00    +0.054 C 
ATOM      9  C   UNL     1      -9.631  11.828  17.417  0.00  0.00    +0.018 C 
ATOM     10  C   UNL     1     -11.576  11.755  18.964  0.00  0.00    +0.130 C 
ATOM     11  C   UNL     1     -11.808  12.842  16.669  0.00  0.00    +0.113 C 
ATOM     12  C   UNL     1     -10.978  10.790  15.573  0.00  0.00    +0.117 C 
ATOM     13  C   UNL     1     -10.848   9.666  17.800  0.00  0.00    +0.027 A 
ATOM     14  C   UNL     1     -10.819   8.326  17.721  0.00  0.00    +0.022 A 
ATOM     15  C   UNL     1     -12.417   9.568  19.686  0.00  0.00    +0.260 A 
ATOM     16  C   UNL     1     -13.491  11.256  15.764  0.00  0.00    +0.253 C 
ATOM     17  C   UNL     1     -12.386   8.071  19.547  0.00  0.00    +0.053 A 
ATOM     18  C   UNL     1     -11.602   7.517  18.612  0.00  0.00    +0.016 A 
ENDROOT
BRANCH  17  20
ATOM      1  S   UNL     1     -14.852   7.099  20.137  0.00  0.00    -0.088 S 
ATOM     20  C   UNL     1     -13.172   7.244  20.406  0.00  0.00    +0.026 A 
ATOM     21  C   UNL     1     -12.766   6.493  21.489  0.00  0.00    +0.024 A 
ATOM     23  C   UNL     1     -13.842   5.781  22.119  0.00  0.00    -0.010 A 
ATOM     24  C   UNL     1     -15.057   6.026  21.472  0.00  0.00    +0.020 A 
ATOM     27  C   UNL     1     -13.843   4.916  23.239  0.00  0.00    +0.009 A 
ATOM     28  C   UNL     1     -16.257   5.435  21.911  0.00  0.00    +0.015 A 
ATOM     29  C   UNL     1     -15.031   4.328  23.678  0.00  0.00    +0.001 A 
ATOM     30  C   UNL     1     -16.225   4.586  23.019  0.00  0.00    +0.001 A 
ENDBRANCH  17  20
BRANCH  16  19
ATOM      2  S   UNL     1     -13.850   9.838  13.460  0.00  0.00    -0.092 S 
ATOM     19  C   UNL     1     -13.761   9.958  15.162  0.00  0.00    +0.074 A 
ATOM     22  C   UNL     1     -13.964   8.750  15.784  0.00  0.00    +0.021 A 
ATOM     25  C   UNL     1     -14.198   7.703  14.846  0.00  0.00    +0.008 A 
ATOM     26  C   UNL     1     -14.164   8.157  13.546  0.00  0.00    +0.046 A 
ENDBRANCH  16  19
TORSDOF 2
ENDMDL
MODEL 3
REMARK VINA RESULT:      -6.9      2.944      7.967
REMARK  Name = 11911959
REMARK  2 active torsions:
REMARK  status: ('A' for Active; 'I' for Inactive)
REMARK    1  A    between atoms: C_16  and  C_19
REMARK    2  A    between atoms: C_17  and  C_20
REMARK                            x       y       z     vdW  Elec       q    Type
REMARK                         _______ _______ _______ _____ _____    ______ ____
ROOT
ATOM      3  O   UNL     1      -6.664 -10.080  14.317  0.00  0.00    -0.267 OA
ATOM      4  O   UNL     1      -4.694 -14.310  12.462  0.00  0.00    -0.269 OA
ATOM      5  N   UNL     1      -2.880 -13.069  13.199  0.00  0.00    -0.296 N 
ATOM      6  N   UNL     1      -4.390 -10.589  14.430  0.00  0.00    -0.311 N 
ATOM      7  C   UNL     1      -2.905 -10.733  12.346  0.00  0.00    +0.027 C 
ATOM      8  C   UNL     1      -1.954 -11.215  14.564  0.00  0.00    +0.054 C 
ATOM      9  C   UNL     1      -1.772 -10.377  13.301  0.00  0.00    +0.018 C 
ATOM     10  C   UNL     1      -4.239 -10.330  12.990  0.00  0.00    +0.130 C 
ATOM     11  C   UNL     1      -2.861 -12.233  11.997  0.00  0.00    +0.113 C 
ATOM     12  C   UNL     1      -1.867 -12.714  14.208  0.00  0.00    +0.117 C 
ATOM     13  C   UNL     1      -3.289 -10.929  15.224  0.00  0.00    +0.027 A 
ATOM     14  C   UNL     1      -3.426 -11.048  16.554  0.00  0.00    +0.022 A 
ATOM     15  C   UNL     1      -5.671 -10.386  14.979  0.00  0.00    +0.260 A 
ATOM     16  C   UNL     1      -3.872 -14.058  13.345  0.00  0.00    +0.253 C 
ATOM     17  C   UNL     1      -5.795 -10.561  16.468  0.00  0.00    +0.053 A 
ATOM     18  C   UNL     1      -4.702 -10.860  17.184  0.00  0.00    +0.016 A 
ENDROOT
BRANCH  17  20
ATOM      1  S   UNL     1      -7.446 -11.375  18.464  0.00  0.00    -0.088 S 
ATOM     20  C   UNL     1      -7.057 -10.400  17.117  0.00  0.00    +0.026 A 
ATOM     21  C   UNL     1      -8.080  -9.527  16.811  0.00  0.00    +0.024 A 
ATOM     23  C   UNL     1      -9.208  -9.649  17.690  0.00  0.00    -0.010 A 
ATOM     24  C   UNL     1      -8.993 -10.638  18.655  0.00  0.00    +0.020 A 
ATOM     27  C   UNL     1     -10.437  -8.948  17.713  0.00  0.00    +0.009 A 
ATOM     28  C   UNL     1      -9.964 -10.938  19.630  0.00  0.00    +0.015 A 
ATOM     29  C   UNL     1     -11.403  -9.244  18.678  0.00  0.00    +0.001 A 
ATOM     30  C   UNL     1     -11.167 -10.229  19.626  0.00  0.00    +0.001 A 
ENDBRANCH  17  20
BRANCH  16  19
ATOM      2  S   UNL     1      -2.956 -16.168  14.813  0.00  0.00    -0.092 S 
ATOM     19  C   UNL     1      -3.919 -14.770  14.613  0.00  0.00    +0.074 A 
ATOM     22  C   UNL     1      -4.657 -14.478  15.735  0.00  0.00    +0.021 A 
ATOM     25  C   UNL     1      -4.428 -15.418  16.780  0.00  0.00    +0.008 A 
ATOM     26  C   UNL     1      -3.525 -16.391  16.413  0.00  0.00    +0.046 A 
ENDBRANCH  16  19
TORSDOF 2
ENDMDL
MODEL 4
REMARK VINA RESULT:      -6.7     26.609     28.848
REMARK  Name = 11911959
REMARK  2 active torsions:
REMARK  status: ('A' for Active; 'I' for Inactive)
REMARK    1  A    between atoms: C_16  and  C_19
REMARK    2  A    between atoms: C_17  and  C_20
REMARK                            x       y       z     vdW  Elec       q    Type
REMARK                         _______ _______ _______ _____ _____    ______ ____
ROOT
ATOM      3  O   UNL     1       9.470   7.188   1.553  0.00  0.00    -0.267 OA
ATOM      4  O   UNL     1      11.512  10.419   4.811  0.00  0.00    -0.269 OA
ATOM      5  N   UNL     1      10.379   8.875   6.118  0.00  0.00    -0.296 N 
ATOM      6  N   UNL     1       9.348   6.920   3.868  0.00  0.00    -0.311 N 
ATOM      7  C   UNL     1       8.032   8.525   5.372  0.00  0.00    +0.027 C 
ATOM      8  C   UNL     1       9.289   6.660   6.372  0.00  0.00    +0.054 C 
ATOM      9  C   UNL     1       7.918   7.328   6.309  0.00  0.00    +0.018 C 
ATOM     10  C   UNL     1       8.374   8.018   3.964  0.00  0.00    +0.130 C 
ATOM     11  C   UNL     1       9.083   9.520   5.900  0.00  0.00    +0.113 C 
ATOM     12  C   UNL     1      10.324   7.654   6.939  0.00  0.00    +0.117 C 
ATOM     13  C   UNL     1       9.735   6.195   4.999  0.00  0.00    +0.027 A 
ATOM     14  C   UNL     1      10.535   5.124   4.874  0.00  0.00    +0.022 A 
ATOM     15  C   UNL     1       9.793   6.580   2.575  0.00  0.00    +0.260 A 
ATOM     16  C   UNL     1      11.529   9.389   5.487  0.00  0.00    +0.253 C 
ATOM     17  C   UNL     1      10.714   5.396   2.476  0.00  0.00    +0.053 A 
ATOM     18  C   UNL     1      11.031   4.720   3.589  0.00  0.00    +0.016 A 
ENDROOT
BRANCH  17  20
ATOM      1  S   UNL     1      12.757   5.573   0.696  0.00  0.00    -0.088 S 
ATOM     20  C   UNL     1      11.239   4.986   1.212  0.00  0.00    +0.026 A 
ATOM     21  C   UNL     1      10.681   4.135   0.281  0.00  0.00    +0.024 A 
ATOM     23  C   UNL     1      11.502   3.953  -0.881  0.00  0.00    -0.010 A 
ATOM     24  C   UNL     1      12.685   4.693  -0.786  0.00  0.00    +0.020 A 
ATOM     27  C   UNL     1      11.293   3.173  -2.044  0.00  0.00    +0.009 A 
ATOM     28  C   UNL     1      13.651   4.672  -1.810  0.00  0.00    +0.015 A 
ATOM     29  C   UNL     1      12.248   3.151  -3.062  0.00  0.00    +0.001 A 
ATOM     30  C   UNL     1      13.415   3.893  -2.945  0.00  0.00    +0.001 A 
ENDBRANCH  17  20
BRANCH  16  19
ATOM      2  S   UNL     1      13.331   7.703   4.321  0.00  0.00    -0.092 S 
ATOM     19  C   UNL     1      12.764   8.633   5.638  0.00  0.00    +0.074 A 
ATOM     22  C   UNL     1      13.588   8.548   6.733  0.00  0.00    +0.021 A 
ATOM     25  C   UNL     1      14.709   7.703   6.489  0.00  0.00    +0.008 A 
ATOM     26  C   UNL     1      14.692   7.177   5.216  0.00  0.00    +0.046 A 
ENDBRANCH  16  19
TORSDOF 2
ENDMDL
MODEL 5
REMARK VINA RESULT:      -6.6     25.947     29.792
REMARK  Name = 11911959
REMARK  2 active torsions:
REMARK  status: ('A' for Active; 'I' for Inactive)
REMARK    1  A    between atoms: C_16  and  C_19
REMARK    2  A    between atoms: C_17  and  C_20
REMARK                            x       y       z     vdW  Elec       q    Type
REMARK                         _______ _______ _______ _____ _____    ______ ____
ROOT
ATOM      3  O   UNL     1      14.011   6.549   7.073  0.00  0.00    -0.267 OA
ATOM      4  O   UNL     1      10.543   4.152   4.343  0.00  0.00    -0.269 OA
ATOM      5  N   UNL     1       9.504   6.091   5.076  0.00  0.00    -0.296 N 
ATOM      6  N   UNL     1      11.910   7.446   6.600  0.00  0.00    -0.311 N 
ATOM      7  C   UNL     1       9.742   6.439   7.527  0.00  0.00    +0.027 C 
ATOM      8  C   UNL     1       9.645   8.382   6.018  0.00  0.00    +0.054 C 
ATOM      9  C   UNL     1       9.188   7.851   7.375  0.00  0.00    +0.018 C 
ATOM     10  C   UNL     1      11.275   6.511   7.542  0.00  0.00    +0.130 C 
ATOM     11  C   UNL     1       9.216   5.533   6.398  0.00  0.00    +0.113 C 
ATOM     12  C   UNL     1       9.078   7.489   4.895  0.00  0.00    +0.117 C 
ATOM     13  C   UNL     1      11.159   8.413   5.925  0.00  0.00    +0.027 A 
ATOM     14  C   UNL     1      11.770   9.331   5.159  0.00  0.00    +0.022 A 
ATOM     15  C   UNL     1      13.312   7.379   6.489  0.00  0.00    +0.260 A 
ATOM     16  C   UNL     1      10.214   5.321   4.134  0.00  0.00    +0.253 C 
ATOM     17  C   UNL     1      13.961   8.402   5.598  0.00  0.00    +0.053 A 
ATOM     18  C   UNL     1      13.197   9.323   4.995  0.00  0.00    +0.016 A 
ENDROOT
BRANCH  17  20
ATOM      1  S   UNL     1      16.018   7.981   3.876  0.00  0.00    -0.088 S 
ATOM     20  C   UNL     1      15.376   8.403   5.401  0.00  0.00    +0.026 A 
ATOM     21  C   UNL     1      16.372   8.711   6.303  0.00  0.00    +0.024 A 
ATOM     23  C   UNL     1      17.691   8.602   5.746  0.00  0.00    -0.010 A 
ATOM     24  C   UNL     1      17.644   8.205   4.407  0.00  0.00    +0.020 A 
ATOM     27  C   UNL     1      18.959   8.829   6.332  0.00  0.00    +0.009 A 
ATOM     28  C   UNL     1      18.817   8.032   3.648  0.00  0.00    +0.015 A 
ATOM     29  C   UNL     1      20.126   8.657   5.583  0.00  0.00    +0.001 A 
ATOM     30  C   UNL     1      20.053   8.262   4.255  0.00  0.00    +0.001 A 
ENDBRANCH  17  20
BRANCH  16  19
ATOM      2  S   UNL     1      12.198   6.483   2.663  0.00  0.00    -0.092 S 
ATOM     19  C   UNL     1      10.582   5.972   2.885  0.00  0.00    +0.074 A 
ATOM     22  C   UNL     1       9.790   6.253   1.799  0.00  0.00    +0.021 A 
ATOM     25  C   UNL     1      10.522   6.902   0.762  0.00  0.00    +0.008 A 
ATOM     26  C   UNL     1      11.843   7.089   1.102  0.00  0.00    +0.046 A 
ENDBRANCH  16  19
TORSDOF 2
ENDMDL
MODEL 6
REMARK VINA RESULT:      -6.5     21.798     23.673
REMARK  Name = 11911959
REMARK  2 active torsions:
REMARK  status: ('A' for Active; 'I' for Inactive)
REMARK    1  A    between atoms: C_16  and  C_19
REMARK    2  A    between atoms: C_17  and  C_20
REMARK                            x       y       z     vdW  Elec       q    Type
REMARK                         _______ _______ _______ _____ _____    ______ ____
ROOT
ATOM      3  O   UNL     1       9.535  -9.360  32.576  0.00  0.00    -0.267 OA
ATOM      4  O   UNL     1       9.160  -7.894  37.364  0.00  0.00    -0.269 OA
ATOM      5  N   UNL     1       8.546  -6.041  36.113  0.00  0.00    -0.296 N 
ATOM      6  N   UNL     1       8.718  -7.269  33.214  0.00  0.00    -0.311 N 
ATOM      7  C   UNL     1      10.194  -5.497  34.332  0.00  0.00    +0.027 C 
ATOM      8  C   UNL     1       7.802  -5.047  33.965  0.00  0.00    +0.054 C 
ATOM      9  C   UNL     1       9.209  -4.501  33.731  0.00  0.00    +0.018 C 
ATOM     10  C   UNL     1      10.074  -6.827  33.575  0.00  0.00    +0.130 C 
ATOM     11  C   UNL     1       9.934  -5.664  35.841  0.00  0.00    +0.113 C 
ATOM     12  C   UNL     1       7.541  -5.171  35.480  0.00  0.00    +0.117 C 
ATOM     13  C   UNL     1       7.625  -6.403  33.308  0.00  0.00    +0.027 A 
ATOM     14  C   UNL     1       6.418  -6.787  32.865  0.00  0.00    +0.022 A 
ATOM     15  C   UNL     1       8.597  -8.569  32.683  0.00  0.00    +0.260 A 
ATOM     16  C   UNL     1       8.273  -7.206  36.857  0.00  0.00    +0.253 C 
ATOM     17  C   UNL     1       7.224  -8.978  32.227  0.00  0.00    +0.053 A 
ATOM     18  C   UNL     1       6.216  -8.098  32.315  0.00  0.00    +0.016 A 
ENDROOT
BRANCH  17  20
ATOM      1  S   UNL     1       6.418 -11.523  32.720  0.00  0.00    -0.088 S 
ATOM     20  C   UNL     1       6.992 -10.283  31.696  0.00  0.00    +0.026 A 
ATOM     21  C   UNL     1       7.167 -10.733  30.404  0.00  0.00    +0.024 A 
ATOM     23  C   UNL     1       6.829 -12.118  30.238  0.00  0.00    -0.010 A 
ATOM     24  C   UNL     1       6.398 -12.682  31.442  0.00  0.00    +0.020 A 
ATOM     27  C   UNL     1       6.869 -12.944  29.089  0.00  0.00    +0.009 A 
ATOM     28  C   UNL     1       6.011 -14.033  31.525  0.00  0.00    +0.015 A 
ATOM     29  C   UNL     1       6.487 -14.285  29.168  0.00  0.00    +0.001 A 
ATOM     30  C   UNL     1       6.062 -14.822  30.374  0.00  0.00    +0.001 A 
ENDBRANCH  17  20
BRANCH  16  19
ATOM      2  S   UNL     1       5.954  -6.959  38.275  0.00  0.00    -0.092 S 
ATOM     19  C   UNL     1       6.878  -7.599  36.987  0.00  0.00    +0.074 A 
ATOM     22  C   UNL     1       6.149  -8.450  36.192  0.00  0.00    +0.021 A 
ATOM     25  C   UNL     1       4.805  -8.581  36.648  0.00  0.00    +0.008 A 
ATOM     26  C   UNL     1       4.565  -7.824  37.773  0.00  0.00    +0.046 A 
ENDBRANCH  16  19
TORSDOF 2
ENDMDL
MODEL 7
REMARK VINA RESULT:      -6.5     27.913     30.076
REMARK  Name = 11911959
REMARK  2 active torsions:
REMARK  status: ('A' for Active; 'I' for Inactive)
REMARK    1  A    between atoms: C_16  and  C_19
REMARK    2  A    between atoms: C_17  and  C_20
REMARK                            x       y       z     vdW  Elec       q    Type
REMARK                         _______ _______ _______ _____ _____    ______ ____
ROOT
ATOM      3  O   UNL     1      12.210   7.831   2.390  0.00  0.00    -0.267 OA
ATOM      4  O   UNL     1      13.685   6.483  -2.218  0.00  0.00    -0.269 OA
ATOM      5  N   UNL     1      13.809   4.546  -0.951  0.00  0.00    -0.296 N 
ATOM      6  N   UNL     1      12.701   5.628   1.796  0.00  0.00    -0.311 N 
ATOM      7  C   UNL     1      15.067   4.865   1.171  0.00  0.00    +0.027 C 
ATOM      8  C   UNL     1      13.199   3.264   1.085  0.00  0.00    +0.054 C 
ATOM      9  C   UNL     1      14.599   3.495   1.649  0.00  0.00    +0.018 C 
ATOM     10  C   UNL     1      14.139   5.936   1.760  0.00  0.00    +0.130 C 
ATOM     11  C   UNL     1      15.101   4.913  -0.369  0.00  0.00    +0.113 C 
ATOM     12  C   UNL     1      13.254   3.274  -0.457  0.00  0.00    +0.117 C 
ATOM     13  C   UNL     1      12.233   4.331   1.563  0.00  0.00    +0.027 A 
ATOM     14  C   UNL     1      10.930   4.045   1.714  0.00  0.00    +0.022 A 
ATOM     15  C   UNL     1      11.837   6.677   2.169  0.00  0.00    +0.260 A 
ATOM     16  C   UNL     1      13.168   5.431  -1.839  0.00  0.00    +0.253 C 
ATOM     17  C   UNL     1      10.381   6.329   2.296  0.00  0.00    +0.053 A 
ATOM     18  C   UNL     1       9.989   5.064   2.087  0.00  0.00    +0.016 A 
ENDROOT
BRANCH  17  20
ATOM      1  S   UNL     1       9.060   7.618   4.289  0.00  0.00    -0.088 S 
ATOM     20  C   UNL     1       9.421   7.328   2.645  0.00  0.00    +0.026 A 
ATOM     21  C   UNL     1       8.691   8.151   1.813  0.00  0.00    +0.024 A 
ATOM     23  C   UNL     1       7.817   9.039   2.524  0.00  0.00    -0.010 A 
ATOM     24  C   UNL     1       7.918   8.852   3.905  0.00  0.00    +0.020 A 
ATOM     27  C   UNL     1       6.917  10.023   2.046  0.00  0.00    +0.009 A 
ATOM     28  C   UNL     1       7.153   9.614   4.810  0.00  0.00    +0.015 A 
ATOM     29  C   UNL     1       6.156  10.780   2.941  0.00  0.00    +0.001 A 
ATOM     30  C   UNL     1       6.275  10.575   4.308  0.00  0.00    +0.001 A 
ENDBRANCH  17  20
BRANCH  16  19
ATOM      2  S   UNL     1      11.656   4.120  -3.695  0.00  0.00    -0.092 S 
ATOM     19  C   UNL     1      11.830   5.071  -2.286  0.00  0.00    +0.074 A 
ATOM     22  C   UNL     1      10.621   5.395  -1.720  0.00  0.00    +0.021 A 
ATOM     25  C   UNL     1       9.529   4.852  -2.456  0.00  0.00    +0.008 A 
ATOM     26  C   UNL     1       9.950   4.136  -3.555  0.00  0.00    +0.046 A 
ENDBRANCH  16  19
TORSDOF 2
ENDMDL
MODEL 8
REMARK VINA RESULT:      -6.5      2.124      3.213
REMARK  Name = 11911959
REMARK  2 active torsions:
REMARK  status: ('A' for Active; 'I' for Inactive)
REMARK    1  A    between atoms: C_16  and  C_19
REMARK    2  A    between atoms: C_17  and  C_20
REMARK                            x       y       z     vdW  Elec       q    Type
REMARK                         _______ _______ _______ _____ _____    ______ ____
ROOT
ATOM      3  O   UNL     1      -7.069 -12.073  18.463  0.00  0.00    -0.267 OA
ATOM      4  O   UNL     1     -11.472 -13.849  16.824  0.00  0.00    -0.269 OA
ATOM      5  N   UNL     1     -11.976 -11.834  17.854  0.00  0.00    -0.296 N 
ATOM      6  N   UNL     1      -9.071 -10.887  18.634  0.00  0.00    -0.311 N 
ATOM      7  C   UNL     1     -11.002 -11.653  20.135  0.00  0.00    +0.027 C 
ATOM      8  C   UNL     1     -11.254  -9.635  18.748  0.00  0.00    +0.054 C 
ATOM      9  C   UNL     1     -11.374 -10.175  20.171  0.00  0.00    +0.018 C 
ATOM     10  C   UNL     1      -9.535 -11.781  19.705  0.00  0.00    +0.130 C 
ATOM     11  C   UNL     1     -11.950 -12.421  19.195  0.00  0.00    +0.113 C 
ATOM     12  C   UNL     1     -12.237 -10.385  17.825  0.00  0.00    +0.117 C 
ATOM     13  C   UNL     1      -9.841  -9.795  18.219  0.00  0.00    +0.027 A 
ATOM     14  C   UNL     1      -9.351  -8.925  17.322  0.00  0.00    +0.022 A 
ATOM     15  C   UNL     1      -7.782 -11.129  18.119  0.00  0.00    +0.260 A 
ATOM     16  C   UNL     1     -11.680 -12.637  16.736  0.00  0.00    +0.253 C 
ATOM     17  C   UNL     1      -7.279 -10.152  17.093  0.00  0.00    +0.053 A 
ATOM     18  C   UNL     1      -8.047  -9.108  16.751  0.00  0.00    +0.016 A 
ENDROOT
BRANCH  17  20
ATOM      1  S   UNL     1      -5.868 -10.511  14.801  0.00  0.00    -0.088 S 
ATOM     20  C   UNL     1      -5.994 -10.324  16.494  0.00  0.00    +0.026 A 
ATOM     21  C   UNL     1      -4.757 -10.365  17.102  0.00  0.00    +0.024 A 
ATOM     23  C   UNL     1      -3.678 -10.553  16.174  0.00  0.00    -0.010 A 
ATOM     24  C   UNL     1      -4.150 -10.650  14.862  0.00  0.00    +0.020 A 
ATOM     27  C   UNL     1      -2.282 -10.648  16.392  0.00  0.00    +0.009 A 
ATOM     28  C   UNL     1      -3.273 -10.837  13.776  0.00  0.00    +0.015 A 
ATOM     29  C   UNL     1      -1.409 -10.834  15.317  0.00  0.00    +0.001 A 
ATOM     30  C   UNL     1      -1.902 -10.928  14.023  0.00  0.00    +0.001 A 
ENDBRANCH  17  20
BRANCH  16  19
ATOM      2  S   UNL     1     -13.002 -11.859  14.479  0.00  0.00    -0.092 S 
ATOM     19  C   UNL     1     -11.597 -11.973  15.443  0.00  0.00    +0.074 A 
ATOM     22  C   UNL     1     -10.504 -11.391  14.848  0.00  0.00    +0.021 A 
ATOM     25  C   UNL     1     -10.825 -10.840  13.573  0.00  0.00    +0.008 A 
ATOM     26  C   UNL     1     -12.151 -11.026  13.249  0.00  0.00    +0.046 A 
ENDBRANCH  16  19
TORSDOF 2
ENDMDL
MODEL 9
REMARK VINA RESULT:      -6.3      3.946      6.847
REMARK  Name = 11911959
REMARK  2 active torsions:
REMARK  status: ('A' for Active; 'I' for Inactive)
REMARK    1  A    between atoms: C_16  and  C_19
REMARK    2  A    between atoms: C_17  and  C_20
REMARK                            x       y       z     vdW  Elec       q    Type
REMARK                         _______ _______ _______ _____ _____    ______ ____
ROOT
ATOM      3  O   UNL     1      -4.588 -13.138   9.847  0.00  0.00    -0.267 OA
ATOM      4  O   UNL     1      -5.818 -14.201  14.599  0.00  0.00    -0.269 OA
ATOM      5  N   UNL     1      -3.579 -13.603  14.671  0.00  0.00    -0.296 N 
ATOM      6  N   UNL     1      -3.125 -12.852  11.642  0.00  0.00    -0.311 N 
ATOM      7  C   UNL     1      -2.205 -14.824  12.996  0.00  0.00    +0.027 C 
ATOM      8  C   UNL     1      -1.607 -12.521  13.624  0.00  0.00    +0.054 C 
ATOM      9  C   UNL     1      -1.032 -13.895  13.287  0.00  0.00    +0.018 C 
ATOM     10  C   UNL     1      -2.947 -14.308  11.756  0.00  0.00    +0.130 C 
ATOM     11  C   UNL     1      -3.128 -14.922  14.225  0.00  0.00    +0.113 C 
ATOM     12  C   UNL     1      -2.497 -12.625  14.879  0.00  0.00    +0.117 C 
ATOM     13  C   UNL     1      -2.422 -11.971  12.469  0.00  0.00    +0.027 A 
ATOM     14  C   UNL     1      -2.509 -10.645  12.273  0.00  0.00    +0.022 A 
ATOM     15  C   UNL     1      -3.958 -12.396  10.602  0.00  0.00    +0.260 A 
ATOM     16  C   UNL     1      -4.957 -13.338  14.785  0.00  0.00    +0.253 C 
ATOM     17  C   UNL     1      -4.058 -10.905  10.432  0.00  0.00    +0.053 A 
ATOM     18  C   UNL     1      -3.342 -10.106  11.235  0.00  0.00    +0.016 A 
ENDROOT
BRANCH  17  20
ATOM      1  S   UNL     1      -6.191  -9.322   9.867  0.00  0.00    -0.088 S 
ATOM     20  C   UNL     1      -4.896 -10.342   9.421  0.00  0.00    +0.026 A 
ATOM     21  C   UNL     1      -4.823 -10.500   8.054  0.00  0.00    +0.024 A 
ATOM     23  C   UNL     1      -5.840  -9.776   7.346  0.00  0.00    -0.010 A 
ATOM     24  C   UNL     1      -6.671  -9.078   8.229  0.00  0.00    +0.020 A 
ATOM     27  C   UNL     1      -6.105  -9.677   5.959  0.00  0.00    +0.009 A 
ATOM     28  C   UNL     1      -7.744  -8.294   7.765  0.00  0.00    +0.015 A 
ATOM     29  C   UNL     1      -7.169  -8.900   5.496  0.00  0.00    +0.001 A 
ATOM     30  C   UNL     1      -7.980  -8.217   6.391  0.00  0.00    +0.001 A 
ENDBRANCH  17  20
BRANCH  16  19
ATOM      2  S   UNL     1      -5.491 -11.522  16.751  0.00  0.00    -0.092 S 
ATOM     19  C   UNL     1      -5.348 -11.974  15.109  0.00  0.00    +0.074 A 
ATOM     22  C   UNL     1      -5.634 -10.938  14.253  0.00  0.00    +0.021 A 
ATOM     25  C   UNL     1      -5.978  -9.748  14.958  0.00  0.00    +0.008 A 
ATOM     26  C   UNL     1      -5.940  -9.926  16.323  0.00  0.00    +0.046 A 
ENDBRANCH  16  19
TORSDOF 2
ENDMDL
MODEL 10
REMARK VINA RESULT:      -6.3     26.709     28.644
REMARK  Name = 11911959
REMARK  2 active torsions:
REMARK  status: ('A' for Active; 'I' for Inactive)
REMARK    1  A    between atoms: C_16  and  C_19
REMARK    2  A    between atoms: C_17  and  C_20
REMARK                            x       y       z     vdW  Elec       q    Type
REMARK                         _______ _______ _______ _____ _____    ______ ____
ROOT
ATOM      3  O   UNL     1      10.168   4.313   3.440  0.00  0.00    -0.267 OA
ATOM      4  O   UNL     1       7.865   8.427   5.171  0.00  0.00    -0.269 OA
ATOM      5  N   UNL     1       9.958   8.440   6.167  0.00  0.00    -0.296 N 
ATOM      6  N   UNL     1      11.215   5.886   4.809  0.00  0.00    -0.311 N 
ATOM      7  C   UNL     1      10.521   6.271   7.246  0.00  0.00    +0.027 C 
ATOM      8  C   UNL     1      12.306   7.641   6.249  0.00  0.00    +0.054 C 
ATOM      9  C   UNL     1      11.958   6.742   7.434  0.00  0.00    +0.018 C 
ATOM     10  C   UNL     1      10.443   5.420   5.971  0.00  0.00    +0.130 C 
ATOM     11  C   UNL     1       9.564   7.477   7.197  0.00  0.00    +0.113 C 
ATOM     12  C   UNL     1      11.367   8.865   6.235  0.00  0.00    +0.117 C 
ATOM     13  C   UNL     1      12.180   6.890   4.937  0.00  0.00    +0.027 A 
ATOM     14  C   UNL     1      12.954   7.221   3.891  0.00  0.00    +0.022 A 
ATOM     15  C   UNL     1      11.001   5.208   3.593  0.00  0.00    +0.260 A 
ATOM     16  C   UNL     1       9.034   8.816   5.173  0.00  0.00    +0.253 C 
ATOM     17  C   UNL     1      11.863   5.626   2.435  0.00  0.00    +0.053 A 
ATOM     18  C   UNL     1      12.791   6.576   2.619  0.00  0.00    +0.016 A 
ENDROOT
BRANCH  17  20
ATOM      1  S   UNL     1      10.528   5.611   0.070  0.00  0.00    -0.088 S 
ATOM     20  C   UNL     1      11.707   5.016   1.153  0.00  0.00    +0.026 A 
ATOM     21  C   UNL     1      12.401   3.954   0.613  0.00  0.00    +0.024 A 
ATOM     23  C   UNL     1      11.968   3.611  -0.712  0.00  0.00    -0.010 A 
ATOM     24  C   UNL     1      10.933   4.450  -1.139  0.00  0.00    +0.020 A 
ATOM     27  C   UNL     1      12.417   2.601  -1.596  0.00  0.00    +0.009 A 
ATOM     28  C   UNL     1      10.345   4.305  -2.410  0.00  0.00    +0.015 A 
ATOM     29  C   UNL     1      11.836   2.454  -2.857  0.00  0.00    +0.001 A 
ATOM     30  C   UNL     1      10.810   3.298  -3.258  0.00  0.00    +0.001 A 
ENDBRANCH  17  20
BRANCH  16  19
ATOM      2  S   UNL     1       9.395  11.371   4.285  0.00  0.00    -0.092 S 
ATOM     19  C   UNL     1       9.520   9.676   4.105  0.00  0.00    +0.074 A 
ATOM     22  C   UNL     1      10.096   9.318   2.910  0.00  0.00    +0.021 A 
ATOM     25  C   UNL     1      10.442  10.456   2.126  0.00  0.00    +0.008 A 
ATOM     26  C   UNL     1      10.115  11.637   2.755  0.00  0.00    +0.046 A 
ENDBRANCH  16  19
TORSDOF 2
ENDMDL
