MODEL 1
REMARK VINA RESULT:      -7.0      0.000      0.000
REMARK  Name = 7682180
REMARK  6 active torsions:
REMARK  status: ('A' for Active; 'I' for Inactive)
REMARK    1  A    between atoms: N_9  and  C_16
REMARK    2  A    between atoms: N_11  and  C_26
REMARK    3  A    between atoms: C_12  and  C_17
REMARK    4  A    between atoms: C_21  and  C_24
REMARK    5  A    between atoms: C_33  and  C_34
REMARK    6  A    between atoms: C_34  and  C_35
REMARK                            x       y       z     vdW  Elec       q    Type
REMARK                         _______ _______ _______ _____ _____    ______ ____
ROOT
ATOM      3  O   UNL     1      24.810   7.387  23.456  0.00  0.00    -0.269 OA
ATOM      5  O   UNL     1      18.638   9.162  20.831  0.00  0.00    -0.252 OA
ATOM      7  N   UNL     1      22.496   7.366  23.554  0.00  0.00    -0.283 N 
ATOM      8  N   UNL     1      19.906   7.946  22.336  0.00  0.00    -0.282 N 
ATOM     11  N   UNL     1      17.737   7.227  21.762  0.00  0.00    -0.269 N 
ATOM     12  C   UNL     1      22.384   8.198  22.355  0.00  0.00    +0.179 C 
ATOM     13  C   UNL     1      21.026   8.888  22.235  0.00  0.00    +0.141 C 
ATOM     14  C   UNL     1      21.240   6.996  24.223  0.00  0.00    +0.128 C 
ATOM     15  C   UNL     1      20.084   6.808  23.247  0.00  0.00    +0.128 C 
ATOM     21  C   UNL     1      23.782   7.059  24.049  0.00  0.00    +0.254 C 
ATOM     23  C   UNL     1      18.734   8.188  21.582  0.00  0.00    +0.307 C 
ATOM     38  H   UNL     1      17.926   6.436  22.367  0.00  0.00    +0.156 HD
ENDROOT
BRANCH  11  26
ATOM     26  C   UNL     1      16.456   7.183  21.156  0.00  0.00    +0.035 A 
ATOM     29  C   UNL     1      16.332   6.830  19.812  0.00  0.00    +0.024 A 
ATOM     30  C   UNL     1      15.320   7.493  21.904  0.00  0.00    +0.024 A 
ATOM     31  C   UNL     1      15.073   6.788  19.215  0.00  0.00    +0.013 A 
ATOM     32  C   UNL     1      14.060   7.451  21.307  0.00  0.00    +0.013 A 
ATOM     33  C   UNL     1      13.936   7.098  19.963  0.00  0.00    +0.017 A 
BRANCH  33  34
ATOM      6  O   UNL     1      11.647   6.530  19.916  0.00  0.00    -0.292 OA
ATOM     34  C   UNL     1      12.623   7.052  19.341  0.00  0.00    +0.160 C 
ATOM     35  C   UNL     1      12.407   7.651  17.954  0.00  0.00    +0.091 C 
ENDBRANCH  33  34
ENDBRANCH  11  26
BRANCH  21  24
ATOM      1  S   UNL     1      23.876   4.603  25.257  0.00  0.00    -0.092 S 
ATOM     24  C   UNL     1      23.861   6.315  25.304  0.00  0.00    +0.074 A 
ATOM     25  C   UNL     1      23.929   6.799  26.592  0.00  0.00    +0.021 A 
ATOM     27  C   UNL     1      23.995   5.750  27.554  0.00  0.00    +0.008 A 
ATOM     28  C   UNL     1      23.975   4.505  26.964  0.00  0.00    +0.046 A 
ENDBRANCH  21  24
BRANCH  12  17
ATOM      2  O   UNL     1      22.393   7.694  20.018  0.00  0.00    -0.274 OA
ATOM      9  N   UNL     1      23.119   6.073  21.523  0.00  0.00    -0.302 N 
ATOM     17  C   UNL     1      22.631   7.317  21.164  0.00  0.00    +0.236 C 
ATOM     36  H   UNL     1      23.308   5.882  22.503  0.00  0.00    +0.150 HD
BRANCH   9  16
ATOM      4  O   UNL     1      21.520   3.857  21.485  0.00  0.00    -0.274 OA
ATOM     10  N   UNL     1      23.209   2.579  20.628  0.00  0.00    -0.314 N 
ATOM     16  C   UNL     1      23.416   5.037  20.569  0.00  0.00    +0.159 C 
ATOM     18  C   UNL     1      24.919   4.828  20.445  0.00  0.00    +0.033 C 
ATOM     19  C   UNL     1      25.195   3.616  19.568  0.00  0.00    +0.021 C 
ATOM     20  C   UNL     1      24.587   2.387  20.217  0.00  0.00    +0.104 C 
ATOM     22  C   UNL     1      22.640   3.788  20.974  0.00  0.00    +0.233 C 
ATOM     37  H   UNL     1      22.674   1.744  20.841  0.00  0.00    +0.149 HD
ENDBRANCH   9  16
ENDBRANCH  12  17
TORSDOF 5
ENDMDL
MODEL 2
REMARK VINA RESULT:      -6.6      2.426      4.838
REMARK  Name = 7682180
REMARK  6 active torsions:
REMARK  status: ('A' for Active; 'I' for Inactive)
REMARK    1  A    between atoms: N_9  and  C_16
REMARK    2  A    between atoms: N_11  and  C_26
REMARK    3  A    between atoms: C_12  and  C_17
REMARK    4  A    between atoms: C_21  and  C_24
REMARK    5  A    between atoms: C_33  and  C_34
REMARK    6  A    between atoms: C_34  and  C_35
REMARK                            x       y       z     vdW  Elec       q    Type
REMARK                         _______ _______ _______ _____ _____    ______ ____
ROOT
ATOM      3  O   UNL     1      24.395   6.576  21.912  0.00  0.00    -0.269 OA
ATOM      5  O   UNL     1      17.655   8.227  21.901  0.00  0.00    -0.252 OA
ATOM      7  N   UNL     1      22.174   5.986  21.611  0.00  0.00    -0.283 N 
ATOM      8  N   UNL     1      19.360   6.741  21.415  0.00  0.00    -0.282 N 
ATOM     11  N   UNL     1      17.308   6.606  20.265  0.00  0.00    -0.269 N 
ATOM     12  C   UNL     1      21.712   7.322  21.991  0.00  0.00    +0.179 C 
ATOM     13  C   UNL     1      20.245   7.345  22.416  0.00  0.00    +0.141 C 
ATOM     14  C   UNL     1      21.138   4.987  21.311  0.00  0.00    +0.128 C 
ATOM     15  C   UNL     1      19.900   5.599  20.665  0.00  0.00    +0.128 C 
ATOM     21  C   UNL     1      23.558   5.709  21.656  0.00  0.00    +0.254 C 
ATOM     23  C   UNL     1      18.058   7.264  21.242  0.00  0.00    +0.307 C 
ATOM     38  H   UNL     1      17.742   5.853  19.744  0.00  0.00    +0.156 HD
ENDROOT
BRANCH  11  26
ATOM     26  C   UNL     1      15.980   6.887  19.856  0.00  0.00    +0.035 A 
ATOM     29  C   UNL     1      15.732   7.368  18.571  0.00  0.00    +0.024 A 
ATOM     30  C   UNL     1      14.921   6.682  20.741  0.00  0.00    +0.024 A 
ATOM     31  C   UNL     1      14.426   7.645  18.169  0.00  0.00    +0.013 A 
ATOM     32  C   UNL     1      13.614   6.959  20.339  0.00  0.00    +0.013 A 
ATOM     33  C   UNL     1      13.366   7.440  19.053  0.00  0.00    +0.017 A 
BRANCH  33  34
ATOM      6  O   UNL     1      11.564   7.332  17.536  0.00  0.00    -0.292 OA
ATOM     34  C   UNL     1      12.004   7.727  18.634  0.00  0.00    +0.160 C 
ATOM     35  C   UNL     1      11.074   8.529  19.539  0.00  0.00    +0.091 C 
ENDBRANCH  33  34
ENDBRANCH  11  26
BRANCH  21  24
ATOM      1  S   UNL     1      24.059   3.210  22.657  0.00  0.00    -0.092 S 
ATOM     24  C   UNL     1      23.980   4.340  21.373  0.00  0.00    +0.074 A 
ATOM     25  C   UNL     1      24.344   3.780  20.167  0.00  0.00    +0.021 A 
ATOM     27  C   UNL     1      24.693   2.405  20.300  0.00  0.00    +0.008 A 
ATOM     28  C   UNL     1      24.582   1.967  21.602  0.00  0.00    +0.046 A 
ENDBRANCH  21  24
BRANCH  12  17
ATOM      2  O   UNL     1      22.316   7.805  19.729  0.00  0.00    -0.274 OA
ATOM      9  N   UNL     1      21.672   9.556  21.122  0.00  0.00    -0.302 N 
ATOM     17  C   UNL     1      21.931   8.232  20.816  0.00  0.00    +0.236 C 
ATOM     36  H   UNL     1      21.327   9.790  22.049  0.00  0.00    +0.150 HD
BRANCH   9  16
ATOM      4  O   UNL     1      24.051  10.902  21.076  0.00  0.00    -0.274 OA
ATOM     10  N   UNL     1      23.045  12.775  20.242  0.00  0.00    -0.314 N 
ATOM     16  C   UNL     1      21.829  10.629  20.175  0.00  0.00    +0.159 C 
ATOM     18  C   UNL     1      20.549  11.449  20.068  0.00  0.00    +0.033 C 
ATOM     19  C   UNL     1      20.798  12.672  19.199  0.00  0.00    +0.021 C 
ATOM     20  C   UNL     1      21.870  13.529  19.846  0.00  0.00    +0.104 C 
ATOM     22  C   UNL     1      23.059  11.436  20.577  0.00  0.00    +0.233 C 
ATOM     37  H   UNL     1      23.881  13.309  20.453  0.00  0.00    +0.149 HD
ENDBRANCH   9  16
ENDBRANCH  12  17
TORSDOF 5
ENDMDL
MODEL 3
REMARK VINA RESULT:      -6.5     31.333     34.276
REMARK  Name = 7682180
REMARK  6 active torsions:
REMARK  status: ('A' for Active; 'I' for Inactive)
REMARK    1  A    between atoms: N_9  and  C_16
REMARK    2  A    between atoms: N_11  and  C_26
REMARK    3  A    between atoms: C_12  and  C_17
REMARK    4  A    between atoms: C_21  and  C_24
REMARK    5  A    between atoms: C_33  and  C_34
REMARK    6  A    between atoms: C_34  and  C_35
REMARK                            x       y       z     vdW  Elec       q    Type
REMARK                         _______ _______ _______ _____ _____    ______ ____
ROOT
ATOM      3  O   UNL     1      -5.598  -9.887   6.547  0.00  0.00    -0.269 OA
ATOM      5  O   UNL     1      -3.094 -10.341  13.002  0.00  0.00    -0.252 OA
ATOM      7  N   UNL     1      -5.391 -11.025   8.554  0.00  0.00    -0.283 N 
ATOM      8  N   UNL     1      -4.499 -11.112  11.333  0.00  0.00    -0.282 N 
ATOM     11  N   UNL     1      -4.970 -11.589  13.593  0.00  0.00    -0.269 N 
ATOM     12  C   UNL     1      -4.498 -10.004   9.103  0.00  0.00    +0.179 C 
ATOM     13  C   UNL     1      -3.671 -10.510  10.284  0.00  0.00    +0.141 C 
ATOM     14  C   UNL     1      -5.663 -12.194   9.404  0.00  0.00    +0.128 C 
ATOM     15  C   UNL     1      -5.690 -11.849  10.890  0.00  0.00    +0.128 C 
ATOM     21  C   UNL     1      -5.848 -10.884   7.226  0.00  0.00    +0.254 C 
ATOM     23  C   UNL     1      -4.106 -10.972  12.685  0.00  0.00    +0.307 C 
ATOM     38  H   UNL     1      -5.802 -12.046  13.239  0.00  0.00    +0.156 HD
ENDROOT
BRANCH  11  26
ATOM     26  C   UNL     1      -4.857 -11.631  15.005  0.00  0.00    +0.035 A 
ATOM     29  C   UNL     1      -4.906 -12.854  15.673  0.00  0.00    +0.024 A 
ATOM     30  C   UNL     1      -4.698 -10.447  15.726  0.00  0.00    +0.024 A 
ATOM     31  C   UNL     1      -4.796 -12.895  17.062  0.00  0.00    +0.013 A 
ATOM     32  C   UNL     1      -4.588 -10.488  17.116  0.00  0.00    +0.013 A 
ATOM     33  C   UNL     1      -4.637 -11.712  17.785  0.00  0.00    +0.017 A 
BRANCH  33  34
ATOM      6  O   UNL     1      -3.468 -12.124  19.792  0.00  0.00    -0.292 OA
ATOM     34  C   UNL     1      -4.521 -11.755  19.233  0.00  0.00    +0.160 C 
ATOM     35  C   UNL     1      -5.699 -11.344  20.112  0.00  0.00    +0.091 C 
ENDBRANCH  33  34
ENDBRANCH  11  26
BRANCH  21  24
ATOM      1  S   UNL     1      -8.354 -11.924   6.856  0.00  0.00    -0.092 S 
ATOM     24  C   UNL     1      -6.652 -11.970   6.671  0.00  0.00    +0.074 A 
ATOM     25  C   UNL     1      -6.236 -13.089   5.984  0.00  0.00    +0.021 A 
ATOM     27  C   UNL     1      -7.330 -13.920   5.603  0.00  0.00    +0.008 A 
ATOM     28  C   UNL     1      -8.539 -13.404   6.015  0.00  0.00    +0.046 A 
ENDBRANCH  21  24
BRANCH  12  17
ATOM      2  O   UNL     1      -4.917  -7.960  10.271  0.00  0.00    -0.274 OA
ATOM      9  N   UNL     1      -6.618  -8.890   8.981  0.00  0.00    -0.302 N 
ATOM     17  C   UNL     1      -5.344  -8.834   9.519  0.00  0.00    +0.236 C 
ATOM     36  H   UNL     1      -6.851  -9.647   8.344  0.00  0.00    +0.150 HD
BRANCH   9  16
ATOM      4  O   UNL     1      -8.858  -9.664  10.343  0.00  0.00    -0.274 OA
ATOM     10  N   UNL     1     -10.091  -7.998   9.382  0.00  0.00    -0.314 N 
ATOM     16  C   UNL     1      -7.629  -7.900   9.246  0.00  0.00    +0.159 C 
ATOM     18  C   UNL     1      -7.812  -6.978   8.047  0.00  0.00    +0.033 C 
ATOM     19  C   UNL     1      -9.001  -6.061   8.286  0.00  0.00    +0.021 C 
ATOM     20  C   UNL     1     -10.253  -6.903   8.445  0.00  0.00    +0.104 C 
ATOM     22  C   UNL     1      -8.898  -8.627   9.677  0.00  0.00    +0.233 C 
ATOM     37  H   UNL     1     -10.939  -8.445   9.716  0.00  0.00    +0.149 HD
ENDBRANCH   9  16
ENDBRANCH  12  17
TORSDOF 5
ENDMDL
MODEL 4
REMARK VINA RESULT:      -6.4     31.050     35.300
REMARK  Name = 7682180
REMARK  6 active torsions:
REMARK  status: ('A' for Active; 'I' for Inactive)
REMARK    1  A    between atoms: N_9  and  C_16
REMARK    2  A    between atoms: N_11  and  C_26
REMARK    3  A    between atoms: C_12  and  C_17
REMARK    4  A    between atoms: C_21  and  C_24
REMARK    5  A    between atoms: C_33  and  C_34
REMARK    6  A    between atoms: C_34  and  C_35
REMARK                            x       y       z     vdW  Elec       q    Type
REMARK                         _______ _______ _______ _____ _____    ______ ____
ROOT
ATOM      3  O   UNL     1      -6.312 -12.958  17.910  0.00  0.00    -0.269 OA
ATOM      5  O   UNL     1     -12.029 -10.408  14.918  0.00  0.00    -0.252 OA
ATOM      7  N   UNL     1      -7.327 -11.586  16.343  0.00  0.00    -0.283 N 
ATOM      8  N   UNL     1      -9.737 -10.371  15.228  0.00  0.00    -0.282 N 
ATOM     11  N   UNL     1     -10.861  -8.446  14.463  0.00  0.00    -0.269 N 
ATOM     12  C   UNL     1      -8.664 -12.038  16.735  0.00  0.00    +0.179 C 
ATOM     13  C   UNL     1      -9.719 -11.771  15.664  0.00  0.00    +0.141 C 
ATOM     14  C   UNL     1      -7.252 -10.632  15.228  0.00  0.00    +0.128 C 
ATOM     15  C   UNL     1      -8.442  -9.679  15.185  0.00  0.00    +0.128 C 
ATOM     21  C   UNL     1      -6.204 -12.161  16.976  0.00  0.00    +0.254 C 
ATOM     23  C   UNL     1     -10.969  -9.780  14.863  0.00  0.00    +0.307 C 
ATOM     38  H   UNL     1      -9.951  -8.001  14.494  0.00  0.00    +0.156 HD
ENDROOT
BRANCH  11  26
ATOM     26  C   UNL     1     -11.901  -7.581  14.040  0.00  0.00    +0.035 A 
ATOM     29  C   UNL     1     -12.470  -6.681  14.942  0.00  0.00    +0.024 A 
ATOM     30  C   UNL     1     -12.355  -7.629  12.722  0.00  0.00    +0.024 A 
ATOM     31  C   UNL     1     -13.494  -5.831  14.527  0.00  0.00    +0.013 A 
ATOM     32  C   UNL     1     -13.380  -6.778  12.307  0.00  0.00    +0.013 A 
ATOM     33  C   UNL     1     -13.949  -5.878  13.209  0.00  0.00    +0.017 A 
BRANCH  33  34
ATOM      6  O   UNL     1     -16.098  -5.435  12.345  0.00  0.00    -0.292 OA
ATOM     34  C   UNL     1     -15.015  -4.990  12.776  0.00  0.00    +0.160 C 
ATOM     35  C   UNL     1     -14.831  -3.477  12.841  0.00  0.00    +0.091 C 
ENDBRANCH  33  34
ENDBRANCH  11  26
BRANCH  21  24
ATOM      1  S   UNL     1      -4.173 -12.644  15.204  0.00  0.00    -0.092 S 
ATOM     24  C   UNL     1      -4.884 -11.768  16.492  0.00  0.00    +0.074 A 
ATOM     25  C   UNL     1      -4.072 -10.745  16.933  0.00  0.00    +0.021 A 
ATOM     27  C   UNL     1      -2.851 -10.680  16.202  0.00  0.00    +0.008 A 
ATOM     28  C   UNL     1      -2.776 -11.655  15.231  0.00  0.00    +0.046 A 
ENDBRANCH  21  24
BRANCH  12  17
ATOM      2  O   UNL     1      -8.250 -10.561  18.570  0.00  0.00    -0.274 OA
ATOM      9  N   UNL     1     -10.286 -11.684  18.465  0.00  0.00    -0.302 N 
ATOM     17  C   UNL     1      -9.026 -11.335  18.013  0.00  0.00    +0.236 C 
ATOM     36  H   UNL     1     -10.854 -12.313  17.904  0.00  0.00    +0.150 HD
BRANCH   9  16
ATOM      4  O   UNL     1     -10.567 -13.385  20.586  0.00  0.00    -0.274 OA
ATOM     10  N   UNL     1     -12.303 -12.157  21.418  0.00  0.00    -0.314 N 
ATOM     16  C   UNL     1     -10.859 -11.167  19.680  0.00  0.00    +0.159 C 
ATOM     18  C   UNL     1     -12.011 -10.218  19.376  0.00  0.00    +0.033 C 
ATOM     19  C   UNL     1     -12.706  -9.828  20.671  0.00  0.00    +0.021 C 
ATOM     20  C   UNL     1     -13.267 -11.075  21.328  0.00  0.00    +0.104 C 
ATOM     22  C   UNL     1     -11.239 -12.351  20.563  0.00  0.00    +0.233 C 
ATOM     37  H   UNL     1     -12.528 -12.917  22.051  0.00  0.00    +0.149 HD
ENDBRANCH   9  16
ENDBRANCH  12  17
TORSDOF 5
ENDMDL
MODEL 5
REMARK VINA RESULT:      -6.4     17.065     22.196
REMARK  Name = 7682180
REMARK  6 active torsions:
REMARK  status: ('A' for Active; 'I' for Inactive)
REMARK    1  A    between atoms: N_9  and  C_16
REMARK    2  A    between atoms: N_11  and  C_26
REMARK    3  A    between atoms: C_12  and  C_17
REMARK    4  A    between atoms: C_21  and  C_24
REMARK    5  A    between atoms: C_33  and  C_34
REMARK    6  A    between atoms: C_34  and  C_35
REMARK                            x       y       z     vdW  Elec       q    Type
REMARK                         _______ _______ _______ _____ _____    ______ ____
ROOT
ATOM      3  O   UNL     1       9.647   4.704   0.144  0.00  0.00    -0.269 OA
ATOM      5  O   UNL     1      13.943   8.966   3.537  0.00  0.00    -0.252 OA
ATOM      7  N   UNL     1      11.773   5.545   0.519  0.00  0.00    -0.283 N 
ATOM      8  N   UNL     1      13.600   7.196   2.088  0.00  0.00    -0.282 N 
ATOM     11  N   UNL     1      15.655   7.419   3.220  0.00  0.00    -0.269 N 
ATOM     12  C   UNL     1      11.279   6.491   1.520  0.00  0.00    +0.179 C 
ATOM     13  C   UNL     1      12.243   7.651   1.768  0.00  0.00    +0.141 C 
ATOM     14  C   UNL     1      13.208   5.601   0.205  0.00  0.00    +0.128 C 
ATOM     15  C   UNL     1      14.061   5.976   1.411  0.00  0.00    +0.128 C 
ATOM     21  C   UNL     1      10.843   4.721  -0.152  0.00  0.00    +0.254 C 
ATOM     23  C   UNL     1      14.381   7.948   2.996  0.00  0.00    +0.307 C 
ATOM     38  H   UNL     1      15.908   6.551   2.763  0.00  0.00    +0.156 HD
ENDROOT
BRANCH  11  26
ATOM     26  C   UNL     1      16.669   7.932   4.067  0.00  0.00    +0.035 A 
ATOM     29  C   UNL     1      16.366   8.290   5.381  0.00  0.00    +0.024 A 
ATOM     30  C   UNL     1      17.970   8.078   3.586  0.00  0.00    +0.024 A 
ATOM     31  C   UNL     1      17.364   8.796   6.214  0.00  0.00    +0.013 A 
ATOM     32  C   UNL     1      18.968   8.584   4.419  0.00  0.00    +0.013 A 
ATOM     33  C   UNL     1      18.666   8.942   5.733  0.00  0.00    +0.017 A 
BRANCH  33  34
ATOM      6  O   UNL     1      19.839  10.694   6.791  0.00  0.00    -0.292 OA
ATOM     34  C   UNL     1      19.705   9.468   6.602  0.00  0.00    +0.160 C 
ATOM     35  C   UNL     1      20.668   8.520   7.312  0.00  0.00    +0.091 C 
ENDBRANCH  33  34
ENDBRANCH  11  26
BRANCH  21  24
ATOM      1  S   UNL     1      11.141   4.344  -2.848  0.00  0.00    -0.092 S 
ATOM     24  C   UNL     1      11.350   3.862  -1.218  0.00  0.00    +0.074 A 
ATOM     25  C   UNL     1      12.009   2.656  -1.116  0.00  0.00    +0.021 A 
ATOM     27  C   UNL     1      12.347   2.121  -2.393  0.00  0.00    +0.008 A 
ATOM     28  C   UNL     1      11.933   2.939  -3.422  0.00  0.00    +0.046 A 
ENDBRANCH  21  24
BRANCH  12  17
ATOM      2  O   UNL     1      11.321   4.534   2.893  0.00  0.00    -0.274 OA
ATOM      9  N   UNL     1      10.472   6.513   3.778  0.00  0.00    -0.302 N 
ATOM     17  C   UNL     1      11.042   5.727   2.792  0.00  0.00    +0.236 C 
ATOM     36  H   UNL     1      10.313   7.499   3.592  0.00  0.00    +0.150 HD
BRANCH   9  16
ATOM      4  O   UNL     1       7.935   6.953   4.696  0.00  0.00    -0.274 OA
ATOM     10  N   UNL     1       8.637   6.843   6.867  0.00  0.00    -0.314 N 
ATOM     16  C   UNL     1      10.124   6.012   5.082  0.00  0.00    +0.159 C 
ATOM     18  C   UNL     1      11.275   6.203   6.061  0.00  0.00    +0.033 C 
ATOM     19  C   UNL     1      10.820   5.829   7.463  0.00  0.00    +0.021 C 
ATOM     20  C   UNL     1       9.679   6.741   7.873  0.00  0.00    +0.104 C 
ATOM     22  C   UNL     1       8.820   6.677   5.509  0.00  0.00    +0.233 C 
ATOM     37  H   UNL     1       7.749   7.232   7.166  0.00  0.00    +0.149 HD
ENDBRANCH   9  16
ENDBRANCH  12  17
TORSDOF 5
ENDMDL
MODEL 6
REMARK VINA RESULT:      -6.3     31.923     35.258
REMARK  Name = 7682180
REMARK  6 active torsions:
REMARK  status: ('A' for Active; 'I' for Inactive)
REMARK    1  A    between atoms: N_9  and  C_16
REMARK    2  A    between atoms: N_11  and  C_26
REMARK    3  A    between atoms: C_12  and  C_17
REMARK    4  A    between atoms: C_21  and  C_24
REMARK    5  A    between atoms: C_33  and  C_34
REMARK    6  A    between atoms: C_34  and  C_35
REMARK                            x       y       z     vdW  Elec       q    Type
REMARK                         _______ _______ _______ _____ _____    ______ ____
ROOT
ATOM      3  O   UNL     1      -9.944 -11.282  19.781  0.00  0.00    -0.269 OA
ATOM      5  O   UNL     1     -10.283  -5.898  15.417  0.00  0.00    -0.252 OA
ATOM      7  N   UNL     1     -11.173  -9.849  18.438  0.00  0.00    -0.283 N 
ATOM      8  N   UNL     1     -11.280  -7.712  16.450  0.00  0.00    -0.282 N 
ATOM     11  N   UNL     1     -12.146  -6.879  14.423  0.00  0.00    -0.269 N 
ATOM     12  C   UNL     1      -9.983  -9.074  18.083  0.00  0.00    +0.179 C 
ATOM     13  C   UNL     1     -10.317  -7.679  17.556  0.00  0.00    +0.141 C 
ATOM     14  C   UNL     1     -12.456  -9.379  17.894  0.00  0.00    +0.128 C 
ATOM     15  C   UNL     1     -12.315  -8.752  16.511  0.00  0.00    +0.128 C 
ATOM     21  C   UNL     1     -11.040 -10.919  19.349  0.00  0.00    +0.254 C 
ATOM     23  C   UNL     1     -11.175  -6.751  15.418  0.00  0.00    +0.307 C 
ATOM     38  H   UNL     1     -12.811  -7.642  14.488  0.00  0.00    +0.156 HD
ENDROOT
BRANCH  11  26
ATOM     26  C   UNL     1     -12.312  -6.079  13.265  0.00  0.00    +0.035 A 
ATOM     29  C   UNL     1     -12.424  -4.694  13.383  0.00  0.00    +0.024 A 
ATOM     30  C   UNL     1     -12.362  -6.678  12.006  0.00  0.00    +0.024 A 
ATOM     31  C   UNL     1     -12.588  -3.907  12.245  0.00  0.00    +0.013 A 
ATOM     32  C   UNL     1     -12.526  -5.891  10.866  0.00  0.00    +0.013 A 
ATOM     33  C   UNL     1     -12.639  -4.505  10.985  0.00  0.00    +0.017 A 
BRANCH  33  34
ATOM      6  O   UNL     1     -13.927  -3.241   9.466  0.00  0.00    -0.292 OA
ATOM     34  C   UNL     1     -12.808  -3.684   9.797  0.00  0.00    +0.160 C 
ATOM     35  C   UNL     1     -11.608  -3.343   8.920  0.00  0.00    +0.091 C 
ENDBRANCH  33  34
ENDBRANCH  11  26
BRANCH  21  24
ATOM      1  S   UNL     1     -12.801 -12.958  18.862  0.00  0.00    -0.092 S 
ATOM     24  C   UNL     1     -12.260 -11.607  19.763  0.00  0.00    +0.074 A 
ATOM     25  C   UNL     1     -13.091 -11.325  20.825  0.00  0.00    +0.021 A 
ATOM     27  C   UNL     1     -14.188 -12.232  20.900  0.00  0.00    +0.008 A 
ATOM     28  C   UNL     1     -14.152 -13.171  19.892  0.00  0.00    +0.046 A 
ENDBRANCH  21  24
BRANCH  12  17
ATOM      2  O   UNL     1      -9.767 -10.307  16.046  0.00  0.00    -0.274 OA
ATOM      9  N   UNL     1      -7.888 -10.008  17.387  0.00  0.00    -0.302 N 
ATOM     17  C   UNL     1      -9.221  -9.856  17.051  0.00  0.00    +0.236 C 
ATOM     36  H   UNL     1      -7.538  -9.563  18.231  0.00  0.00    +0.150 HD
BRANCH   9  16
ATOM      4  O   UNL     1      -6.871 -12.346  18.373  0.00  0.00    -0.274 OA
ATOM     10  N   UNL     1      -4.982 -12.128  17.108  0.00  0.00    -0.314 N 
ATOM     16  C   UNL     1      -6.948 -10.737  16.575  0.00  0.00    +0.159 C 
ATOM     18  C   UNL     1      -5.987  -9.787  15.873  0.00  0.00    +0.033 C 
ATOM     19  C   UNL     1      -4.904 -10.588  15.168  0.00  0.00    +0.021 C 
ATOM     20  C   UNL     1      -4.128 -11.387  16.198  0.00  0.00    +0.104 C 
ATOM     22  C   UNL     1      -6.269 -11.776  17.460  0.00  0.00    +0.233 C 
ATOM     37  H   UNL     1      -4.541 -12.860  17.655  0.00  0.00    +0.149 HD
ENDBRANCH   9  16
ENDBRANCH  12  17
TORSDOF 5
ENDMDL
MODEL 7
REMARK VINA RESULT:      -6.2     31.057     33.993
REMARK  Name = 7682180
REMARK  6 active torsions:
REMARK  status: ('A' for Active; 'I' for Inactive)
REMARK    1  A    between atoms: N_9  and  C_16
REMARK    2  A    between atoms: N_11  and  C_26
REMARK    3  A    between atoms: C_12  and  C_17
REMARK    4  A    between atoms: C_21  and  C_24
REMARK    5  A    between atoms: C_33  and  C_34
REMARK    6  A    between atoms: C_34  and  C_35
REMARK                            x       y       z     vdW  Elec       q    Type
REMARK                         _______ _______ _______ _____ _____    ______ ____
ROOT
ATOM      3  O   UNL     1      -3.030 -10.634  14.368  0.00  0.00    -0.269 OA
ATOM      5  O   UNL     1      -6.889 -11.321  20.092  0.00  0.00    -0.252 OA
ATOM      7  N   UNL     1      -4.188 -11.962  15.871  0.00  0.00    -0.283 N 
ATOM      8  N   UNL     1      -5.975 -12.218  18.166  0.00  0.00    -0.282 N 
ATOM     11  N   UNL     1      -7.882 -13.201  19.143  0.00  0.00    -0.269 N 
ATOM     12  C   UNL     1      -4.525 -10.811  16.710  0.00  0.00    +0.179 C 
ATOM     13  C   UNL     1      -4.915 -11.207  18.134  0.00  0.00    +0.141 C 
ATOM     14  C   UNL     1      -4.632 -13.281  16.346  0.00  0.00    +0.128 C 
ATOM     15  C   UNL     1      -5.960 -13.222  17.093  0.00  0.00    +0.128 C 
ATOM     21  C   UNL     1      -3.380 -11.758  14.732  0.00  0.00    +0.254 C 
ATOM     23  C   UNL     1      -6.924 -12.188  19.215  0.00  0.00    +0.307 C 
ATOM     38  H   UNL     1      -7.855 -13.841  18.357  0.00  0.00    +0.156 HD
ENDROOT
BRANCH  11  26
ATOM     26  C   UNL     1      -8.958 -13.441  20.033  0.00  0.00    +0.035 A 
ATOM     29  C   UNL     1     -10.111 -12.659  19.963  0.00  0.00    +0.024 A 
ATOM     30  C   UNL     1      -8.864 -14.461  20.980  0.00  0.00    +0.024 A 
ATOM     31  C   UNL     1     -11.169 -12.895  20.839  0.00  0.00    +0.013 A 
ATOM     32  C   UNL     1      -9.923 -14.697  21.857  0.00  0.00    +0.013 A 
ATOM     33  C   UNL     1     -11.075 -13.915  21.787  0.00  0.00    +0.017 A 
BRANCH  33  34
ATOM      6  O   UNL     1     -13.366 -14.107  22.317  0.00  0.00    -0.292 OA
ATOM     34  C   UNL     1     -12.179 -14.161  22.700  0.00  0.00    +0.160 C 
ATOM     35  C   UNL     1     -11.907 -14.496  24.164  0.00  0.00    +0.091 C 
ENDBRANCH  33  34
ENDBRANCH  11  26
BRANCH  21  24
ATOM      1  S   UNL     1      -4.034 -13.572  12.788  0.00  0.00    -0.092 S 
ATOM     24  C   UNL     1      -2.974 -12.938  13.973  0.00  0.00    +0.074 A 
ATOM     25  C   UNL     1      -1.806 -13.664  14.065  0.00  0.00    +0.021 A 
ATOM     27  C   UNL     1      -1.782 -14.755  13.149  0.00  0.00    +0.008 A 
ATOM     28  C   UNL     1      -2.932 -14.821  12.393  0.00  0.00    +0.046 A 
ENDBRANCH  21  24
BRANCH  12  17
ATOM      2  O   UNL     1      -6.305  -9.216  16.633  0.00  0.00    -0.274 OA
ATOM      9  N   UNL     1      -5.862 -10.503  14.744  0.00  0.00    -0.302 N 
ATOM     17  C   UNL     1      -5.654 -10.077  16.044  0.00  0.00    +0.236 C 
ATOM     36  H   UNL     1      -5.240 -11.202  14.349  0.00  0.00    +0.150 HD
BRANCH   9  16
ATOM      4  O   UNL     1      -8.325 -11.686  14.823  0.00  0.00    -0.274 OA
ATOM     10  N   UNL     1      -8.786 -11.010  12.692  0.00  0.00    -0.314 N 
ATOM     16  C   UNL     1      -6.899  -9.973  13.897  0.00  0.00    +0.159 C 
ATOM     18  C   UNL     1      -6.342  -9.589  12.533  0.00  0.00    +0.033 C 
ATOM     19  C   UNL     1      -7.484  -9.201  11.607  0.00  0.00    +0.021 C 
ATOM     20  C   UNL     1      -8.408 -10.391  11.434  0.00  0.00    +0.104 C 
ATOM     22  C   UNL     1      -8.032 -10.992  13.847  0.00  0.00    +0.233 C 
ATOM     37  H   UNL     1      -9.578 -11.643  12.670  0.00  0.00    +0.149 HD
ENDBRANCH   9  16
ENDBRANCH  12  17
TORSDOF 5
ENDMDL
MODEL 8
REMARK VINA RESULT:      -6.2     30.462     35.587
REMARK  Name = 7682180
REMARK  6 active torsions:
REMARK  status: ('A' for Active; 'I' for Inactive)
REMARK    1  A    between atoms: N_9  and  C_16
REMARK    2  A    between atoms: N_11  and  C_26
REMARK    3  A    between atoms: C_12  and  C_17
REMARK    4  A    between atoms: C_21  and  C_24
REMARK    5  A    between atoms: C_33  and  C_34
REMARK    6  A    between atoms: C_34  and  C_35
REMARK                            x       y       z     vdW  Elec       q    Type
REMARK                         _______ _______ _______ _____ _____    ______ ____
ROOT
ATOM      3  O   UNL     1     -14.153  -8.355  17.070  0.00  0.00    -0.269 OA
ATOM      5  O   UNL     1      -7.286  -9.107  17.719  0.00  0.00    -0.252 OA
ATOM      7  N   UNL     1     -12.019  -8.243  16.176  0.00  0.00    -0.283 N 
ATOM      8  N   UNL     1      -9.153  -8.753  16.398  0.00  0.00    -0.282 N 
ATOM     11  N   UNL     1      -7.172  -9.607  15.447  0.00  0.00    -0.269 N 
ATOM     12  C   UNL     1     -11.408  -8.631  17.448  0.00  0.00    +0.179 C 
ATOM     13  C   UNL     1      -9.930  -8.254  17.537  0.00  0.00    +0.141 C 
ATOM     14  C   UNL     1     -11.103  -7.936  15.067  0.00  0.00    +0.128 C 
ATOM     15  C   UNL     1      -9.835  -8.783  15.098  0.00  0.00    +0.128 C 
ATOM     21  C   UNL     1     -13.421  -8.086  16.116  0.00  0.00    +0.254 C 
ATOM     23  C   UNL     1      -7.811  -9.153  16.603  0.00  0.00    +0.307 C 
ATOM     38  H   UNL     1      -7.702  -9.650  14.584  0.00  0.00    +0.156 HD
ENDROOT
BRANCH  11  26
ATOM     26  C   UNL     1      -5.840 -10.073  15.319  0.00  0.00    +0.035 A 
ATOM     29  C   UNL     1      -5.329 -10.391  14.061  0.00  0.00    +0.024 A 
ATOM     30  C   UNL     1      -5.039 -10.213  16.453  0.00  0.00    +0.024 A 
ATOM     31  C   UNL     1      -4.020 -10.851  13.935  0.00  0.00    +0.013 A 
ATOM     32  C   UNL     1      -3.728 -10.673  16.327  0.00  0.00    +0.013 A 
ATOM     33  C   UNL     1      -3.218 -10.992  15.069  0.00  0.00    +0.017 A 
BRANCH  33  34
ATOM      6  O   UNL     1      -0.920 -10.973  15.602  0.00  0.00    -0.292 OA
ATOM     34  C   UNL     1      -1.851 -11.470  14.937  0.00  0.00    +0.160 C 
ATOM     35  C   UNL     1      -1.523 -12.604  13.971  0.00  0.00    +0.091 C 
ENDBRANCH  33  34
ENDBRANCH  11  26
BRANCH  21  24
ATOM      1  S   UNL     1     -14.473  -8.727  13.671  0.00  0.00    -0.092 S 
ATOM     24  C   UNL     1     -13.991  -7.597  14.864  0.00  0.00    +0.074 A 
ATOM     25  C   UNL     1     -14.217  -6.297  14.467  0.00  0.00    +0.021 A 
ATOM     27  C   UNL     1     -14.794  -6.228  13.166  0.00  0.00    +0.008 A 
ATOM     28  C   UNL     1     -14.986  -7.478  12.619  0.00  0.00    +0.046 A 
ENDBRANCH  21  24
BRANCH  12  17
ATOM      2  O   UNL     1     -12.100 -10.802  16.724  0.00  0.00    -0.274 OA
ATOM      9  N   UNL     1     -11.111 -10.575  18.820  0.00  0.00    -0.302 N 
ATOM     17  C   UNL     1     -11.579 -10.116  17.601  0.00  0.00    +0.236 C 
ATOM     36  H   UNL     1     -10.670  -9.919  19.457  0.00  0.00    +0.150 HD
BRANCH   9  16
ATOM      4  O   UNL     1     -12.879 -11.260  20.789  0.00  0.00    -0.274 OA
ATOM     10  N   UNL     1     -11.611 -13.065  21.383  0.00  0.00    -0.314 N 
ATOM     16  C   UNL     1     -11.181 -11.956  19.221  0.00  0.00    +0.159 C 
ATOM     18  C   UNL     1      -9.791 -12.578  19.269  0.00  0.00    +0.033 C 
ATOM     19  C   UNL     1      -9.878 -13.975  19.862  0.00  0.00    +0.021 C 
ATOM     20  C   UNL     1     -10.415 -13.880  21.278  0.00  0.00    +0.104 C 
ATOM     22  C   UNL     1     -11.945 -12.025  20.539  0.00  0.00    +0.233 C 
ATOM     37  H   UNL     1     -12.152 -13.154  22.236  0.00  0.00    +0.149 HD
ENDBRANCH   9  16
ENDBRANCH  12  17
TORSDOF 5
ENDMDL
MODEL 9
REMARK VINA RESULT:      -6.2     24.407     27.685
REMARK  Name = 7682180
REMARK  6 active torsions:
REMARK  status: ('A' for Active; 'I' for Inactive)
REMARK    1  A    between atoms: N_9  and  C_16
REMARK    2  A    between atoms: N_11  and  C_26
REMARK    3  A    between atoms: C_12  and  C_17
REMARK    4  A    between atoms: C_21  and  C_24
REMARK    5  A    between atoms: C_33  and  C_34
REMARK    6  A    between atoms: C_34  and  C_35
REMARK                            x       y       z     vdW  Elec       q    Type
REMARK                         _______ _______ _______ _____ _____    ______ ____
ROOT
ATOM      3  O   UNL     1      18.976  -2.508  -5.864  0.00  0.00    -0.269 OA
ATOM      5  O   UNL     1      18.941  -4.793   0.687  0.00  0.00    -0.252 OA
ATOM      7  N   UNL     1      20.079  -2.940  -3.873  0.00  0.00    -0.283 N 
ATOM      8  N   UNL     1      20.097  -4.088  -1.188  0.00  0.00    -0.282 N 
ATOM     11  N   UNL     1      21.167  -5.425   0.431  0.00  0.00    -0.269 N 
ATOM     12  C   UNL     1      18.846  -3.392  -3.226  0.00  0.00    +0.179 C 
ATOM     13  C   UNL     1      18.930  -3.363  -1.701  0.00  0.00    +0.141 C 
ATOM     14  C   UNL     1      21.292  -2.913  -3.042  0.00  0.00    +0.128 C 
ATOM     15  C   UNL     1      21.319  -4.027  -2.002  0.00  0.00    +0.128 C 
ATOM     21  C   UNL     1      20.014  -2.466  -5.201  0.00  0.00    +0.254 C 
ATOM     23  C   UNL     1      19.993  -4.775   0.043  0.00  0.00    +0.307 C 
ATOM     38  H   UNL     1      21.969  -5.390  -0.188  0.00  0.00    +0.156 HD
ENDROOT
BRANCH  11  26
ATOM     26  C   UNL     1      21.387  -6.193   1.601  0.00  0.00    +0.035 A 
ATOM     29  C   UNL     1      20.858  -7.480   1.701  0.00  0.00    +0.024 A 
ATOM     30  C   UNL     1      22.134  -5.662   2.653  0.00  0.00    +0.024 A 
ATOM     31  C   UNL     1      21.073  -8.235   2.853  0.00  0.00    +0.013 A 
ATOM     32  C   UNL     1      22.349  -6.418   3.806  0.00  0.00    +0.013 A 
ATOM     33  C   UNL     1      21.820  -7.705   3.906  0.00  0.00    +0.017 A 
BRANCH  33  34
ATOM      6  O   UNL     1      22.054  -7.968   6.238  0.00  0.00    -0.292 OA
ATOM     34  C   UNL     1      22.045  -8.493   5.106  0.00  0.00    +0.160 C 
ATOM     35  C   UNL     1      22.278  -9.998   5.006  0.00  0.00    +0.091 C 
ENDBRANCH  33  34
ENDBRANCH  11  26
BRANCH  21  24
ATOM      1  S   UNL     1      21.557  -0.248  -5.648  0.00  0.00    -0.092 S 
ATOM     24  C   UNL     1      21.239  -1.925  -5.785  0.00  0.00    +0.074 A 
ATOM     25  C   UNL     1      22.236  -2.588  -6.466  0.00  0.00    +0.021 A 
ATOM     27  C   UNL     1      23.276  -1.706  -6.881  0.00  0.00    +0.008 A 
ATOM     28  C   UNL     1      23.033  -0.404  -6.501  0.00  0.00    +0.046 A 
ENDBRANCH  21  24
BRANCH  12  17
ATOM      2  O   UNL     1      19.426  -5.472  -4.253  0.00  0.00    -0.274 OA
ATOM      9  N   UNL     1      17.250  -5.162  -3.484  0.00  0.00    -0.302 N 
ATOM     17  C   UNL     1      18.563  -4.786  -3.708  0.00  0.00    +0.236 C 
ATOM     36  H   UNL     1      16.631  -4.523  -2.995  0.00  0.00    +0.150 HD
BRANCH   9  16
ATOM      4  O   UNL     1      14.732  -5.248  -4.542  0.00  0.00    -0.274 OA
ATOM     10  N   UNL     1      14.448  -7.406  -3.850  0.00  0.00    -0.314 N 
ATOM     16  C   UNL     1      16.719  -6.442  -3.875  0.00  0.00    +0.159 C 
ATOM     18  C   UNL     1      17.101  -7.518  -2.866  0.00  0.00    +0.033 C 
ATOM     19  C   UNL     1      16.384  -8.815  -3.208  0.00  0.00    +0.021 C 
ATOM     20  C   UNL     1      14.886  -8.588  -3.131  0.00  0.00    +0.104 C 
ATOM     22  C   UNL     1      15.218  -6.285  -4.086  0.00  0.00    +0.233 C 
ATOM     37  H   UNL     1      13.455  -7.329  -4.042  0.00  0.00    +0.149 HD
ENDBRANCH   9  16
ENDBRANCH  12  17
TORSDOF 5
ENDMDL
MODEL 10
REMARK VINA RESULT:      -6.1     32.581     36.779
REMARK  Name = 7682180
REMARK  6 active torsions:
REMARK  status: ('A' for Active; 'I' for Inactive)
REMARK    1  A    between atoms: N_9  and  C_16
REMARK    2  A    between atoms: N_11  and  C_26
REMARK    3  A    between atoms: C_12  and  C_17
REMARK    4  A    between atoms: C_21  and  C_24
REMARK    5  A    between atoms: C_33  and  C_34
REMARK    6  A    between atoms: C_34  and  C_35
REMARK                            x       y       z     vdW  Elec       q    Type
REMARK                         _______ _______ _______ _____ _____    ______ ____
ROOT
ATOM      3  O   UNL     1      -7.225 -10.843   3.285  0.00  0.00    -0.269 OA
ATOM      5  O   UNL     1     -10.824  -8.641   8.794  0.00  0.00    -0.252 OA
ATOM      7  N   UNL     1      -8.944  -9.588   4.201  0.00  0.00    -0.283 N 
ATOM      8  N   UNL     1     -10.324  -8.512   6.539  0.00  0.00    -0.282 N 
ATOM     11  N   UNL     1     -11.285  -6.668   7.647  0.00  0.00    -0.269 N 
ATOM     12  C   UNL     1      -8.643 -10.063   5.552  0.00  0.00    +0.179 C 
ATOM     13  C   UNL     1      -9.812  -9.886   6.519  0.00  0.00    +0.141 C 
ATOM     14  C   UNL     1     -10.100  -8.691   4.056  0.00  0.00    +0.128 C 
ATOM     15  C   UNL     1     -10.295  -7.782   5.265  0.00  0.00    +0.128 C 
ATOM     21  C   UNL     1      -8.188 -10.093   3.120  0.00  0.00    +0.254 C 
ATOM     23  C   UNL     1     -10.823  -7.982   7.751  0.00  0.00    +0.307 C 
ATOM     38  H   UNL     1     -11.201  -6.192   6.755  0.00  0.00    +0.156 HD
ENDROOT
BRANCH  11  26
ATOM     26  C   UNL     1     -11.840  -5.860   8.670  0.00  0.00    +0.035 A 
ATOM     29  C   UNL     1     -13.114  -6.139   9.165  0.00  0.00    +0.024 A 
ATOM     30  C   UNL     1     -11.112  -4.787   9.183  0.00  0.00    +0.024 A 
ATOM     31  C   UNL     1     -13.662  -5.344  10.171  0.00  0.00    +0.013 A 
ATOM     32  C   UNL     1     -11.659  -3.991  10.190  0.00  0.00    +0.013 A 
ATOM     33  C   UNL     1     -12.933  -4.270  10.685  0.00  0.00    +0.017 A 
BRANCH  33  34
ATOM      6  O   UNL     1     -12.849  -3.139  12.753  0.00  0.00    -0.292 OA
ATOM     34  C   UNL     1     -13.504  -3.442  11.735  0.00  0.00    +0.160 C 
ATOM     35  C   UNL     1     -14.932  -2.920  11.613  0.00  0.00    +0.091 C 
ENDBRANCH  33  34
ENDBRANCH  11  26
BRANCH  21  24
ATOM      1  S   UNL     1      -9.484 -10.764   0.803  0.00  0.00    -0.092 S 
ATOM     24  C   UNL     1      -8.580  -9.682   1.775  0.00  0.00    +0.074 A 
ATOM     25  C   UNL     1      -8.323  -8.494   1.126  0.00  0.00    +0.021 A 
ATOM     27  C   UNL     1      -8.876  -8.471  -0.187  0.00  0.00    +0.008 A 
ATOM     28  C   UNL     1      -9.534  -9.643  -0.491  0.00  0.00    +0.046 A 
ENDBRANCH  21  24
BRANCH  12  17
ATOM      2  O   UNL     1      -6.916  -8.418   5.374  0.00  0.00    -0.274 OA
ATOM      9  N   UNL     1      -7.013  -9.748   7.283  0.00  0.00    -0.302 N 
ATOM     17  C   UNL     1      -7.440  -9.307   6.043  0.00  0.00    +0.236 C 
ATOM     36  H   UNL     1      -7.544 -10.472   7.759  0.00  0.00    +0.150 HD
BRANCH   9  16
ATOM      4  O   UNL     1      -4.700 -11.205   7.286  0.00  0.00    -0.274 OA
ATOM     10  N   UNL     1      -4.014 -10.224   9.231  0.00  0.00    -0.314 N 
ATOM     16  C   UNL     1      -5.866  -9.203   7.961  0.00  0.00    +0.159 C 
ATOM     18  C   UNL     1      -6.278  -8.524   9.262  0.00  0.00    +0.033 C 
ATOM     19  C   UNL     1      -5.037  -8.115  10.039  0.00  0.00    +0.021 C 
ATOM     20  C   UNL     1      -4.231  -9.356  10.374  0.00  0.00    +0.104 C 
ATOM     22  C   UNL     1      -4.845 -10.322   8.134  0.00  0.00    +0.233 C 
ATOM     37  H   UNL     1      -3.293 -10.931   9.325  0.00  0.00    +0.149 HD
ENDBRANCH   9  16
ENDBRANCH  12  17
TORSDOF 5
ENDMDL
