MODEL 1
REMARK VINA RESULT:      -7.3      0.000      0.000
REMARK  Name = 40780382
REMARK  9 active torsions:
REMARK  status: ('A' for Active; 'I' for Inactive)
REMARK    1  A    between atoms: N_2  and  C_8
REMARK    2  A    between atoms: N_3  and  C_15
REMARK    3  A    between atoms: N_5  and  C_26
REMARK    4  A    between atoms: C_6  and  C_9
REMARK    5  A    between atoms: C_12  and  C_14
REMARK    6  A    between atoms: C_13  and  C_16
REMARK    7  A    between atoms: C_20  and  C_21
REMARK    8  A    between atoms: C_21  and  C_24
REMARK    9  A    between atoms: C_21  and  C_25
REMARK                            x       y       z     vdW  Elec       q    Type
REMARK                         _______ _______ _______ _____ _____    ______ ____
ROOT
ATOM      6  C   UNL     1      15.936   7.697  19.845  0.00  0.00    +0.047 C 
ATOM      7  C   UNL     1      17.188   8.310  20.507  0.00  0.00    +0.039 C 
ATOM      8  C   UNL     1      17.813   7.185  21.342  0.00  0.00    +0.098 C 
ATOM     10  C   UNL     1      15.640   6.526  20.735  0.00  0.00    -0.021 C 
ATOM     11  C   UNL     1      16.668   6.248  21.546  0.00  0.00    -0.009 C 
ENDROOT
BRANCH   6   9
ATOM      3  N   UNL     1      13.326  10.262  20.017  0.00  0.00    -0.236 N 
ATOM      4  N   UNL     1      13.035   9.813  18.785  0.00  0.00    -0.171 NA
ATOM      9  C   UNL     1      14.798   8.682  19.696  0.00  0.00    +0.003 A 
ATOM     12  C   UNL     1      14.374   9.619  20.606  0.00  0.00    +0.046 A 
ATOM     13  C   UNL     1      13.938   8.847  18.593  0.00  0.00    +0.064 A 
ATOM     14  C   UNL     1      14.871   9.946  21.957  0.00  0.00    +0.066 C 
ATOM     16  C   UNL     1      13.941   8.099  17.323  0.00  0.00    +0.068 C 
BRANCH   3  15
ATOM     15  C   UNL     1      12.573  11.298  20.571  0.00  0.00    +0.066 A 
ATOM     18  C   UNL     1      11.666  11.031  21.597  0.00  0.00    +0.028 A 
ATOM     19  C   UNL     1      12.725  12.601  20.096  0.00  0.00    +0.028 A 
ATOM     20  C   UNL     1      11.063  13.369  21.673  0.00  0.00    -0.045 A 
ATOM     22  C   UNL     1      10.912  12.066  22.148  0.00  0.00    +0.006 A 
ATOM     23  C   UNL     1      11.970  13.637  20.647  0.00  0.00    +0.006 A 
BRANCH  20  21
ATOM     21  C   UNL     1      10.255  14.476  22.261  0.00  0.00    +0.013 C 
ATOM     24  C   UNL     1       9.783  14.164  23.693  0.00  0.00    +0.012 C 
ATOM     25  C   UNL     1       9.047  14.854  21.384  0.00  0.00    +0.012 C 
ENDBRANCH  20  21
ENDBRANCH   3  15
ENDBRANCH   6   9
BRANCH   8   2
ATOM      1  O   UNL     1      20.116   5.952  22.516  0.00  0.00    -0.252 OA
ATOM      2  N   UNL     1      18.868   6.496  20.648  0.00  0.00    -0.293 N 
ATOM      5  N   UNL     1      20.825   5.320  20.369  0.00  0.00    -0.269 N 
ATOM     17  C   UNL     1      19.967   5.917  21.297  0.00  0.00    +0.304 C 
ATOM     32  H   UNL     1      18.775   6.355  19.646  0.00  0.00    +0.151 HD
ATOM     33  H   UNL     1      20.554   5.382  19.391  0.00  0.00    +0.156 HD
BRANCH   5  26
ATOM     26  C   UNL     1      22.037   4.635  20.622  0.00  0.00    +0.035 A 
ATOM     27  C   UNL     1      23.257   5.283  20.431  0.00  0.00    +0.023 A 
ATOM     28  C   UNL     1      22.011   3.312  21.063  0.00  0.00    +0.023 A 
ATOM     29  C   UNL     1      24.452   4.608  20.680  0.00  0.00    +0.002 A 
ATOM     30  C   UNL     1      23.206   2.636  21.313  0.00  0.00    +0.002 A 
ATOM     31  C   UNL     1      24.426   3.285  21.121  0.00  0.00    +0.000 A 
ENDBRANCH   5  26
ENDBRANCH   8   2
TORSDOF 5
ENDMDL
MODEL 2
REMARK VINA RESULT:      -7.2     28.819     31.465
REMARK  Name = 40780382
REMARK  9 active torsions:
REMARK  status: ('A' for Active; 'I' for Inactive)
REMARK    1  A    between atoms: N_2  and  C_8
REMARK    2  A    between atoms: N_3  and  C_15
REMARK    3  A    between atoms: N_5  and  C_26
REMARK    4  A    between atoms: C_6  and  C_9
REMARK    5  A    between atoms: C_12  and  C_14
REMARK    6  A    between atoms: C_13  and  C_16
REMARK    7  A    between atoms: C_20  and  C_21
REMARK    8  A    between atoms: C_21  and  C_24
REMARK    9  A    between atoms: C_21  and  C_25
REMARK                            x       y       z     vdW  Elec       q    Type
REMARK                         _______ _______ _______ _____ _____    ______ ____
ROOT
ATOM      6  C   UNL     1      -4.771  -9.642  10.305  0.00  0.00    +0.047 C 
ATOM      7  C   UNL     1      -4.811 -10.917  11.172  0.00  0.00    +0.039 C 
ATOM      8  C   UNL     1      -3.495 -10.928  11.960  0.00  0.00    +0.098 C 
ATOM     10  C   UNL     1      -3.302  -9.343  10.236  0.00  0.00    -0.021 C 
ATOM     11  C   UNL     1      -2.612 -10.044  11.143  0.00  0.00    -0.009 C 
ENDROOT
BRANCH   6   9
ATOM      3  N   UNL     1      -6.686  -9.564   7.182  0.00  0.00    -0.236 N 
ATOM      4  N   UNL     1      -6.000 -10.691   6.927  0.00  0.00    -0.171 NA
ATOM      9  C   UNL     1      -5.444  -9.813   8.962  0.00  0.00    +0.003 A 
ATOM     12  C   UNL     1      -6.390  -8.998   8.387  0.00  0.00    +0.046 A 
ATOM     13  C   UNL     1      -5.243 -10.838   8.018  0.00  0.00    +0.064 A 
ATOM     14  C   UNL     1      -7.019  -7.755   8.876  0.00  0.00    +0.066 C 
ATOM     16  C   UNL     1      -4.329 -11.990   8.116  0.00  0.00    +0.068 C 
BRANCH   3  15
ATOM     15  C   UNL     1      -7.600  -9.084   6.244  0.00  0.00    +0.066 A 
ATOM     18  C   UNL     1      -7.148  -8.398   5.116  0.00  0.00    +0.028 A 
ATOM     19  C   UNL     1      -8.966  -9.287   6.436  0.00  0.00    +0.028 A 
ATOM     20  C   UNL     1      -9.430  -8.119   4.372  0.00  0.00    -0.045 A 
ATOM     22  C   UNL     1      -8.063  -7.916   4.180  0.00  0.00    +0.006 A 
ATOM     23  C   UNL     1      -9.882  -8.805   5.500  0.00  0.00    +0.006 A 
BRANCH  20  21
ATOM     21  C   UNL     1     -10.408  -7.602   3.372  0.00  0.00    +0.013 C 
ATOM     24  C   UNL     1      -9.844  -6.431   2.546  0.00  0.00    +0.012 C 
ATOM     25  C   UNL     1     -11.746  -7.191   4.014  0.00  0.00    +0.012 C 
ENDBRANCH  20  21
ENDBRANCH   3  15
ENDBRANCH   6   9
BRANCH   8   2
ATOM      1  O   UNL     1      -4.549 -12.244  14.276  0.00  0.00    -0.252 OA
ATOM      2  N   UNL     1      -3.631 -10.370  13.280  0.00  0.00    -0.293 N 
ATOM      5  N   UNL     1      -4.168 -10.287  15.515  0.00  0.00    -0.269 N 
ATOM     17  C   UNL     1      -4.159 -11.082  14.366  0.00  0.00    +0.304 C 
ATOM     32  H   UNL     1      -3.257  -9.442  13.452  0.00  0.00    +0.151 HD
ATOM     33  H   UNL     1      -3.809  -9.340  15.418  0.00  0.00    +0.156 HD
BRANCH   5  26
ATOM     26  C   UNL     1      -4.620 -10.635  16.809  0.00  0.00    +0.035 A 
ATOM     27  C   UNL     1      -3.832 -11.442  17.629  0.00  0.00    +0.023 A 
ATOM     28  C   UNL     1      -5.855 -10.173  17.265  0.00  0.00    +0.023 A 
ATOM     29  C   UNL     1      -4.277 -11.788  18.905  0.00  0.00    +0.002 A 
ATOM     30  C   UNL     1      -6.301 -10.517  18.542  0.00  0.00    +0.002 A 
ATOM     31  C   UNL     1      -5.511 -11.325  19.361  0.00  0.00    +0.000 A 
ENDBRANCH   5  26
ENDBRANCH   8   2
TORSDOF 5
ENDMDL
MODEL 3
REMARK VINA RESULT:      -7.2     27.958     32.016
REMARK  Name = 40780382
REMARK  9 active torsions:
REMARK  status: ('A' for Active; 'I' for Inactive)
REMARK    1  A    between atoms: N_2  and  C_8
REMARK    2  A    between atoms: N_3  and  C_15
REMARK    3  A    between atoms: N_5  and  C_26
REMARK    4  A    between atoms: C_6  and  C_9
REMARK    5  A    between atoms: C_12  and  C_14
REMARK    6  A    between atoms: C_13  and  C_16
REMARK    7  A    between atoms: C_20  and  C_21
REMARK    8  A    between atoms: C_21  and  C_24
REMARK    9  A    between atoms: C_21  and  C_25
REMARK                            x       y       z     vdW  Elec       q    Type
REMARK                         _______ _______ _______ _____ _____    ______ ____
ROOT
ATOM      6  C   UNL     1     -15.652   3.943  23.983  0.00  0.00    +0.047 C 
ATOM      7  C   UNL     1     -16.295   4.440  25.295  0.00  0.00    +0.039 C 
ATOM      8  C   UNL     1     -17.155   3.277  25.806  0.00  0.00    +0.098 C 
ATOM     10  C   UNL     1     -16.573   2.831  23.573  0.00  0.00    -0.021 C 
ATOM     11  C   UNL     1     -17.387   2.469  24.571  0.00  0.00    -0.009 C 
ENDROOT
BRANCH   6   9
ATOM      3  N   UNL     1     -14.681   6.429  21.473  0.00  0.00    -0.236 N 
ATOM      4  N   UNL     1     -15.984   6.754  21.532  0.00  0.00    -0.171 NA
ATOM      9  C   UNL     1     -15.483   5.036  22.952  0.00  0.00    +0.003 A 
ATOM     12  C   UNL     1     -14.329   5.406  22.303  0.00  0.00    +0.046 A 
ATOM     13  C   UNL     1     -16.469   5.900  22.437  0.00  0.00    +0.064 A 
ATOM     14  C   UNL     1     -12.953   4.880  22.404  0.00  0.00    +0.066 C 
ATOM     16  C   UNL     1     -17.901   5.945  22.783  0.00  0.00    +0.068 C 
BRANCH   3  15
ATOM     15  C   UNL     1     -13.832   7.128  20.613  0.00  0.00    +0.066 A 
ATOM     18  C   UNL     1     -14.260   7.457  19.326  0.00  0.00    +0.028 A 
ATOM     19  C   UNL     1     -12.556   7.492  21.039  0.00  0.00    +0.028 A 
ATOM     20  C   UNL     1     -12.133   8.517  18.892  0.00  0.00    -0.045 A 
ATOM     22  C   UNL     1     -13.410   8.152  18.467  0.00  0.00    +0.006 A 
ATOM     23  C   UNL     1     -11.705   8.188  20.179  0.00  0.00    +0.006 A 
BRANCH  20  21
ATOM     21  C   UNL     1     -11.224   9.259  17.971  0.00  0.00    +0.013 C 
ATOM     24  C   UNL     1     -10.507   8.329  16.975  0.00  0.00    +0.012 C 
ATOM     25  C   UNL     1     -10.188  10.112  18.727  0.00  0.00    +0.012 C 
ENDBRANCH  20  21
ENDBRANCH   3  15
ENDBRANCH   6   9
BRANCH   8   2
ATOM      1  O   UNL     1     -16.300   4.091  28.415  0.00  0.00    -0.252 OA
ATOM      2  N   UNL     1     -16.475   2.466  26.780  0.00  0.00    -0.293 N 
ATOM      5  N   UNL     1     -15.449   1.932  28.768  0.00  0.00    -0.269 N 
ATOM     17  C   UNL     1     -16.087   2.940  28.041  0.00  0.00    +0.304 C 
ATOM     32  H   UNL     1     -16.335   1.481  26.575  0.00  0.00    +0.151 HD
ATOM     33  H   UNL     1     -15.352   1.030  28.310  0.00  0.00    +0.156 HD
BRANCH   5  26
ATOM     26  C   UNL     1     -14.914   2.010  30.075  0.00  0.00    +0.035 A 
ATOM     27  C   UNL     1     -14.007   3.019  30.398  0.00  0.00    +0.023 A 
ATOM     28  C   UNL     1     -15.293   1.078  31.042  0.00  0.00    +0.023 A 
ATOM     29  C   UNL     1     -13.478   3.097  31.687  0.00  0.00    +0.002 A 
ATOM     30  C   UNL     1     -14.765   1.156  32.331  0.00  0.00    +0.002 A 
ATOM     31  C   UNL     1     -13.858   2.165  32.653  0.00  0.00    +0.000 A 
ENDBRANCH   5  26
ENDBRANCH   8   2
TORSDOF 5
ENDMDL
MODEL 4
REMARK VINA RESULT:      -6.7     25.499     29.891
REMARK  Name = 40780382
REMARK  9 active torsions:
REMARK  status: ('A' for Active; 'I' for Inactive)
REMARK    1  A    between atoms: N_2  and  C_8
REMARK    2  A    between atoms: N_3  and  C_15
REMARK    3  A    between atoms: N_5  and  C_26
REMARK    4  A    between atoms: C_6  and  C_9
REMARK    5  A    between atoms: C_12  and  C_14
REMARK    6  A    between atoms: C_13  and  C_16
REMARK    7  A    between atoms: C_20  and  C_21
REMARK    8  A    between atoms: C_21  and  C_24
REMARK    9  A    between atoms: C_21  and  C_25
REMARK                            x       y       z     vdW  Elec       q    Type
REMARK                         _______ _______ _______ _____ _____    ______ ____
ROOT
ATOM      6  C   UNL     1       3.457   5.208  -5.752  0.00  0.00    +0.047 C 
ATOM      7  C   UNL     1       3.093   3.869  -5.076  0.00  0.00    +0.039 C 
ATOM      8  C   UNL     1       1.585   3.932  -4.807  0.00  0.00    +0.098 C 
ATOM     10  C   UNL     1       2.326   6.100  -5.331  0.00  0.00    -0.021 C 
ATOM     11  C   UNL     1       1.307   5.399  -4.820  0.00  0.00    -0.009 C 
ENDROOT
BRANCH   6   9
ATOM      3  N   UNL     1       6.563   6.514  -4.314  0.00  0.00    -0.236 N 
ATOM      4  N   UNL     1       7.037   6.286  -5.550  0.00  0.00    -0.171 NA
ATOM      9  C   UNL     1       4.833   5.711  -5.377  0.00  0.00    +0.003 A 
ATOM     12  C   UNL     1       5.249   6.186  -4.156  0.00  0.00    +0.046 A 
ATOM     13  C   UNL     1       5.975   5.796  -6.196  0.00  0.00    +0.064 A 
ATOM     14  C   UNL     1       4.519   6.349  -2.884  0.00  0.00    +0.066 C 
ATOM     16  C   UNL     1       6.101   5.415  -7.614  0.00  0.00    +0.068 C 
BRANCH   3  15
ATOM     15  C   UNL     1       7.408   7.041  -3.336  0.00  0.00    +0.066 A 
ATOM     18  C   UNL     1       8.302   6.208  -2.662  0.00  0.00    +0.028 A 
ATOM     19  C   UNL     1       7.356   8.401  -3.030  0.00  0.00    +0.028 A 
ATOM     20  C   UNL     1       9.091   8.095  -1.377  0.00  0.00    -0.045 A 
ATOM     22  C   UNL     1       9.143   6.735  -1.683  0.00  0.00    +0.006 A 
ATOM     23  C   UNL     1       8.198   8.929  -2.051  0.00  0.00    +0.006 A 
BRANCH  20  21
ATOM     21  C   UNL     1       9.991   8.658  -0.329  0.00  0.00    +0.013 C 
ATOM     24  C   UNL     1       9.945   7.852   0.982  0.00  0.00    +0.012 C 
ATOM     25  C   UNL     1       9.701  10.143  -0.040  0.00  0.00    +0.012 C 
ENDBRANCH  20  21
ENDBRANCH   3  15
ENDBRANCH   6   9
BRANCH   8   2
ATOM      1  O   UNL     1       0.082   1.506  -4.566  0.00  0.00    -0.252 OA
ATOM      2  N   UNL     1       0.808   3.296  -5.838  0.00  0.00    -0.293 N 
ATOM      5  N   UNL     1      -0.560   1.725  -6.814  0.00  0.00    -0.269 N 
ATOM     17  C   UNL     1       0.098   2.103  -5.641  0.00  0.00    +0.304 C 
ATOM     32  H   UNL     1       0.707   3.771  -6.729  0.00  0.00    +0.151 HD
ATOM     33  H   UNL     1      -0.442   2.334  -7.620  0.00  0.00    +0.156 HD
BRANCH   5  26
ATOM     26  C   UNL     1      -1.376   0.589  -7.025  0.00  0.00    +0.035 A 
ATOM     27  C   UNL     1      -2.514   0.687  -7.825  0.00  0.00    +0.023 A 
ATOM     28  C   UNL     1      -1.043  -0.629  -6.432  0.00  0.00    +0.023 A 
ATOM     29  C   UNL     1      -3.320  -0.433  -8.033  0.00  0.00    +0.002 A 
ATOM     30  C   UNL     1      -1.848  -1.750  -6.640  0.00  0.00    +0.002 A 
ATOM     31  C   UNL     1      -2.987  -1.650  -7.440  0.00  0.00    +0.000 A 
ENDBRANCH   5  26
ENDBRANCH   8   2
TORSDOF 5
ENDMDL
MODEL 5
REMARK VINA RESULT:      -6.7     26.974     31.332
REMARK  Name = 40780382
REMARK  9 active torsions:
REMARK  status: ('A' for Active; 'I' for Inactive)
REMARK    1  A    between atoms: N_2  and  C_8
REMARK    2  A    between atoms: N_3  and  C_15
REMARK    3  A    between atoms: N_5  and  C_26
REMARK    4  A    between atoms: C_6  and  C_9
REMARK    5  A    between atoms: C_12  and  C_14
REMARK    6  A    between atoms: C_13  and  C_16
REMARK    7  A    between atoms: C_20  and  C_21
REMARK    8  A    between atoms: C_21  and  C_24
REMARK    9  A    between atoms: C_21  and  C_25
REMARK                            x       y       z     vdW  Elec       q    Type
REMARK                         _______ _______ _______ _____ _____    ______ ____
ROOT
ATOM      6  C   UNL     1     -14.557   6.818  21.470  0.00  0.00    +0.047 C 
ATOM      7  C   UNL     1     -15.240   7.289  22.771  0.00  0.00    +0.039 C 
ATOM      8  C   UNL     1     -16.220   6.174  23.156  0.00  0.00    +0.098 C 
ATOM     10  C   UNL     1     -15.534   5.810  20.939  0.00  0.00    -0.021 C 
ATOM     11  C   UNL     1     -16.436   5.460  21.863  0.00  0.00    -0.009 C 
ENDROOT
BRANCH   6   9
ATOM      3  N   UNL     1     -13.226   9.390  19.226  0.00  0.00    -0.236 N 
ATOM      4  N   UNL     1     -14.521   9.735  19.124  0.00  0.00    -0.171 NA
ATOM      9  C   UNL     1     -14.236   7.950  20.520  0.00  0.00    +0.003 A 
ATOM     12  C   UNL     1     -13.002   8.326  20.049  0.00  0.00    +0.046 A 
ATOM     13  C   UNL     1     -15.134   8.852  19.916  0.00  0.00    +0.064 A 
ATOM     14  C   UNL     1     -11.659   7.772  20.311  0.00  0.00    +0.066 C 
ATOM     16  C   UNL     1     -16.599   8.907  20.068  0.00  0.00    +0.068 C 
BRANCH   3  15
ATOM     15  C   UNL     1     -12.261  10.109  18.519  0.00  0.00    +0.066 A 
ATOM     18  C   UNL     1     -11.856   9.677  17.256  0.00  0.00    +0.028 A 
ATOM     19  C   UNL     1     -11.699  11.256  19.078  0.00  0.00    +0.028 A 
ATOM     20  C   UNL     1     -10.327  11.542  17.111  0.00  0.00    -0.045 A 
ATOM     22  C   UNL     1     -10.889  10.394  16.552  0.00  0.00    +0.006 A 
ATOM     23  C   UNL     1     -10.732  11.974  18.374  0.00  0.00    +0.006 A 
BRANCH  20  21
ATOM     21  C   UNL     1      -9.292  12.308  16.358  0.00  0.00    +0.013 C 
ATOM     24  C   UNL     1      -8.587  13.363  17.231  0.00  0.00    +0.012 C 
ATOM     25  C   UNL     1      -9.858  12.974  15.090  0.00  0.00    +0.012 C 
ENDBRANCH  20  21
ENDBRANCH   3  15
ENDBRANCH   6   9
BRANCH   8   2
ATOM      1  O   UNL     1     -17.663   4.712  25.153  0.00  0.00    -0.252 OA
ATOM      2  N   UNL     1     -15.669   5.256  24.117  0.00  0.00    -0.293 N 
ATOM      5  N   UNL     1     -15.639   3.756  25.861  0.00  0.00    -0.269 N 
ATOM     17  C   UNL     1     -16.445   4.576  25.066  0.00  0.00    +0.304 C 
ATOM     32  H   UNL     1     -14.680   5.030  24.056  0.00  0.00    +0.151 HD
ATOM     33  H   UNL     1     -14.643   3.760  25.658  0.00  0.00    +0.156 HD
BRANCH   5  26
ATOM     26  C   UNL     1     -16.039   2.914  26.924  0.00  0.00    +0.035 A 
ATOM     27  C   UNL     1     -16.726   1.731  26.656  0.00  0.00    +0.023 A 
ATOM     28  C   UNL     1     -15.747   3.267  28.242  0.00  0.00    +0.023 A 
ATOM     29  C   UNL     1     -17.122   0.899  27.704  0.00  0.00    +0.002 A 
ATOM     30  C   UNL     1     -16.142   2.436  29.291  0.00  0.00    +0.002 A 
ATOM     31  C   UNL     1     -16.830   1.252  29.021  0.00  0.00    +0.000 A 
ENDBRANCH   5  26
ENDBRANCH   8   2
TORSDOF 5
ENDMDL
MODEL 6
REMARK VINA RESULT:      -6.6     28.972     32.132
REMARK  Name = 40780382
REMARK  9 active torsions:
REMARK  status: ('A' for Active; 'I' for Inactive)
REMARK    1  A    between atoms: N_2  and  C_8
REMARK    2  A    between atoms: N_3  and  C_15
REMARK    3  A    between atoms: N_5  and  C_26
REMARK    4  A    between atoms: C_6  and  C_9
REMARK    5  A    between atoms: C_12  and  C_14
REMARK    6  A    between atoms: C_13  and  C_16
REMARK    7  A    between atoms: C_20  and  C_21
REMARK    8  A    between atoms: C_21  and  C_24
REMARK    9  A    between atoms: C_21  and  C_25
REMARK                            x       y       z     vdW  Elec       q    Type
REMARK                         _______ _______ _______ _____ _____    ______ ____
ROOT
ATOM      6  C   UNL     1      -4.773  -9.745  10.366  0.00  0.00    +0.047 C 
ATOM      7  C   UNL     1      -4.817 -11.006  11.255  0.00  0.00    +0.039 C 
ATOM      8  C   UNL     1      -3.523 -10.984  12.077  0.00  0.00    +0.098 C 
ATOM     10  C   UNL     1      -3.307  -9.426  10.331  0.00  0.00    -0.021 C 
ATOM     11  C   UNL     1      -2.631 -10.101  11.268  0.00  0.00    -0.009 C 
ENDROOT
BRANCH   6   9
ATOM      3  N   UNL     1      -5.973 -10.713   7.043  0.00  0.00    -0.236 N 
ATOM      4  N   UNL     1      -6.737  -9.616   7.181  0.00  0.00    -0.171 NA
ATOM      9  C   UNL     1      -5.408  -9.949   9.009  0.00  0.00    +0.003 A 
ATOM     12  C   UNL     1      -5.160 -10.958   8.109  0.00  0.00    +0.046 A 
ATOM     13  C   UNL     1      -6.387  -9.153   8.385  0.00  0.00    +0.064 A 
ATOM     14  C   UNL     1      -4.236 -12.107   8.178  0.00  0.00    +0.066 C 
ATOM     16  C   UNL     1      -7.025  -7.931   8.905  0.00  0.00    +0.068 C 
BRANCH   3  15
ATOM     15  C   UNL     1      -6.066 -11.477   5.879  0.00  0.00    +0.066 A 
ATOM     18  C   UNL     1      -7.218 -12.221   5.621  0.00  0.00    +0.028 A 
ATOM     19  C   UNL     1      -5.004 -11.500   4.974  0.00  0.00    +0.028 A 
ATOM     20  C   UNL     1      -6.246 -13.009   3.555  0.00  0.00    -0.045 A 
ATOM     22  C   UNL     1      -7.308 -12.986   4.460  0.00  0.00    +0.006 A 
ATOM     23  C   UNL     1      -5.094 -12.266   3.812  0.00  0.00    +0.006 A 
BRANCH  20  21
ATOM     21  C   UNL     1      -6.343 -13.830   2.313  0.00  0.00    +0.013 C 
ATOM     24  C   UNL     1      -6.247 -15.341   2.596  0.00  0.00    +0.012 C 
ATOM     25  C   UNL     1      -5.295 -13.428   1.259  0.00  0.00    +0.012 C 
ENDBRANCH  20  21
ENDBRANCH   3  15
ENDBRANCH   6   9
BRANCH   8   2
ATOM      1  O   UNL     1      -4.459 -12.323  14.430  0.00  0.00    -0.252 OA
ATOM      2  N   UNL     1      -3.702 -10.405  13.382  0.00  0.00    -0.293 N 
ATOM      5  N   UNL     1      -4.239 -10.309  15.617  0.00  0.00    -0.269 N 
ATOM     17  C   UNL     1      -4.167 -11.130  14.489  0.00  0.00    +0.304 C 
ATOM     32  H   UNL     1      -3.406  -9.445  13.530  0.00  0.00    +0.151 HD
ATOM     33  H   UNL     1      -3.960  -9.339  15.495  0.00  0.00    +0.156 HD
BRANCH   5  26
ATOM     26  C   UNL     1      -4.658 -10.661  16.922  0.00  0.00    +0.035 A 
ATOM     27  C   UNL     1      -5.878 -10.198  17.411  0.00  0.00    +0.023 A 
ATOM     28  C   UNL     1      -3.849 -11.471  17.719  0.00  0.00    +0.023 A 
ATOM     29  C   UNL     1      -6.292 -10.543  18.698  0.00  0.00    +0.002 A 
ATOM     30  C   UNL     1      -4.262 -11.818  19.006  0.00  0.00    +0.002 A 
ATOM     31  C   UNL     1      -5.483 -11.354  19.495  0.00  0.00    +0.000 A 
ENDBRANCH   5  26
ENDBRANCH   8   2
TORSDOF 5
ENDMDL
MODEL 7
REMARK VINA RESULT:      -6.6     30.485     32.657
REMARK  Name = 40780382
REMARK  9 active torsions:
REMARK  status: ('A' for Active; 'I' for Inactive)
REMARK    1  A    between atoms: N_2  and  C_8
REMARK    2  A    between atoms: N_3  and  C_15
REMARK    3  A    between atoms: N_5  and  C_26
REMARK    4  A    between atoms: C_6  and  C_9
REMARK    5  A    between atoms: C_12  and  C_14
REMARK    6  A    between atoms: C_13  and  C_16
REMARK    7  A    between atoms: C_20  and  C_21
REMARK    8  A    between atoms: C_21  and  C_24
REMARK    9  A    between atoms: C_21  and  C_25
REMARK                            x       y       z     vdW  Elec       q    Type
REMARK                         _______ _______ _______ _____ _____    ______ ____
ROOT
ATOM      6  C   UNL     1     -11.811  -7.285  14.524  0.00  0.00    +0.047 C 
ATOM      7  C   UNL     1     -11.130  -6.670  15.765  0.00  0.00    +0.039 C 
ATOM      8  C   UNL     1     -10.597  -7.856  16.579  0.00  0.00    +0.098 C 
ATOM     10  C   UNL     1     -12.098  -8.687  14.975  0.00  0.00    -0.021 C 
ATOM     11  C   UNL     1     -11.431  -8.995  16.093  0.00  0.00    -0.009 C 
ENDROOT
BRANCH   6   9
ATOM      3  N   UNL     1     -14.430  -5.273  12.938  0.00  0.00    -0.236 N 
ATOM      4  N   UNL     1     -15.124  -5.610  14.038  0.00  0.00    -0.171 NA
ATOM      9  C   UNL     1     -13.024  -6.508  14.063  0.00  0.00    +0.003 A 
ATOM     12  C   UNL     1     -13.167  -5.786  12.903  0.00  0.00    +0.046 A 
ATOM     13  C   UNL     1     -14.260  -6.365  14.722  0.00  0.00    +0.064 A 
ATOM     14  C   UNL     1     -12.225  -5.549  11.791  0.00  0.00    +0.066 C 
ATOM     16  C   UNL     1     -14.665  -6.937  16.019  0.00  0.00    +0.068 C 
BRANCH   3  15
ATOM     15  C   UNL     1     -15.023  -4.467  11.966  0.00  0.00    +0.066 A 
ATOM     18  C   UNL     1     -14.962  -3.077  12.079  0.00  0.00    +0.028 A 
ATOM     19  C   UNL     1     -15.681  -5.050  10.883  0.00  0.00    +0.028 A 
ATOM     20  C   UNL     1     -16.216  -2.855  10.026  0.00  0.00    -0.045 A 
ATOM     22  C   UNL     1     -15.558  -2.272  11.110  0.00  0.00    +0.006 A 
ATOM     23  C   UNL     1     -16.277  -4.245   9.913  0.00  0.00    +0.006 A 
BRANCH  20  21
ATOM     21  C   UNL     1     -16.855  -1.994   8.990  0.00  0.00    +0.013 C 
ATOM     24  C   UNL     1     -15.988  -1.851   7.725  0.00  0.00    +0.012 C 
ATOM     25  C   UNL     1     -17.224  -0.599   9.530  0.00  0.00    +0.012 C 
ENDBRANCH  20  21
ENDBRANCH   3  15
ENDBRANCH   6   9
BRANCH   8   2
ATOM      1  O   UNL     1      -8.920  -9.701  17.990  0.00  0.00    -0.252 OA
ATOM      2  N   UNL     1      -9.211  -8.137  16.312  0.00  0.00    -0.293 N 
ATOM      5  N   UNL     1      -7.147  -9.120  16.564  0.00  0.00    -0.269 N 
ATOM     17  C   UNL     1      -8.456  -9.058  17.051  0.00  0.00    +0.304 C 
ATOM     32  H   UNL     1      -8.779  -7.704  15.501  0.00  0.00    +0.151 HD
ATOM     33  H   UNL     1      -6.924  -8.518  15.777  0.00  0.00    +0.156 HD
BRANCH   5  26
ATOM     26  C   UNL     1      -6.083  -9.923  17.036  0.00  0.00    +0.035 A 
ATOM     27  C   UNL     1      -6.136 -10.469  18.318  0.00  0.00    +0.023 A 
ATOM     28  C   UNL     1      -4.979 -10.170  16.219  0.00  0.00    +0.023 A 
ATOM     29  C   UNL     1      -5.087 -11.262  18.785  0.00  0.00    +0.002 A 
ATOM     30  C   UNL     1      -3.929 -10.962  16.684  0.00  0.00    +0.002 A 
ATOM     31  C   UNL     1      -3.984 -11.508  17.967  0.00  0.00    +0.000 A 
ENDBRANCH   5  26
ENDBRANCH   8   2
TORSDOF 5
ENDMDL
MODEL 8
REMARK VINA RESULT:      -6.6     29.296     32.143
REMARK  Name = 40780382
REMARK  9 active torsions:
REMARK  status: ('A' for Active; 'I' for Inactive)
REMARK    1  A    between atoms: N_2  and  C_8
REMARK    2  A    between atoms: N_3  and  C_15
REMARK    3  A    between atoms: N_5  and  C_26
REMARK    4  A    between atoms: C_6  and  C_9
REMARK    5  A    between atoms: C_12  and  C_14
REMARK    6  A    between atoms: C_13  and  C_16
REMARK    7  A    between atoms: C_20  and  C_21
REMARK    8  A    between atoms: C_21  and  C_24
REMARK    9  A    between atoms: C_21  and  C_25
REMARK                            x       y       z     vdW  Elec       q    Type
REMARK                         _______ _______ _______ _____ _____    ______ ____
ROOT
ATOM      6  C   UNL     1      -6.386  -8.624   9.553  0.00  0.00    +0.047 C 
ATOM      7  C   UNL     1      -6.659  -9.917  10.350  0.00  0.00    +0.039 C 
ATOM      8  C   UNL     1      -5.497 -10.051  11.342  0.00  0.00    +0.098 C 
ATOM     10  C   UNL     1      -4.908  -8.437   9.740  0.00  0.00    -0.021 C 
ATOM     11  C   UNL     1      -4.430  -9.214  10.718  0.00  0.00    -0.009 C 
ENDROOT
BRANCH   6   9
ATOM      3  N   UNL     1      -7.810  -8.358   6.188  0.00  0.00    -0.236 N 
ATOM      4  N   UNL     1      -7.017  -9.416   5.949  0.00  0.00    -0.171 NA
ATOM      9  C   UNL     1      -6.836  -8.704   8.112  0.00  0.00    +0.003 A 
ATOM     12  C   UNL     1      -7.739  -7.893   7.468  0.00  0.00    +0.046 A 
ATOM     13  C   UNL     1      -6.424  -9.623   7.128  0.00  0.00    +0.064 A 
ATOM     14  C   UNL     1      -8.520  -6.739   7.957  0.00  0.00    +0.066 C 
ATOM     16  C   UNL     1      -5.456 -10.726   7.269  0.00  0.00    +0.068 C 
BRANCH   3  15
ATOM     15  C   UNL     1      -8.604  -7.843   5.163  0.00  0.00    +0.066 A 
ATOM     18  C   UNL     1      -9.923  -7.469   5.423  0.00  0.00    +0.028 A 
ATOM     19  C   UNL     1      -8.080  -7.706   3.878  0.00  0.00    +0.028 A 
ATOM     20  C   UNL     1     -10.193  -6.820   3.111  0.00  0.00    -0.045 A 
ATOM     22  C   UNL     1     -10.717  -6.958   4.397  0.00  0.00    +0.006 A 
ATOM     23  C   UNL     1      -8.875  -7.194   2.852  0.00  0.00    +0.006 A 
BRANCH  20  21
ATOM     21  C   UNL     1     -11.044  -6.275   2.014  0.00  0.00    +0.013 C 
ATOM     24  C   UNL     1     -12.548  -6.403   2.315  0.00  0.00    +0.012 C 
ATOM     25  C   UNL     1     -10.728  -6.916   0.650  0.00  0.00    +0.012 C 
ENDBRANCH  20  21
ENDBRANCH   3  15
ENDBRANCH   6   9
BRANCH   8   2
ATOM      1  O   UNL     1      -5.328 -11.440  13.842  0.00  0.00    -0.252 OA
ATOM      2  N   UNL     1      -5.812  -9.523  12.643  0.00  0.00    -0.293 N 
ATOM      5  N   UNL     1      -6.075  -9.498  14.928  0.00  0.00    -0.269 N 
ATOM     17  C   UNL     1      -5.703 -10.270  13.824  0.00  0.00    +0.304 C 
ATOM     32  H   UNL     1      -6.052  -8.539  12.719  0.00  0.00    +0.151 HD
ATOM     33  H   UNL     1      -6.363  -8.541  14.740  0.00  0.00    +0.156 HD
BRANCH   5  26
ATOM     26  C   UNL     1      -6.102  -9.884  16.288  0.00  0.00    +0.035 A 
ATOM     27  C   UNL     1      -7.301  -9.852  16.998  0.00  0.00    +0.023 A 
ATOM     28  C   UNL     1      -4.928 -10.297  16.920  0.00  0.00    +0.023 A 
ATOM     29  C   UNL     1      -7.329 -10.232  18.341  0.00  0.00    +0.002 A 
ATOM     30  C   UNL     1      -4.955 -10.678  18.262  0.00  0.00    +0.002 A 
ATOM     31  C   UNL     1      -6.156 -10.645  18.972  0.00  0.00    +0.000 A 
ENDBRANCH   5  26
ENDBRANCH   8   2
TORSDOF 5
ENDMDL
MODEL 9
REMARK VINA RESULT:      -6.5     14.385     19.578
REMARK  Name = 40780382
REMARK  9 active torsions:
REMARK  status: ('A' for Active; 'I' for Inactive)
REMARK    1  A    between atoms: N_2  and  C_8
REMARK    2  A    between atoms: N_3  and  C_15
REMARK    3  A    between atoms: N_5  and  C_26
REMARK    4  A    between atoms: C_6  and  C_9
REMARK    5  A    between atoms: C_12  and  C_14
REMARK    6  A    between atoms: C_13  and  C_16
REMARK    7  A    between atoms: C_20  and  C_21
REMARK    8  A    between atoms: C_21  and  C_24
REMARK    9  A    between atoms: C_21  and  C_25
REMARK                            x       y       z     vdW  Elec       q    Type
REMARK                         _______ _______ _______ _____ _____    ______ ____
ROOT
ATOM      6  C   UNL     1       9.309   7.081   5.884  0.00  0.00    +0.047 C 
ATOM      7  C   UNL     1      10.397   8.090   6.308  0.00  0.00    +0.039 C 
ATOM      8  C   UNL     1       9.677   9.435   6.475  0.00  0.00    +0.098 C 
ATOM     10  C   UNL     1       8.240   7.974   5.325  0.00  0.00    -0.021 C 
ATOM     11  C   UNL     1       8.444   9.255   5.653  0.00  0.00    -0.009 C 
ENDROOT
BRANCH   6   9
ATOM      3  N   UNL     1      10.563   4.956   3.176  0.00  0.00    -0.236 N 
ATOM      4  N   UNL     1      10.491   3.999   4.117  0.00  0.00    -0.171 NA
ATOM      9  C   UNL     1       9.816   6.026   4.927  0.00  0.00    +0.003 A 
ATOM     12  C   UNL     1      10.171   6.188   3.610  0.00  0.00    +0.046 A 
ATOM     13  C   UNL     1      10.034   4.659   5.185  0.00  0.00    +0.064 A 
ATOM     14  C   UNL     1      10.168   7.388   2.750  0.00  0.00    +0.066 C 
ATOM     16  C   UNL     1       9.818   3.931   6.449  0.00  0.00    +0.068 C 
BRANCH   3  15
ATOM     15  C   UNL     1      11.010   4.633   1.894  0.00  0.00    +0.066 A 
ATOM     18  C   UNL     1      12.324   4.208   1.699  0.00  0.00    +0.028 A 
ATOM     19  C   UNL     1      10.142   4.738   0.807  0.00  0.00    +0.028 A 
ATOM     20  C   UNL     1      11.903   3.993  -0.670  0.00  0.00    -0.045 A 
ATOM     22  C   UNL     1      12.770   3.888   0.417  0.00  0.00    +0.006 A 
ATOM     23  C   UNL     1      10.588   4.418  -0.475  0.00  0.00    +0.006 A 
BRANCH  20  21
ATOM     21  C   UNL     1      12.381   3.652  -2.041  0.00  0.00    +0.013 C 
ATOM     24  C   UNL     1      12.135   2.176  -2.401  0.00  0.00    +0.012 C 
ATOM     25  C   UNL     1      13.867   4.000  -2.250  0.00  0.00    +0.012 C 
ENDBRANCH  20  21
ENDBRANCH   3  15
ENDBRANCH   6   9
BRANCH   8   2
ATOM      1  O   UNL     1      10.100  11.869   7.924  0.00  0.00    -0.252 OA
ATOM      2  N   UNL     1       9.302   9.701   7.838  0.00  0.00    -0.293 N 
ATOM      5  N   UNL     1       9.072  10.889   9.794  0.00  0.00    -0.269 N 
ATOM     17  C   UNL     1       9.545  10.923   8.479  0.00  0.00    +0.304 C 
ATOM     32  H   UNL     1       8.767   8.996   8.338  0.00  0.00    +0.151 HD
ATOM     33  H   UNL     1       8.636  10.024  10.100  0.00  0.00    +0.156 HD
BRANCH   5  26
ATOM     26  C   UNL     1       9.126  11.918  10.763  0.00  0.00    +0.035 A 
ATOM     27  C   UNL     1      10.158  11.940  11.701  0.00  0.00    +0.023 A 
ATOM     28  C   UNL     1       8.147  12.913  10.781  0.00  0.00    +0.023 A 
ATOM     29  C   UNL     1      10.212  12.954  12.657  0.00  0.00    +0.002 A 
ATOM     30  C   UNL     1       8.201  13.928  11.737  0.00  0.00    +0.002 A 
ATOM     31  C   UNL     1       9.233  13.947  12.675  0.00  0.00    +0.000 A 
ENDBRANCH   5  26
ENDBRANCH   8   2
TORSDOF 5
ENDMDL
MODEL 10
REMARK VINA RESULT:      -6.5     21.979     24.822
REMARK  Name = 40780382
REMARK  9 active torsions:
REMARK  status: ('A' for Active; 'I' for Inactive)
REMARK    1  A    between atoms: N_2  and  C_8
REMARK    2  A    between atoms: N_3  and  C_15
REMARK    3  A    between atoms: N_5  and  C_26
REMARK    4  A    between atoms: C_6  and  C_9
REMARK    5  A    between atoms: C_12  and  C_14
REMARK    6  A    between atoms: C_13  and  C_16
REMARK    7  A    between atoms: C_20  and  C_21
REMARK    8  A    between atoms: C_21  and  C_24
REMARK    9  A    between atoms: C_21  and  C_25
REMARK                            x       y       z     vdW  Elec       q    Type
REMARK                         _______ _______ _______ _____ _____    ______ ____
ROOT
ATOM      6  C   UNL     1       8.500  -6.269  34.108  0.00  0.00    +0.047 C 
ATOM      7  C   UNL     1       8.732  -6.311  35.633  0.00  0.00    +0.039 C 
ATOM      8  C   UNL     1       9.503  -5.030  35.975  0.00  0.00    +0.098 C 
ATOM     10  C   UNL     1       9.572  -5.325  33.645  0.00  0.00    -0.021 C 
ATOM     11  C   UNL     1      10.112  -4.650  34.665  0.00  0.00    -0.009 C 
ENDROOT
BRANCH   6   9
ATOM      3  N   UNL     1       8.019  -9.497  32.444  0.00  0.00    -0.236 N 
ATOM      4  N   UNL     1       9.335  -9.628  32.683  0.00  0.00    -0.171 NA
ATOM      9  C   UNL     1       8.536  -7.634  33.461  0.00  0.00    +0.003 A 
ATOM     12  C   UNL     1       7.492  -8.321  32.890  0.00  0.00    +0.046 A 
ATOM     13  C   UNL     1       9.646  -8.487  33.304  0.00  0.00    +0.064 A 
ATOM     14  C   UNL     1       6.069  -7.960  32.735  0.00  0.00    +0.066 C 
ATOM     16  C   UNL     1      11.036  -8.251  33.735  0.00  0.00    +0.068 C 
BRANCH   3  15
ATOM     15  C   UNL     1       7.329 -10.521  31.794  0.00  0.00    +0.066 A 
ATOM     18  C   UNL     1       6.665 -11.497  32.538  0.00  0.00    +0.028 A 
ATOM     19  C   UNL     1       7.307 -10.570  30.401  0.00  0.00    +0.028 A 
ATOM     20  C   UNL     1       5.956 -12.571  30.493  0.00  0.00    -0.045 A 
ATOM     22  C   UNL     1       5.978 -12.521  31.887  0.00  0.00    +0.006 A 
ATOM     23  C   UNL     1       6.620 -11.595  29.749  0.00  0.00    +0.006 A 
BRANCH  20  21
ATOM     21  C   UNL     1       5.222 -13.668  29.798  0.00  0.00    +0.013 C 
ATOM     24  C   UNL     1       4.533 -14.631  30.781  0.00  0.00    +0.012 C 
ATOM     25  C   UNL     1       6.125 -14.461  28.834  0.00  0.00    +0.012 C 
ENDBRANCH  20  21
ENDBRANCH   3  15
ENDBRANCH   6   9
BRANCH   8   2
ATOM      1  O   UNL     1       8.152  -4.865  38.495  0.00  0.00    -0.252 OA
ATOM      2  N   UNL     1       8.645  -3.966  36.423  0.00  0.00    -0.293 N 
ATOM      5  N   UNL     1       7.249  -2.802  37.832  0.00  0.00    -0.269 N 
ATOM     17  C   UNL     1       8.017  -3.958  37.676  0.00  0.00    +0.304 C 
ATOM     32  H   UNL     1       8.548  -3.143  35.835  0.00  0.00    +0.151 HD
ATOM     33  H   UNL     1       7.244  -2.148  37.054  0.00  0.00    +0.156 HD
BRANCH   5  26
ATOM     26  C   UNL     1       6.467  -2.423  38.949  0.00  0.00    +0.035 A 
ATOM     27  C   UNL     1       5.115  -2.758  38.999  0.00  0.00    +0.023 A 
ATOM     28  C   UNL     1       7.050  -1.714  40.000  0.00  0.00    +0.023 A 
ATOM     29  C   UNL     1       4.342  -2.384  40.100  0.00  0.00    +0.002 A 
ATOM     30  C   UNL     1       6.279  -1.340  41.102  0.00  0.00    +0.002 A 
ATOM     31  C   UNL     1       4.925  -1.675  41.150  0.00  0.00    +0.000 A 
ENDBRANCH   5  26
ENDBRANCH   8   2
TORSDOF 5
ENDMDL
