MODEL 1
REMARK VINA RESULT:      -6.4      0.000      0.000
REMARK  Name = 11941759
REMARK  10 active torsions:
REMARK  status: ('A' for Active; 'I' for Inactive)
REMARK    1  A    between atoms: N_4  and  C_16
REMARK    2  A    between atoms: N_5  and  C_19
REMARK    3  A    between atoms: N_8  and  C_22
REMARK    4  A    between atoms: N_8  and  C_24
REMARK    5  A    between atoms: N_8  and  C_25
REMARK    6  A    between atoms: C_10  and  C_16
REMARK    7  A    between atoms: C_11  and  C_17
REMARK    8  A    between atoms: C_19  and  C_21
REMARK    9  A    between atoms: C_20  and  C_22
REMARK   10  A    between atoms: C_24  and  C_28
REMARK                            x       y       z     vdW  Elec       q    Type
REMARK                         _______ _______ _______ _____ _____    ______ ____
ROOT
ATOM      3  N   UNL     1      -6.529 -10.648  10.291  0.00  0.00    -0.297 NA
ATOM      9  C   UNL     1      -4.962  -8.570  10.279  0.00  0.00    +0.005 C 
ATOM     10  C   UNL     1      -6.687  -9.886  11.558  0.00  0.00    +0.078 C 
ATOM     11  C   UNL     1      -4.181  -9.858   9.954  0.00  0.00    +0.092 C 
ATOM     12  C   UNL     1      -5.659  -8.736  11.644  0.00  0.00    +0.025 C 
ATOM     13  C   UNL     1      -6.065  -8.438   9.213  0.00  0.00    +0.020 C 
ATOM     14  C   UNL     1      -5.117 -11.071  10.116  0.00  0.00    +0.097 C 
ATOM     15  C   UNL     1      -6.882  -9.742   9.168  0.00  0.00    +0.085 C 
ENDROOT
BRANCH  11  17
ATOM      1  O   UNL     1      -2.027  -9.187  10.729  0.00  0.00    -0.275 OA
ATOM      5  N   UNL     1      -3.015 -11.084  11.649  0.00  0.00    -0.308 N 
ATOM     17  C   UNL     1      -2.958  -9.983  10.810  0.00  0.00    +0.218 C 
ATOM     34  H   UNL     1      -3.854 -11.655  11.673  0.00  0.00    +0.149 HD
BRANCH   5  19
ATOM     19  C   UNL     1      -1.951 -11.440  12.559  0.00  0.00    +0.178 C 
BRANCH  19  21
ATOM      2  O   UNL     1      -1.309 -11.279  14.901  0.00  0.00    -0.466 OA
ATOM     21  C   UNL     1      -2.299 -11.111  13.986  0.00  0.00    +0.122 A 
ATOM     23  C   UNL     1      -3.447 -10.658  14.594  0.00  0.00    +0.046 A 
ATOM     26  C   UNL     1      -3.143 -10.542  15.971  0.00  0.00    +0.041 A 
ATOM     27  C   UNL     1      -1.830 -10.931  16.107  0.00  0.00    +0.195 A 
ENDBRANCH  19  21
ENDBRANCH   5  19
ENDBRANCH  11  17
BRANCH  10  16
ATOM     16  C   UNL     1      -6.632 -10.791  12.791  0.00  0.00    +0.164 C 
BRANCH  16   4
ATOM      4  N   UNL     1      -7.409 -10.248  13.894  0.00  0.00    -0.250 N 
ATOM      6  N   UNL     1      -8.573  -9.634  13.713  0.00  0.00    -0.065 NA
ATOM      7  N   UNL     1      -9.020  -9.261  14.923  0.00  0.00    -0.133 NA
ATOM     18  C   UNL     1      -7.141 -10.253  15.235  0.00  0.00    +0.135 A 
ATOM     20  C   UNL     1      -8.158  -9.627  15.911  0.00  0.00    +0.097 A 
BRANCH  20  22
ATOM     22  C   UNL     1      -8.377  -9.356  17.329  0.00  0.00    +0.143 C 
BRANCH  22   8
ATOM      8  N   UNL     1      -8.992 -10.484  18.055  0.00  0.00    -0.295 NA
ATOM     25  C   UNL     1     -10.371 -10.161  18.402  0.00  0.00    +0.105 C 
BRANCH   8  24
ATOM     24  C   UNL     1      -8.214 -10.791  19.249  0.00  0.00    +0.119 C 
BRANCH  24  28
ATOM     28  C   UNL     1      -6.947 -11.535  18.917  0.00  0.00    -0.033 A 
ATOM     29  C   UNL     1      -5.737 -11.138  19.484  0.00  0.00    +0.005 A 
ATOM     30  C   UNL     1      -6.985 -12.621  18.044  0.00  0.00    +0.005 A 
ATOM     31  C   UNL     1      -4.563 -11.827  19.177  0.00  0.00    +0.000 A 
ATOM     32  C   UNL     1      -5.812 -13.311  17.737  0.00  0.00    +0.000 A 
ATOM     33  C   UNL     1      -4.601 -12.913  18.304  0.00  0.00    +0.000 A 
ENDBRANCH  24  28
ENDBRANCH   8  24
ENDBRANCH  22   8
ENDBRANCH  20  22
ENDBRANCH  16   4
ENDBRANCH  10  16
TORSDOF 9
ENDMDL
MODEL 2
REMARK VINA RESULT:      -6.0      2.638      7.675
REMARK  Name = 11941759
REMARK  10 active torsions:
REMARK  status: ('A' for Active; 'I' for Inactive)
REMARK    1  A    between atoms: N_4  and  C_16
REMARK    2  A    between atoms: N_5  and  C_19
REMARK    3  A    between atoms: N_8  and  C_22
REMARK    4  A    between atoms: N_8  and  C_24
REMARK    5  A    between atoms: N_8  and  C_25
REMARK    6  A    between atoms: C_10  and  C_16
REMARK    7  A    between atoms: C_11  and  C_17
REMARK    8  A    between atoms: C_19  and  C_21
REMARK    9  A    between atoms: C_20  and  C_22
REMARK   10  A    between atoms: C_24  and  C_28
REMARK                            x       y       z     vdW  Elec       q    Type
REMARK                         _______ _______ _______ _____ _____    ______ ____
ROOT
ATOM      3  N   UNL     1      -4.846 -12.260  15.487  0.00  0.00    -0.297 NA
ATOM      9  C   UNL     1      -4.302 -10.665  17.470  0.00  0.00    +0.005 C 
ATOM     10  C   UNL     1      -5.625 -10.999  15.353  0.00  0.00    +0.078 C 
ATOM     11  C   UNL     1      -4.705 -12.064  17.975  0.00  0.00    +0.092 C 
ATOM     12  C   UNL     1      -5.438 -10.100  16.595  0.00  0.00    +0.025 C 
ATOM     13  C   UNL     1      -3.075 -10.857  16.561  0.00  0.00    +0.020 C 
ATOM     14  C   UNL     1      -5.156 -12.923  16.778  0.00  0.00    +0.097 C 
ATOM     15  C   UNL     1      -3.404 -11.906  15.483  0.00  0.00    +0.085 C 
ENDROOT
BRANCH  11  17
ATOM      1  O   UNL     1      -5.624 -11.295  20.038  0.00  0.00    -0.275 OA
ATOM      5  N   UNL     1      -6.873 -12.754  18.722  0.00  0.00    -0.308 N 
ATOM     17  C   UNL     1      -5.768 -11.976  19.027  0.00  0.00    +0.218 C 
ATOM     34  H   UNL     1      -6.913 -13.245  17.835  0.00  0.00    +0.149 HD
BRANCH   5  19
ATOM     19  C   UNL     1      -8.026 -12.861  19.585  0.00  0.00    +0.178 C 
BRANCH  19  21
ATOM      2  O   UNL     1      -9.753 -11.362  20.420  0.00  0.00    -0.466 OA
ATOM     21  C   UNL     1      -9.010 -11.746  19.349  0.00  0.00    +0.122 A 
ATOM     23  C   UNL     1      -9.336 -10.998  18.241  0.00  0.00    +0.046 A 
ATOM     26  C   UNL     1     -10.345 -10.098  18.658  0.00  0.00    +0.041 A 
ATOM     27  C   UNL     1     -10.564 -10.359  19.991  0.00  0.00    +0.195 A 
ENDBRANCH  19  21
ENDBRANCH   5  19
ENDBRANCH  11  17
BRANCH  10  16
ATOM     16  C   UNL     1      -7.104 -11.258  15.055  0.00  0.00    +0.164 C 
BRANCH  16   4
ATOM      4  N   UNL     1      -7.467 -10.827  13.715  0.00  0.00    -0.250 N 
ATOM      6  N   UNL     1      -8.496 -10.021  13.478  0.00  0.00    -0.065 NA
ATOM      7  N   UNL     1      -8.551  -9.824  12.151  0.00  0.00    -0.133 NA
ATOM     18  C   UNL     1      -6.883 -11.127  12.515  0.00  0.00    +0.135 A 
ATOM     20  C   UNL     1      -7.561 -10.496  11.503  0.00  0.00    +0.097 A 
BRANCH  20  22
ATOM     22  C   UNL     1      -7.369 -10.472  10.055  0.00  0.00    +0.143 C 
BRANCH  22   8
ATOM      8  N   UNL     1      -6.292  -9.561   9.619  0.00  0.00    -0.295 NA
ATOM     25  C   UNL     1      -6.805  -8.622   8.628  0.00  0.00    +0.105 C 
BRANCH   8  24
ATOM     24  C   UNL     1      -5.178 -10.331   9.080  0.00  0.00    +0.119 C 
BRANCH  24  28
ATOM     28  C   UNL     1      -3.994 -10.331  10.010  0.00  0.00    -0.033 A 
ATOM     29  C   UNL     1      -3.745 -11.438  10.821  0.00  0.00    +0.005 A 
ATOM     30  C   UNL     1      -3.145  -9.226  10.058  0.00  0.00    +0.005 A 
ATOM     31  C   UNL     1      -2.648 -11.439  11.682  0.00  0.00    +0.000 A 
ATOM     32  C   UNL     1      -2.047  -9.226  10.919  0.00  0.00    +0.000 A 
ATOM     33  C   UNL     1      -1.799 -10.334  11.731  0.00  0.00    +0.000 A 
ENDBRANCH  24  28
ENDBRANCH   8  24
ENDBRANCH  22   8
ENDBRANCH  20  22
ENDBRANCH  16   4
ENDBRANCH  10  16
TORSDOF 9
ENDMDL
MODEL 3
REMARK VINA RESULT:      -6.0      2.673      7.809
REMARK  Name = 11941759
REMARK  10 active torsions:
REMARK  status: ('A' for Active; 'I' for Inactive)
REMARK    1  A    between atoms: N_4  and  C_16
REMARK    2  A    between atoms: N_5  and  C_19
REMARK    3  A    between atoms: N_8  and  C_22
REMARK    4  A    between atoms: N_8  and  C_24
REMARK    5  A    between atoms: N_8  and  C_25
REMARK    6  A    between atoms: C_10  and  C_16
REMARK    7  A    between atoms: C_11  and  C_17
REMARK    8  A    between atoms: C_19  and  C_21
REMARK    9  A    between atoms: C_20  and  C_22
REMARK   10  A    between atoms: C_24  and  C_28
REMARK                            x       y       z     vdW  Elec       q    Type
REMARK                         _______ _______ _______ _____ _____    ______ ____
ROOT
ATOM      3  N   UNL     1      -5.468 -11.915  15.530  0.00  0.00    -0.297 NA
ATOM      9  C   UNL     1      -4.858 -10.314  17.489  0.00  0.00    +0.005 C 
ATOM     10  C   UNL     1      -5.741 -10.506  15.138  0.00  0.00    +0.078 C 
ATOM     11  C   UNL     1      -5.796 -11.440  17.962  0.00  0.00    +0.092 C 
ATOM     12  C   UNL     1      -5.533  -9.550  16.333  0.00  0.00    +0.025 C 
ATOM     13  C   UNL     1      -3.600 -10.992  16.917  0.00  0.00    +0.020 C 
ATOM     14  C   UNL     1      -6.243 -12.271  16.745  0.00  0.00    +0.097 C 
ATOM     15  C   UNL     1      -4.023 -12.025  15.855  0.00  0.00    +0.085 C 
ENDROOT
BRANCH  11  17
ATOM      1  O   UNL     1      -6.854 -10.460  19.863  0.00  0.00    -0.275 OA
ATOM      5  N   UNL     1      -8.141 -10.956  17.987  0.00  0.00    -0.308 N 
ATOM     17  C   UNL     1      -6.966 -10.891  18.719  0.00  0.00    +0.218 C 
ATOM     34  H   UNL     1      -8.118 -11.288  17.028  0.00  0.00    +0.149 HD
BRANCH   5  19
ATOM     19  C   UNL     1      -9.416 -10.511  18.499  0.00  0.00    +0.178 C 
BRANCH  19  21
ATOM      2  O   UNL     1      -9.066  -8.694  16.917  0.00  0.00    -0.466 OA
ATOM     21  C   UNL     1      -9.948  -9.329  17.733  0.00  0.00    +0.122 A 
ATOM     23  C   UNL     1     -11.182  -8.724  17.674  0.00  0.00    +0.046 A 
ATOM     26  C   UNL     1     -11.049  -7.648  16.764  0.00  0.00    +0.041 A 
ATOM     27  C   UNL     1      -9.744  -7.672  16.331  0.00  0.00    +0.195 A 
ENDBRANCH  19  21
ENDBRANCH   5  19
ENDBRANCH  11  17
BRANCH  10  16
ATOM     16  C   UNL     1      -7.125 -10.336  14.507  0.00  0.00    +0.164 C 
BRANCH  16   4
ATOM      4  N   UNL     1      -7.036 -10.013  13.092  0.00  0.00    -0.250 N 
ATOM      6  N   UNL     1      -6.706  -8.802  12.655  0.00  0.00    -0.065 NA
ATOM      7  N   UNL     1      -6.716  -8.846  11.314  0.00  0.00    -0.133 NA
ATOM     18  C   UNL     1      -7.251 -10.809  12.002  0.00  0.00    +0.135 A 
ATOM     20  C   UNL     1      -7.051 -10.083  10.854  0.00  0.00    +0.097 A 
BRANCH  20  22
ATOM     22  C   UNL     1      -7.145 -10.432   9.439  0.00  0.00    +0.143 C 
BRANCH  22   8
ATOM      8  N   UNL     1      -6.070  -9.846   8.616  0.00  0.00    -0.295 NA
ATOM     25  C   UNL     1      -6.598  -9.448   7.316  0.00  0.00    +0.105 C 
BRANCH   8  24
ATOM     24  C   UNL     1      -4.981 -10.803   8.465  0.00  0.00    +0.119 C 
BRANCH  24  28
ATOM     28  C   UNL     1      -4.034 -10.767   9.636  0.00  0.00    -0.033 A 
ATOM     29  C   UNL     1      -3.377  -9.582   9.963  0.00  0.00    +0.005 A 
ATOM     30  C   UNL     1      -3.817 -11.917  10.392  0.00  0.00    +0.005 A 
ATOM     31  C   UNL     1      -2.501  -9.547  11.048  0.00  0.00    +0.000 A 
ATOM     32  C   UNL     1      -2.941 -11.884  11.478  0.00  0.00    +0.000 A 
ATOM     33  C   UNL     1      -2.283 -10.697  11.805  0.00  0.00    +0.000 A 
ENDBRANCH  24  28
ENDBRANCH   8  24
ENDBRANCH  22   8
ENDBRANCH  20  22
ENDBRANCH  16   4
ENDBRANCH  10  16
TORSDOF 9
ENDMDL
MODEL 4
REMARK VINA RESULT:      -5.7      3.894      7.327
REMARK  Name = 11941759
REMARK  10 active torsions:
REMARK  status: ('A' for Active; 'I' for Inactive)
REMARK    1  A    between atoms: N_4  and  C_16
REMARK    2  A    between atoms: N_5  and  C_19
REMARK    3  A    between atoms: N_8  and  C_22
REMARK    4  A    between atoms: N_8  and  C_24
REMARK    5  A    between atoms: N_8  and  C_25
REMARK    6  A    between atoms: C_10  and  C_16
REMARK    7  A    between atoms: C_11  and  C_17
REMARK    8  A    between atoms: C_19  and  C_21
REMARK    9  A    between atoms: C_20  and  C_22
REMARK   10  A    between atoms: C_24  and  C_28
REMARK                            x       y       z     vdW  Elec       q    Type
REMARK                         _______ _______ _______ _____ _____    ______ ____
ROOT
ATOM      3  N   UNL     1      -6.310 -10.056  17.656  0.00  0.00    -0.297 NA
ATOM      9  C   UNL     1      -4.998 -12.303  17.612  0.00  0.00    +0.005 C 
ATOM     10  C   UNL     1      -7.159 -11.127  17.069  0.00  0.00    +0.078 C 
ATOM     11  C   UNL     1      -4.186 -11.170  16.954  0.00  0.00    +0.092 C 
ATOM     12  C   UNL     1      -6.354 -12.433  16.890  0.00  0.00    +0.025 C 
ATOM     13  C   UNL     1      -5.290 -11.860  19.057  0.00  0.00    +0.020 C 
ATOM     14  C   UNL     1      -5.058  -9.903  16.874  0.00  0.00    +0.097 C 
ATOM     15  C   UNL     1      -5.946 -10.467  19.036  0.00  0.00    +0.085 C 
ENDROOT
BRANCH  11  17
ATOM      1  O   UNL     1      -3.402 -12.747  15.344  0.00  0.00    -0.275 OA
ATOM      5  N   UNL     1      -3.543 -10.501  14.747  0.00  0.00    -0.308 N 
ATOM     17  C   UNL     1      -3.676 -11.580  15.606  0.00  0.00    +0.218 C 
ATOM     34  H   UNL     1      -3.842  -9.579  15.047  0.00  0.00    +0.149 HD
BRANCH   5  19
ATOM     19  C   UNL     1      -3.049 -10.625  13.395  0.00  0.00    +0.178 C 
BRANCH  19  21
ATOM      2  O   UNL     1      -5.315  -9.956  12.809  0.00  0.00    -0.466 OA
ATOM     21  C   UNL     1      -4.029 -10.088  12.388  0.00  0.00    +0.122 A 
ATOM     23  C   UNL     1      -3.907  -9.686  11.078  0.00  0.00    +0.046 A 
ATOM     26  C   UNL     1      -5.200  -9.281  10.668  0.00  0.00    +0.041 A 
ATOM     27  C   UNL     1      -6.020  -9.464  11.757  0.00  0.00    +0.195 A 
ENDBRANCH  19  21
ENDBRANCH   5  19
ENDBRANCH  11  17
BRANCH  10  16
ATOM     16  C   UNL     1      -7.830 -10.689  15.766  0.00  0.00    +0.164 C 
BRANCH  16   4
ATOM      4  N   UNL     1      -9.119 -10.061  16.008  0.00  0.00    -0.250 N 
ATOM      6  N   UNL     1      -9.749 -10.149  17.174  0.00  0.00    -0.065 NA
ATOM      7  N   UNL     1     -10.898  -9.463  17.059  0.00  0.00    -0.133 NA
ATOM     18  C   UNL     1      -9.893  -9.309  15.167  0.00  0.00    +0.135 A 
ATOM     20  C   UNL     1     -11.035  -8.917  15.820  0.00  0.00    +0.097 A 
BRANCH  20  22
ATOM     22  C   UNL     1     -12.183  -8.117  15.402  0.00  0.00    +0.143 C 
BRANCH  22   8
ATOM      8  N   UNL     1     -11.814  -6.788  14.876  0.00  0.00    -0.295 NA
ATOM     25  C   UNL     1     -11.265  -5.964  15.947  0.00  0.00    +0.105 C 
BRANCH   8  24
ATOM     24  C   UNL     1     -12.978  -6.151  14.273  0.00  0.00    +0.119 C 
BRANCH  24  28
ATOM     28  C   UNL     1     -12.625  -5.426  13.001  0.00  0.00    -0.033 A 
ATOM     29  C   UNL     1     -12.507  -4.037  13.001  0.00  0.00    +0.005 A 
ATOM     30  C   UNL     1     -12.415  -6.145  11.825  0.00  0.00    +0.005 A 
ATOM     31  C   UNL     1     -12.180  -3.365  11.823  0.00  0.00    +0.000 A 
ATOM     32  C   UNL     1     -12.087  -5.474  10.647  0.00  0.00    +0.000 A 
ATOM     33  C   UNL     1     -11.970  -4.084  10.647  0.00  0.00    +0.000 A 
ENDBRANCH  24  28
ENDBRANCH   8  24
ENDBRANCH  22   8
ENDBRANCH  20  22
ENDBRANCH  16   4
ENDBRANCH  10  16
TORSDOF 9
ENDMDL
MODEL 5
REMARK VINA RESULT:      -5.7      1.917      2.250
REMARK  Name = 11941759
REMARK  10 active torsions:
REMARK  status: ('A' for Active; 'I' for Inactive)
REMARK    1  A    between atoms: N_4  and  C_16
REMARK    2  A    between atoms: N_5  and  C_19
REMARK    3  A    between atoms: N_8  and  C_22
REMARK    4  A    between atoms: N_8  and  C_24
REMARK    5  A    between atoms: N_8  and  C_25
REMARK    6  A    between atoms: C_10  and  C_16
REMARK    7  A    between atoms: C_11  and  C_17
REMARK    8  A    between atoms: C_19  and  C_21
REMARK    9  A    between atoms: C_20  and  C_22
REMARK   10  A    between atoms: C_24  and  C_28
REMARK                            x       y       z     vdW  Elec       q    Type
REMARK                         _______ _______ _______ _____ _____    ______ ____
ROOT
ATOM      3  N   UNL     1      -5.074 -11.396   9.731  0.00  0.00    -0.297 NA
ATOM      9  C   UNL     1      -3.735  -9.406  10.739  0.00  0.00    +0.005 C 
ATOM     10  C   UNL     1      -5.856 -10.761  10.827  0.00  0.00    +0.078 C 
ATOM     11  C   UNL     1      -2.884 -10.690  10.706  0.00  0.00    +0.092 C 
ATOM     12  C   UNL     1      -5.021  -9.676  11.543  0.00  0.00    +0.025 C 
ATOM     13  C   UNL     1      -4.154  -9.113   9.287  0.00  0.00    +0.020 C 
ATOM     14  C   UNL     1      -3.762 -11.867  10.241  0.00  0.00    +0.097 C 
ATOM     15  C   UNL     1      -4.824 -10.365   8.693  0.00  0.00    +0.085 C 
ENDROOT
BRANCH  11  17
ATOM      1  O   UNL     1      -1.811 -10.056  12.741  0.00  0.00    -0.275 OA
ATOM      5  N   UNL     1      -2.228 -12.311  12.342  0.00  0.00    -0.308 N 
ATOM     17  C   UNL     1      -2.255 -10.959  12.039  0.00  0.00    +0.218 C 
ATOM     34  H   UNL     1      -2.666 -12.977  11.713  0.00  0.00    +0.149 HD
BRANCH   5  19
ATOM     19  C   UNL     1      -1.654 -12.837  13.559  0.00  0.00    +0.178 C 
BRANCH  19  21
ATOM      2  O   UNL     1      -2.105 -15.108  14.311  0.00  0.00    -0.466 OA
ATOM     21  C   UNL     1      -2.565 -13.832  14.225  0.00  0.00    +0.122 A 
ATOM     23  C   UNL     1      -3.816 -13.732  14.791  0.00  0.00    +0.046 A 
ATOM     26  C   UNL     1      -4.144 -15.029  15.252  0.00  0.00    +0.041 A 
ATOM     27  C   UNL     1      -3.071 -15.830  14.936  0.00  0.00    +0.195 A 
ENDBRANCH  19  21
ENDBRANCH   5  19
ENDBRANCH  11  17
BRANCH  10  16
ATOM     16  C   UNL     1      -6.419 -11.789  11.811  0.00  0.00    +0.164 C 
BRANCH  16   4
ATOM      4  N   UNL     1      -7.395 -11.195  12.710  0.00  0.00    -0.250 N 
ATOM      6  N   UNL     1      -8.698 -11.191  12.448  0.00  0.00    -0.065 NA
ATOM      7  N   UNL     1      -9.308 -10.573  13.472  0.00  0.00    -0.133 NA
ATOM     18  C   UNL     1      -7.207 -10.573  13.913  0.00  0.00    +0.135 A 
ATOM     20  C   UNL     1      -8.417 -10.167  14.416  0.00  0.00    +0.097 A 
BRANCH  20  22
ATOM     22  C   UNL     1      -8.788  -9.466  15.643  0.00  0.00    +0.143 C 
BRANCH  22   8
ATOM      8  N   UNL     1      -8.559 -10.260  16.866  0.00  0.00    -0.295 NA
ATOM     25  C   UNL     1      -9.831 -10.546  17.520  0.00  0.00    +0.105 C 
BRANCH   8  24
ATOM     24  C   UNL     1      -7.662  -9.544  17.764  0.00  0.00    +0.119 C 
BRANCH  24  28
ATOM     28  C   UNL     1      -6.388 -10.308  18.011  0.00  0.00    -0.033 A 
ATOM     29  C   UNL     1      -6.239 -11.057  19.178  0.00  0.00    +0.005 A 
ATOM     30  C   UNL     1      -5.357 -10.267  17.073  0.00  0.00    +0.005 A 
ATOM     31  C   UNL     1      -5.060 -11.765  19.407  0.00  0.00    +0.000 A 
ATOM     32  C   UNL     1      -4.177 -10.975  17.301  0.00  0.00    +0.000 A 
ATOM     33  C   UNL     1      -4.029 -11.724  18.469  0.00  0.00    +0.000 A 
ENDBRANCH  24  28
ENDBRANCH   8  24
ENDBRANCH  22   8
ENDBRANCH  20  22
ENDBRANCH  16   4
ENDBRANCH  10  16
TORSDOF 9
ENDMDL
MODEL 6
REMARK VINA RESULT:      -5.7      3.552      8.895
REMARK  Name = 11941759
REMARK  10 active torsions:
REMARK  status: ('A' for Active; 'I' for Inactive)
REMARK    1  A    between atoms: N_4  and  C_16
REMARK    2  A    between atoms: N_5  and  C_19
REMARK    3  A    between atoms: N_8  and  C_22
REMARK    4  A    between atoms: N_8  and  C_24
REMARK    5  A    between atoms: N_8  and  C_25
REMARK    6  A    between atoms: C_10  and  C_16
REMARK    7  A    between atoms: C_11  and  C_17
REMARK    8  A    between atoms: C_19  and  C_21
REMARK    9  A    between atoms: C_20  and  C_22
REMARK   10  A    between atoms: C_24  and  C_28
REMARK                            x       y       z     vdW  Elec       q    Type
REMARK                         _______ _______ _______ _____ _____    ______ ____
ROOT
ATOM      3  N   UNL     1      -7.842 -12.287  17.213  0.00  0.00    -0.297 NA
ATOM      9  C   UNL     1      -8.755 -11.596  19.550  0.00  0.00    +0.005 C 
ATOM     10  C   UNL     1      -6.860 -11.407  17.902  0.00  0.00    +0.078 C 
ATOM     11  C   UNL     1      -9.784 -11.303  18.442  0.00  0.00    +0.092 C 
ATOM     12  C   UNL     1      -7.441 -10.859  19.224  0.00  0.00    +0.025 C 
ATOM     13  C   UNL     1      -8.459 -13.106  19.495  0.00  0.00    +0.020 C 
ATOM     14  C   UNL     1      -9.146 -11.591  17.070  0.00  0.00    +0.097 C 
ATOM     15  C   UNL     1      -8.050 -13.488  18.061  0.00  0.00    +0.085 C 
ENDROOT
BRANCH  11  17
ATOM      1  O   UNL     1     -11.119  -9.560  19.377  0.00  0.00    -0.275 OA
ATOM      5  N   UNL     1      -9.746  -9.077  17.560  0.00  0.00    -0.308 N 
ATOM     17  C   UNL     1     -10.294  -9.897  18.533  0.00  0.00    +0.218 C 
ATOM     34  H   UNL     1      -9.035  -9.443  16.935  0.00  0.00    +0.149 HD
BRANCH   5  19
ATOM     19  C   UNL     1     -10.091  -7.681  17.417  0.00  0.00    +0.178 C 
BRANCH  19  21
ATOM      2  O   UNL     1     -11.305  -8.518  15.480  0.00  0.00    -0.466 OA
ATOM     21  C   UNL     1     -10.871  -7.422  16.157  0.00  0.00    +0.122 A 
ATOM     23  C   UNL     1     -11.258  -6.271  15.510  0.00  0.00    +0.046 A 
ATOM     26  C   UNL     1     -11.975  -6.686  14.363  0.00  0.00    +0.041 A 
ATOM     27  C   UNL     1     -11.975  -8.062  14.389  0.00  0.00    +0.195 A 
ENDBRANCH  19  21
ENDBRANCH   5  19
ENDBRANCH  11  17
BRANCH  10  16
ATOM     16  C   UNL     1      -6.349 -10.284  16.996  0.00  0.00    +0.164 C 
BRANCH  16   4
ATOM      4  N   UNL     1      -4.974 -10.509  16.581  0.00  0.00    -0.250 N 
ATOM      6  N   UNL     1      -4.041 -10.959  17.413  0.00  0.00    -0.065 NA
ATOM      7  N   UNL     1      -2.898 -11.054  16.716  0.00  0.00    -0.133 NA
ATOM     18  C   UNL     1      -4.393 -10.327  15.357  0.00  0.00    +0.135 A 
ATOM     20  C   UNL     1      -3.065 -10.670  15.422  0.00  0.00    +0.097 A 
BRANCH  20  22
ATOM     22  C   UNL     1      -1.998 -10.665  14.425  0.00  0.00    +0.143 C 
BRANCH  22   8
ATOM      8  N   UNL     1      -2.333 -11.416  13.200  0.00  0.00    -0.295 NA
ATOM     25  C   UNL     1      -1.827 -12.781  13.298  0.00  0.00    +0.105 C 
BRANCH   8  24
ATOM     24  C   UNL     1      -1.781 -10.738  12.034  0.00  0.00    +0.119 C 
BRANCH  24  28
ATOM     28  C   UNL     1      -2.826 -10.501  10.975  0.00  0.00    -0.033 A 
ATOM     29  C   UNL     1      -3.666 -11.541  10.580  0.00  0.00    +0.005 A 
ATOM     30  C   UNL     1      -2.954  -9.241  10.392  0.00  0.00    +0.005 A 
ATOM     31  C   UNL     1      -4.634 -11.322   9.600  0.00  0.00    +0.000 A 
ATOM     32  C   UNL     1      -3.922  -9.021   9.412  0.00  0.00    +0.000 A 
ATOM     33  C   UNL     1      -4.762 -10.062   9.017  0.00  0.00    +0.000 A 
ENDBRANCH  24  28
ENDBRANCH   8  24
ENDBRANCH  22   8
ENDBRANCH  20  22
ENDBRANCH  16   4
ENDBRANCH  10  16
TORSDOF 9
ENDMDL
MODEL 7
REMARK VINA RESULT:      -5.6      3.360      8.854
REMARK  Name = 11941759
REMARK  10 active torsions:
REMARK  status: ('A' for Active; 'I' for Inactive)
REMARK    1  A    between atoms: N_4  and  C_16
REMARK    2  A    between atoms: N_5  and  C_19
REMARK    3  A    between atoms: N_8  and  C_22
REMARK    4  A    between atoms: N_8  and  C_24
REMARK    5  A    between atoms: N_8  and  C_25
REMARK    6  A    between atoms: C_10  and  C_16
REMARK    7  A    between atoms: C_11  and  C_17
REMARK    8  A    between atoms: C_19  and  C_21
REMARK    9  A    between atoms: C_20  and  C_22
REMARK   10  A    between atoms: C_24  and  C_28
REMARK                            x       y       z     vdW  Elec       q    Type
REMARK                         _______ _______ _______ _____ _____    ______ ____
ROOT
ATOM      3  N   UNL     1      -4.157 -12.130  12.152  0.00  0.00    -0.297 NA
ATOM      9  C   UNL     1      -2.196 -11.655  13.796  0.00  0.00    +0.005 C 
ATOM     10  C   UNL     1      -3.527 -10.822  11.826  0.00  0.00    +0.078 C 
ATOM     11  C   UNL     1      -3.490 -12.001  14.558  0.00  0.00    +0.092 C 
ATOM     12  C   UNL     1      -2.462 -10.445  12.879  0.00  0.00    +0.025 C 
ATOM     13  C   UNL     1      -1.879 -12.857  12.888  0.00  0.00    +0.020 C 
ATOM     14  C   UNL     1      -4.650 -12.129  13.553  0.00  0.00    +0.097 C 
ATOM     15  C   UNL     1      -3.115 -13.181  12.029  0.00  0.00    +0.085 C 
ENDROOT
BRANCH  11  17
ATOM      1  O   UNL     1      -2.930 -10.618  16.420  0.00  0.00    -0.275 OA
ATOM      5  N   UNL     1      -5.101 -10.554  15.581  0.00  0.00    -0.308 N 
ATOM     17  C   UNL     1      -3.784 -10.984  15.618  0.00  0.00    +0.218 C 
ATOM     34  H   UNL     1      -5.718 -10.885  14.846  0.00  0.00    +0.149 HD
BRANCH   5  19
ATOM     19  C   UNL     1      -5.645  -9.592  16.511  0.00  0.00    +0.178 C 
BRANCH  19  21
ATOM      2  O   UNL     1      -5.431 -10.670  18.684  0.00  0.00    -0.466 OA
ATOM     21  C   UNL     1      -6.277 -10.260  17.703  0.00  0.00    +0.122 A 
ATOM     23  C   UNL     1      -7.579 -10.560  18.031  0.00  0.00    +0.046 A 
ATOM     26  C   UNL     1      -7.530 -11.196  19.295  0.00  0.00    +0.041 A 
ATOM     27  C   UNL     1      -6.201 -11.239  19.649  0.00  0.00    +0.195 A 
ENDBRANCH  19  21
ENDBRANCH   5  19
ENDBRANCH  11  17
BRANCH  10  16
ATOM     16  C   UNL     1      -4.560  -9.709  11.637  0.00  0.00    +0.164 C 
BRANCH  16   4
ATOM      4  N   UNL     1      -4.957  -9.572  10.245  0.00  0.00    -0.250 N 
ATOM      6  N   UNL     1      -4.074  -9.476   9.257  0.00  0.00    -0.065 NA
ATOM      7  N   UNL     1      -4.768  -9.364   8.113  0.00  0.00    -0.133 NA
ATOM     18  C   UNL     1      -6.209  -9.520   9.697  0.00  0.00    +0.135 A 
ATOM     20  C   UNL     1      -6.110  -9.387   8.335  0.00  0.00    +0.097 A 
BRANCH  20  22
ATOM     22  C   UNL     1      -7.115  -9.284   7.280  0.00  0.00    +0.143 C 
BRANCH  22   8
ATOM      8  N   UNL     1      -6.575  -9.515   5.927  0.00  0.00    -0.295 NA
ATOM     25  C   UNL     1      -7.116  -8.529   4.999  0.00  0.00    +0.105 C 
BRANCH   8  24
ATOM     24  C   UNL     1      -6.890 -10.869   5.490  0.00  0.00    +0.119 C 
BRANCH  24  28
ATOM     28  C   UNL     1      -5.704 -11.545   4.854  0.00  0.00    -0.033 A 
ATOM     29  C   UNL     1      -5.799 -12.044   3.555  0.00  0.00    +0.005 A 
ATOM     30  C   UNL     1      -4.510 -11.670   5.563  0.00  0.00    +0.005 A 
ATOM     31  C   UNL     1      -4.700 -12.669   2.966  0.00  0.00    +0.000 A 
ATOM     32  C   UNL     1      -3.411 -12.295   4.975  0.00  0.00    +0.000 A 
ATOM     33  C   UNL     1      -3.507 -12.794   3.675  0.00  0.00    +0.000 A 
ENDBRANCH  24  28
ENDBRANCH   8  24
ENDBRANCH  22   8
ENDBRANCH  20  22
ENDBRANCH  16   4
ENDBRANCH  10  16
TORSDOF 9
ENDMDL
MODEL 8
REMARK VINA RESULT:      -5.6      4.435      7.764
REMARK  Name = 11941759
REMARK  10 active torsions:
REMARK  status: ('A' for Active; 'I' for Inactive)
REMARK    1  A    between atoms: N_4  and  C_16
REMARK    2  A    between atoms: N_5  and  C_19
REMARK    3  A    between atoms: N_8  and  C_22
REMARK    4  A    between atoms: N_8  and  C_24
REMARK    5  A    between atoms: N_8  and  C_25
REMARK    6  A    between atoms: C_10  and  C_16
REMARK    7  A    between atoms: C_11  and  C_17
REMARK    8  A    between atoms: C_19  and  C_21
REMARK    9  A    between atoms: C_20  and  C_22
REMARK   10  A    between atoms: C_24  and  C_28
REMARK                            x       y       z     vdW  Elec       q    Type
REMARK                         _______ _______ _______ _____ _____    ______ ____
ROOT
ATOM      3  N   UNL     1      -7.183 -10.945  18.720  0.00  0.00    -0.297 NA
ATOM      9  C   UNL     1      -5.784 -12.343  17.029  0.00  0.00    +0.005 C 
ATOM     10  C   UNL     1      -7.719 -10.762  17.345  0.00  0.00    +0.078 C 
ATOM     11  C   UNL     1      -4.877 -11.448  17.897  0.00  0.00    +0.092 C 
ATOM     12  C   UNL     1      -6.815 -11.457  16.303  0.00  0.00    +0.025 C 
ATOM     13  C   UNL     1      -6.561 -13.256  17.993  0.00  0.00    +0.020 C 
ATOM     14  C   UNL     1      -5.756 -10.539  18.776  0.00  0.00    +0.097 C 
ATOM     15  C   UNL     1      -7.265 -12.390  19.053  0.00  0.00    +0.085 C 
ENDROOT
BRANCH  11  17
ATOM      1  O   UNL     1      -4.230  -9.559  16.591  0.00  0.00    -0.275 OA
ATOM      5  N   UNL     1      -2.725 -11.315  16.856  0.00  0.00    -0.308 N 
ATOM     17  C   UNL     1      -3.927 -10.655  17.052  0.00  0.00    +0.218 C 
ATOM     34  H   UNL     1      -2.556 -12.201  17.320  0.00  0.00    +0.149 HD
BRANCH   5  19
ATOM     19  C   UNL     1      -1.649 -10.774  16.058  0.00  0.00    +0.178 C 
BRANCH  19  21
ATOM      2  O   UNL     1      -1.927 -10.068  13.745  0.00  0.00    -0.466 OA
ATOM     21  C   UNL     1      -1.803 -11.117  14.601  0.00  0.00    +0.122 A 
ATOM     23  C   UNL     1      -1.849 -12.308  13.914  0.00  0.00    +0.046 A 
ATOM     26  C   UNL     1      -2.012 -11.970  12.550  0.00  0.00    +0.041 A 
ATOM     27  C   UNL     1      -2.054 -10.595  12.499  0.00  0.00    +0.195 A 
ENDBRANCH  19  21
ENDBRANCH   5  19
ENDBRANCH  11  17
BRANCH  10  16
ATOM     16  C   UNL     1      -7.953  -9.289  17.003  0.00  0.00    +0.164 C 
BRANCH  16   4
ATOM      4  N   UNL     1      -9.366  -8.994  16.828  0.00  0.00    -0.250 N 
ATOM      6  N   UNL     1     -10.196  -8.842  17.855  0.00  0.00    -0.065 NA
ATOM      7  N   UNL     1     -11.412  -8.580  17.348  0.00  0.00    -0.133 NA
ATOM     18  C   UNL     1     -10.084  -8.820  15.678  0.00  0.00    +0.135 A 
ATOM     20  C   UNL     1     -11.395  -8.555  15.988  0.00  0.00    +0.097 A 
BRANCH  20  22
ATOM     22  C   UNL     1     -12.569  -8.295  15.160  0.00  0.00    +0.143 C 
BRANCH  22   8
ATOM      8  N   UNL     1     -12.553  -6.967  14.515  0.00  0.00    -0.295 NA
ATOM     25  C   UNL     1     -12.260  -5.937  15.505  0.00  0.00    +0.105 C 
BRANCH   8  24
ATOM     24  C   UNL     1     -13.832  -6.715  13.863  0.00  0.00    +0.119 C 
BRANCH  24  28
ATOM     28  C   UNL     1     -13.786  -5.486  12.994  0.00  0.00    -0.033 A 
ATOM     29  C   UNL     1     -12.784  -5.349  12.033  0.00  0.00    +0.005 A 
ATOM     30  C   UNL     1     -14.745  -4.486  13.150  0.00  0.00    +0.005 A 
ATOM     31  C   UNL     1     -12.742  -4.211  11.228  0.00  0.00    +0.000 A 
ATOM     32  C   UNL     1     -14.703  -3.348  12.344  0.00  0.00    +0.000 A 
ATOM     33  C   UNL     1     -13.701  -3.211  11.383  0.00  0.00    +0.000 A 
ENDBRANCH  24  28
ENDBRANCH   8  24
ENDBRANCH  22   8
ENDBRANCH  20  22
ENDBRANCH  16   4
ENDBRANCH  10  16
TORSDOF 9
ENDMDL
MODEL 9
REMARK VINA RESULT:      -5.6      1.931      3.738
REMARK  Name = 11941759
REMARK  10 active torsions:
REMARK  status: ('A' for Active; 'I' for Inactive)
REMARK    1  A    between atoms: N_4  and  C_16
REMARK    2  A    between atoms: N_5  and  C_19
REMARK    3  A    between atoms: N_8  and  C_22
REMARK    4  A    between atoms: N_8  and  C_24
REMARK    5  A    between atoms: N_8  and  C_25
REMARK    6  A    between atoms: C_10  and  C_16
REMARK    7  A    between atoms: C_11  and  C_17
REMARK    8  A    between atoms: C_19  and  C_21
REMARK    9  A    between atoms: C_20  and  C_22
REMARK   10  A    between atoms: C_24  and  C_28
REMARK                            x       y       z     vdW  Elec       q    Type
REMARK                         _______ _______ _______ _____ _____    ______ ____
ROOT
ATOM      3  N   UNL     1      -5.716 -11.110   9.979  0.00  0.00    -0.297 NA
ATOM      9  C   UNL     1      -4.198  -9.113  10.672  0.00  0.00    +0.005 C 
ATOM     10  C   UNL     1      -6.194 -10.530  11.262  0.00  0.00    +0.078 C 
ATOM     11  C   UNL     1      -3.360 -10.371  10.371  0.00  0.00    +0.092 C 
ATOM     12  C   UNL     1      -5.223  -9.444  11.774  0.00  0.00    +0.025 C 
ATOM     13  C   UNL     1      -4.989  -8.789   9.392  0.00  0.00    +0.020 C 
ATOM     14  C   UNL     1      -4.306 -11.558  10.110  0.00  0.00    +0.097 C 
ATOM     15  C   UNL     1      -5.768 -10.042   8.949  0.00  0.00    +0.085 C 
ENDROOT
BRANCH  11  17
ATOM      1  O   UNL     1      -1.494  -9.886  11.776  0.00  0.00    -0.275 OA
ATOM      5  N   UNL     1      -2.651 -11.882  12.087  0.00  0.00    -0.308 N 
ATOM     17  C   UNL     1      -2.399 -10.662  11.483  0.00  0.00    +0.218 C 
ATOM     34  H   UNL     1      -3.456 -12.430  11.800  0.00  0.00    +0.149 HD
BRANCH   5  19
ATOM     19  C   UNL     1      -1.853 -12.407  13.171  0.00  0.00    +0.178 C 
BRANCH  19  21
ATOM      2  O   UNL     1      -1.185 -11.203  15.179  0.00  0.00    -0.466 OA
ATOM     21  C   UNL     1      -2.208 -11.772  14.489  0.00  0.00    +0.122 A 
ATOM     23  C   UNL     1      -3.391 -11.635  15.178  0.00  0.00    +0.046 A 
ATOM     26  C   UNL     1      -3.074 -10.938  16.368  0.00  0.00    +0.041 A 
ATOM     27  C   UNL     1      -1.720 -10.698  16.322  0.00  0.00    +0.195 A 
ENDBRANCH  19  21
ENDBRANCH   5  19
ENDBRANCH  11  17
BRANCH  10  16
ATOM     16  C   UNL     1      -6.459 -11.602  12.322  0.00  0.00    +0.164 C 
BRANCH  16   4
ATOM      4  N   UNL     1      -7.527 -11.212  13.229  0.00  0.00    -0.250 N 
ATOM      6  N   UNL     1      -8.488 -10.365  12.878  0.00  0.00    -0.065 NA
ATOM      7  N   UNL     1      -9.302 -10.225  13.937  0.00  0.00    -0.133 NA
ATOM     18  C   UNL     1      -7.757 -11.597  14.521  0.00  0.00    +0.135 A 
ATOM     20  C   UNL     1      -8.887 -10.978  14.992  0.00  0.00    +0.097 A 
BRANCH  20  22
ATOM     22  C   UNL     1      -9.573 -11.029  16.281  0.00  0.00    +0.143 C 
BRANCH  22   8
ATOM      8  N   UNL     1      -9.246  -9.894  17.166  0.00  0.00    -0.295 NA
ATOM     25  C   UNL     1      -8.196 -10.279  18.102  0.00  0.00    +0.105 C 
BRANCH   8  24
ATOM     24  C   UNL     1     -10.442  -9.457  17.876  0.00  0.00    +0.119 C 
BRANCH  24  28
ATOM     28  C   UNL     1     -11.172  -8.371  17.131  0.00  0.00    -0.033 A 
ATOM     29  C   UNL     1     -10.492  -7.221  16.734  0.00  0.00    +0.005 A 
ATOM     30  C   UNL     1     -12.527  -8.518  16.837  0.00  0.00    +0.005 A 
ATOM     31  C   UNL     1     -11.168  -6.215  16.043  0.00  0.00    +0.000 A 
ATOM     32  C   UNL     1     -13.204  -7.513  16.146  0.00  0.00    +0.000 A 
ATOM     33  C   UNL     1     -12.523  -6.361  15.749  0.00  0.00    +0.000 A 
ENDBRANCH  24  28
ENDBRANCH   8  24
ENDBRANCH  22   8
ENDBRANCH  20  22
ENDBRANCH  16   4
ENDBRANCH  10  16
TORSDOF 9
ENDMDL
MODEL 10
REMARK VINA RESULT:      -5.5     27.743     30.473
REMARK  Name = 11941759
REMARK  10 active torsions:
REMARK  status: ('A' for Active; 'I' for Inactive)
REMARK    1  A    between atoms: N_4  and  C_16
REMARK    2  A    between atoms: N_5  and  C_19
REMARK    3  A    between atoms: N_8  and  C_22
REMARK    4  A    between atoms: N_8  and  C_24
REMARK    5  A    between atoms: N_8  and  C_25
REMARK    6  A    between atoms: C_10  and  C_16
REMARK    7  A    between atoms: C_11  and  C_17
REMARK    8  A    between atoms: C_19  and  C_21
REMARK    9  A    between atoms: C_20  and  C_22
REMARK   10  A    between atoms: C_24  and  C_28
REMARK                            x       y       z     vdW  Elec       q    Type
REMARK                         _______ _______ _______ _____ _____    ______ ____
ROOT
ATOM      3  N   UNL     1      19.849   8.257  21.110  0.00  0.00    -0.297 NA
ATOM      9  C   UNL     1      20.789   6.607  22.888  0.00  0.00    +0.005 C 
ATOM     10  C   UNL     1      18.778   7.325  21.552  0.00  0.00    +0.078 C 
ATOM     11  C   UNL     1      21.668   6.622  21.623  0.00  0.00    +0.092 C 
ATOM     12  C   UNL     1      19.346   6.238  22.492  0.00  0.00    +0.025 C 
ATOM     13  C   UNL     1      20.762   8.047  23.429  0.00  0.00    +0.020 C 
ATOM     14  C   UNL     1      20.995   7.498  20.550  0.00  0.00    +0.097 C 
ATOM     15  C   UNL     1      20.326   9.002  22.302  0.00  0.00    +0.085 C 
ENDROOT
BRANCH  11  17
ATOM      1  O   UNL     1      21.359   4.784  20.133  0.00  0.00    -0.275 OA
ATOM      5  N   UNL     1      22.838   4.554  21.917  0.00  0.00    -0.308 N 
ATOM     17  C   UNL     1      21.927   5.233  21.124  0.00  0.00    +0.218 C 
ATOM     34  H   UNL     1      23.287   5.032  22.690  0.00  0.00    +0.149 HD
BRANCH   5  19
ATOM     19  C   UNL     1      23.241   3.189  21.664  0.00  0.00    +0.178 C 
BRANCH  19  21
ATOM      2  O   UNL     1      22.294   2.696  23.852  0.00  0.00    -0.466 OA
ATOM     21  C   UNL     1      23.222   2.357  22.918  0.00  0.00    +0.122 A 
ATOM     23  C   UNL     1      23.968   1.283  23.346  0.00  0.00    +0.046 A 
ATOM     26  C   UNL     1      23.468   0.941  24.625  0.00  0.00    +0.041 A 
ATOM     27  C   UNL     1      22.451   1.830  24.887  0.00  0.00    +0.195 A 
ENDBRANCH  19  21
ENDBRANCH   5  19
ENDBRANCH  11  17
BRANCH  10  16
ATOM     16  C   UNL     1      18.014   6.716  20.374  0.00  0.00    +0.164 C 
BRANCH  16   4
ATOM      4  N   UNL     1      16.577   6.894  20.513  0.00  0.00    -0.250 N 
ATOM      6  N   UNL     1      16.024   7.413  21.604  0.00  0.00    -0.065 NA
ATOM      7  N   UNL     1      14.697   7.437  21.405  0.00  0.00    -0.133 NA
ATOM     18  C   UNL     1      15.573   6.599  19.633  0.00  0.00    +0.135 A 
ATOM     20  C   UNL     1      14.363   6.938  20.184  0.00  0.00    +0.097 A 
BRANCH  20  22
ATOM     22  C   UNL     1      12.993   6.838  19.688  0.00  0.00    +0.143 C 
BRANCH  22   8
ATOM      8  N   UNL     1      12.121   7.939  20.140  0.00  0.00    -0.295 NA
ATOM     25  C   UNL     1      11.164   7.444  21.123  0.00  0.00    +0.105 C 
BRANCH   8  24
ATOM     24  C   UNL     1      11.436   8.533  18.999  0.00  0.00    +0.119 C 
BRANCH  24  28
ATOM     28  C   UNL     1      12.389   9.266  18.092  0.00  0.00    -0.033 A 
ATOM     29  C   UNL     1      13.238  10.240  18.614  0.00  0.00    +0.005 A 
ATOM     30  C   UNL     1      12.422   8.969  16.730  0.00  0.00    +0.005 A 
ATOM     31  C   UNL     1      14.121  10.919  17.775  0.00  0.00    +0.000 A 
ATOM     32  C   UNL     1      13.305   9.647  15.889  0.00  0.00    +0.000 A 
ATOM     33  C   UNL     1      14.155  10.622  16.413  0.00  0.00    +0.000 A 
ENDBRANCH  24  28
ENDBRANCH   8  24
ENDBRANCH  22   8
ENDBRANCH  20  22
ENDBRANCH  16   4
ENDBRANCH  10  16
TORSDOF 9
ENDMDL
