MODEL 1
REMARK VINA RESULT:      -6.5      0.000      0.000
REMARK  Name = 38027141
REMARK  13 active torsions:
REMARK  status: ('A' for Active; 'I' for Inactive)
REMARK    1  A    between atoms: N_3  and  C_13
REMARK    2  A    between atoms: N_4  and  C_20
REMARK    3  A    between atoms: N_4  and  C_21
REMARK    4  A    between atoms: N_5  and  C_23
REMARK    5  A    between atoms: C_6  and  C_10
REMARK    6  A    between atoms: C_7  and  C_13
REMARK    7  A    between atoms: C_9  and  C_14
REMARK    8  A    between atoms: C_10  and  C_15
REMARK    9  A    between atoms: C_10  and  C_16
REMARK   10  A    between atoms: C_11  and  C_17
REMARK   11  A    between atoms: C_14  and  C_18
REMARK   12  A    between atoms: C_20  and  C_22
REMARK   13  A    between atoms: C_23  and  C_26
REMARK                            x       y       z     vdW  Elec       q    Type
REMARK                         _______ _______ _______ _____ _____    ______ ____
ROOT
ATOM      6  C   UNL     1      20.102   6.138  21.914  0.00  0.00    +0.000 C 
ATOM      7  C   UNL     1      20.486   7.421  22.690  0.00  0.00    +0.032 C 
ATOM      8  C   UNL     1      19.454   6.498  20.568  0.00  0.00    +0.012 C 
ATOM      9  C   UNL     1      18.189   7.359  20.742  0.00  0.00    +0.023 C 
ATOM     11  C   UNL     1      18.415   8.501  21.712  0.00  0.00    -0.073 C 
ATOM     12  C   UNL     1      19.455   8.518  22.565  0.00  0.00    -0.022 C 
ATOM     17  C   UNL     1      17.444   9.648  21.647  0.00  0.00    +0.039 C 
ENDROOT
BRANCH   6  10
ATOM     10  C   UNL     1      21.314   5.230  21.679  0.00  0.00    -0.013 C 
ATOM     15  C   UNL     1      20.940   4.069  20.763  0.00  0.00    +0.007 C 
ATOM     16  C   UNL     1      22.471   6.031  21.092  0.00  0.00    +0.007 C 
ENDBRANCH   6  10
BRANCH   7  13
ATOM     13  C   UNL     1      20.734   7.119  24.172  0.00  0.00    +0.113 C 
BRANCH  13   3
ATOM      2  O   UNL     1      20.022   7.063  26.968  0.00  0.00    -0.253 OA
ATOM      3  N   UNL     1      20.354   8.231  24.986  0.00  0.00    -0.299 N 
ATOM      5  N   UNL     1      19.690   9.358  26.894  0.00  0.00    -0.300 N 
ATOM     19  C   UNL     1      20.021   8.123  26.343  0.00  0.00    +0.300 C 
ATOM     30  H   UNL     1      20.388   9.162  24.582  0.00  0.00    +0.150 HD
ATOM     31  H   UNL     1      19.703  10.178  26.296  0.00  0.00    +0.150 HD
BRANCH   5  23
ATOM     23  C   UNL     1      19.308   9.522  28.276  0.00  0.00    +0.102 C 
ATOM     26  C   UNL     1      19.343  10.978  28.693  0.00  0.00    +0.024 C 
ENDBRANCH   5  23
ENDBRANCH  13   3
ENDBRANCH   7  13
BRANCH   9  14
ATOM     14  C   UNL     1      16.993   6.503  21.173  0.00  0.00    +0.103 C 
BRANCH  14  18
ATOM      1  O   UNL     1      16.166   5.916  19.000  0.00  0.00    -0.276 OA
ATOM      4  N   UNL     1      14.679   6.962  20.439  0.00  0.00    -0.300 N 
ATOM     18  C   UNL     1      15.925   6.426  20.097  0.00  0.00    +0.216 C 
ATOM     21  C   UNL     1      14.416   7.560  21.742  0.00  0.00    +0.132 C 
BRANCH   4  20
ATOM     20  C   UNL     1      13.547   6.964  19.515  0.00  0.00    +0.142 C 
BRANCH  20  22
ATOM     22  C   UNL     1      13.608   8.113  18.552  0.00  0.00    -0.030 A 
ATOM     24  C   UNL     1      13.959   7.889  17.220  0.00  0.00    +0.005 A 
ATOM     25  C   UNL     1      13.313   9.406  18.986  0.00  0.00    +0.005 A 
ATOM     27  C   UNL     1      14.016   8.956  16.324  0.00  0.00    +0.000 A 
ATOM     28  C   UNL     1      13.371  10.473  18.091  0.00  0.00    +0.000 A 
ATOM     29  C   UNL     1      13.722  10.248  16.759  0.00  0.00    +0.000 A 
ENDBRANCH  20  22
ENDBRANCH   4  20
ENDBRANCH  14  18
ENDBRANCH   9  14
TORSDOF 8
ENDMDL
MODEL 2
REMARK VINA RESULT:      -6.4     29.001     32.387
REMARK  Name = 38027141
REMARK  13 active torsions:
REMARK  status: ('A' for Active; 'I' for Inactive)
REMARK    1  A    between atoms: N_3  and  C_13
REMARK    2  A    between atoms: N_4  and  C_20
REMARK    3  A    between atoms: N_4  and  C_21
REMARK    4  A    between atoms: N_5  and  C_23
REMARK    5  A    between atoms: C_6  and  C_10
REMARK    6  A    between atoms: C_7  and  C_13
REMARK    7  A    between atoms: C_9  and  C_14
REMARK    8  A    between atoms: C_10  and  C_15
REMARK    9  A    between atoms: C_10  and  C_16
REMARK   10  A    between atoms: C_11  and  C_17
REMARK   11  A    between atoms: C_14  and  C_18
REMARK   12  A    between atoms: C_20  and  C_22
REMARK   13  A    between atoms: C_23  and  C_26
REMARK                            x       y       z     vdW  Elec       q    Type
REMARK                         _______ _______ _______ _____ _____    ______ ____
ROOT
ATOM      6  C   UNL     1      -7.401 -10.336  16.270  0.00  0.00    +0.000 C 
ATOM      7  C   UNL     1      -6.439  -9.996  15.105  0.00  0.00    +0.032 C 
ATOM      8  C   UNL     1      -6.782  -9.922  17.614  0.00  0.00    +0.012 C 
ATOM      9  C   UNL     1      -5.434 -10.620  17.875  0.00  0.00    +0.023 C 
ATOM     11  C   UNL     1      -4.525 -10.558  16.664  0.00  0.00    -0.073 C 
ATOM     12  C   UNL     1      -4.990 -10.265  15.436  0.00  0.00    -0.022 C 
ATOM     17  C   UNL     1      -3.060 -10.798  16.904  0.00  0.00    +0.039 C 
ENDROOT
BRANCH   6  10
ATOM     10  C   UNL     1      -8.765  -9.661  16.097  0.00  0.00    -0.013 C 
ATOM     15  C   UNL     1      -9.886 -10.689  16.220  0.00  0.00    +0.007 C 
ATOM     16  C   UNL     1      -8.940  -8.546  17.122  0.00  0.00    +0.007 C 
ENDBRANCH   6  10
BRANCH   7  13
ATOM     13  C   UNL     1      -6.821 -10.759  13.831  0.00  0.00    +0.113 C 
BRANCH  13   3
ATOM      2  O   UNL     1      -6.167  -8.674  11.946  0.00  0.00    -0.253 OA
ATOM      3  N   UNL     1      -5.742 -10.753  12.894  0.00  0.00    -0.299 N 
ATOM      5  N   UNL     1      -4.377  -9.952  11.207  0.00  0.00    -0.300 N 
ATOM     19  C   UNL     1      -5.488  -9.698  12.007  0.00  0.00    +0.300 C 
ATOM     30  H   UNL     1      -5.081 -11.523  12.911  0.00  0.00    +0.150 HD
ATOM     31  H   UNL     1      -3.887 -10.833  11.318  0.00  0.00    +0.150 HD
BRANCH   5  23
ATOM     23  C   UNL     1      -3.903  -9.023  10.209  0.00  0.00    +0.102 C 
ATOM     26  C   UNL     1      -4.517  -9.304   8.853  0.00  0.00    +0.024 C 
ENDBRANCH   5  23
ENDBRANCH  13   3
ENDBRANCH   7  13
BRANCH   9  14
ATOM     14  C   UNL     1      -5.642 -12.068  18.332  0.00  0.00    +0.103 C 
BRANCH  14  18
ATOM      1  O   UNL     1      -6.556 -11.617  20.502  0.00  0.00    -0.276 OA
ATOM      4  N   UNL     1      -7.817 -12.959  19.093  0.00  0.00    -0.300 N 
ATOM     18  C   UNL     1      -6.699 -12.183  19.415  0.00  0.00    +0.216 C 
ATOM     21  C   UNL     1      -7.964 -13.619  17.801  0.00  0.00    +0.132 C 
BRANCH   4  20
ATOM     20  C   UNL     1      -8.922 -13.166  20.026  0.00  0.00    +0.142 C 
BRANCH  20  22
ATOM     22  C   UNL     1     -10.073 -12.244  19.748  0.00  0.00    -0.030 A 
ATOM     24  C   UNL     1     -11.259 -12.750  19.216  0.00  0.00    +0.005 A 
ATOM     25  C   UNL     1      -9.958 -10.882  20.024  0.00  0.00    +0.005 A 
ATOM     27  C   UNL     1     -12.330 -11.894  18.958  0.00  0.00    +0.000 A 
ATOM     28  C   UNL     1     -11.028 -10.025  19.766  0.00  0.00    +0.000 A 
ATOM     29  C   UNL     1     -12.214 -10.531  19.233  0.00  0.00    +0.000 A 
ENDBRANCH  20  22
ENDBRANCH   4  20
ENDBRANCH  14  18
ENDBRANCH   9  14
TORSDOF 8
ENDMDL
MODEL 3
REMARK VINA RESULT:      -6.3     16.162     19.350
REMARK  Name = 38027141
REMARK  13 active torsions:
REMARK  status: ('A' for Active; 'I' for Inactive)
REMARK    1  A    between atoms: N_3  and  C_13
REMARK    2  A    between atoms: N_4  and  C_20
REMARK    3  A    between atoms: N_4  and  C_21
REMARK    4  A    between atoms: N_5  and  C_23
REMARK    5  A    between atoms: C_6  and  C_10
REMARK    6  A    between atoms: C_7  and  C_13
REMARK    7  A    between atoms: C_9  and  C_14
REMARK    8  A    between atoms: C_10  and  C_15
REMARK    9  A    between atoms: C_10  and  C_16
REMARK   10  A    between atoms: C_11  and  C_17
REMARK   11  A    between atoms: C_14  and  C_18
REMARK   12  A    between atoms: C_20  and  C_22
REMARK   13  A    between atoms: C_23  and  C_26
REMARK                            x       y       z     vdW  Elec       q    Type
REMARK                         _______ _______ _______ _____ _____    ______ ____
ROOT
ATOM      6  C   UNL     1       8.724   8.238   5.760  0.00  0.00    +0.000 C 
ATOM      7  C   UNL     1       8.681   8.297   7.306  0.00  0.00    +0.032 C 
ATOM      8  C   UNL     1       8.306   6.845   5.264  0.00  0.00    +0.012 C 
ATOM      9  C   UNL     1       9.214   5.732   5.819  0.00  0.00    +0.023 C 
ATOM     11  C   UNL     1       9.438   5.881   7.310  0.00  0.00    -0.073 C 
ATOM     12  C   UNL     1       9.182   7.030   7.960  0.00  0.00    -0.022 C 
ATOM     17  C   UNL     1       9.922   4.663   8.047  0.00  0.00    +0.039 C 
ENDROOT
BRANCH   6  10
ATOM     10  C   UNL     1       7.826   9.306   5.125  0.00  0.00    -0.013 C 
ATOM     15  C   UNL     1       8.570  10.634   5.022  0.00  0.00    +0.007 C 
ATOM     16  C   UNL     1       7.346   8.849   3.751  0.00  0.00    +0.007 C 
ENDBRANCH   6  10
BRANCH   7  13
ATOM     13  C   UNL     1       9.477   9.495   7.837  0.00  0.00    +0.113 C 
BRANCH  13   3
ATOM      2  O   UNL     1      11.556  10.792   6.315  0.00  0.00    -0.253 OA
ATOM      3  N   UNL     1      10.875   9.201   7.866  0.00  0.00    -0.299 N 
ATOM      5  N   UNL     1      13.114   9.393   7.315  0.00  0.00    -0.300 N 
ATOM     19  C   UNL     1      11.828   9.879   7.093  0.00  0.00    +0.300 C 
ATOM     30  H   UNL     1      11.212   8.509   8.528  0.00  0.00    +0.150 HD
ATOM     31  H   UNL     1      13.239   8.625   7.966  0.00  0.00    +0.150 HD
BRANCH   5  23
ATOM     23  C   UNL     1      14.277   9.920   6.642  0.00  0.00    +0.102 C 
ATOM     26  C   UNL     1      15.214   8.814   6.203  0.00  0.00    +0.024 C 
ENDBRANCH   5  23
ENDBRANCH  13   3
ENDBRANCH   7  13
BRANCH   9  14
ATOM     14  C   UNL     1      10.548   5.682   5.066  0.00  0.00    +0.103 C 
BRANCH  14  18
ATOM      1  O   UNL     1      10.515   3.420   4.273  0.00  0.00    -0.276 OA
ATOM      4  N   UNL     1      10.613   5.090   2.668  0.00  0.00    -0.300 N 
ATOM     18  C   UNL     1      10.556   4.618   3.983  0.00  0.00    +0.216 C 
ATOM     21  C   UNL     1      10.662   6.512   2.350  0.00  0.00    +0.132 C 
BRANCH   4  20
ATOM     20  C   UNL     1      10.628   4.195   1.514  0.00  0.00    +0.142 C 
BRANCH  20  22
ATOM     22  C   UNL     1      11.995   4.081   0.906  0.00  0.00    -0.030 A 
ATOM     24  C   UNL     1      13.067   3.637   1.681  0.00  0.00    +0.005 A 
ATOM     25  C   UNL     1      12.195   4.419  -0.432  0.00  0.00    +0.005 A 
ATOM     27  C   UNL     1      14.339   3.530   1.117  0.00  0.00    +0.000 A 
ATOM     28  C   UNL     1      13.466   4.313  -0.996  0.00  0.00    +0.000 A 
ATOM     29  C   UNL     1      14.538   3.869  -0.222  0.00  0.00    +0.000 A 
ENDBRANCH  20  22
ENDBRANCH   4  20
ENDBRANCH  14  18
ENDBRANCH   9  14
TORSDOF 8
ENDMDL
MODEL 4
REMARK VINA RESULT:      -6.3     27.809     30.818
REMARK  Name = 38027141
REMARK  13 active torsions:
REMARK  status: ('A' for Active; 'I' for Inactive)
REMARK    1  A    between atoms: N_3  and  C_13
REMARK    2  A    between atoms: N_4  and  C_20
REMARK    3  A    between atoms: N_4  and  C_21
REMARK    4  A    between atoms: N_5  and  C_23
REMARK    5  A    between atoms: C_6  and  C_10
REMARK    6  A    between atoms: C_7  and  C_13
REMARK    7  A    between atoms: C_9  and  C_14
REMARK    8  A    between atoms: C_10  and  C_15
REMARK    9  A    between atoms: C_10  and  C_16
REMARK   10  A    between atoms: C_11  and  C_17
REMARK   11  A    between atoms: C_14  and  C_18
REMARK   12  A    between atoms: C_20  and  C_22
REMARK   13  A    between atoms: C_23  and  C_26
REMARK                            x       y       z     vdW  Elec       q    Type
REMARK                         _______ _______ _______ _____ _____    ______ ____
ROOT
ATOM      6  C   UNL     1      -4.052 -11.533  12.578  0.00  0.00    +0.000 C 
ATOM      7  C   UNL     1      -2.754 -11.420  13.415  0.00  0.00    +0.032 C 
ATOM      8  C   UNL     1      -3.727 -11.502  11.077  0.00  0.00    +0.012 C 
ATOM      9  C   UNL     1      -2.994 -10.212  10.666  0.00  0.00    +0.023 C 
ATOM     11  C   UNL     1      -1.855  -9.886  11.612  0.00  0.00    -0.073 C 
ATOM     12  C   UNL     1      -1.758 -10.445  12.831  0.00  0.00    -0.022 C 
ATOM     17  C   UNL     1      -0.806  -8.935  11.106  0.00  0.00    +0.039 C 
ENDROOT
BRANCH   6  10
ATOM     10  C   UNL     1      -4.834 -12.807  12.913  0.00  0.00    -0.013 C 
ATOM     15  C   UNL     1      -6.117 -12.876  12.090  0.00  0.00    +0.007 C 
ATOM     16  C   UNL     1      -3.971 -14.041  12.671  0.00  0.00    +0.007 C 
ENDBRANCH   6  10
BRANCH   7  13
ATOM     13  C   UNL     1      -3.062 -11.028  14.865  0.00  0.00    +0.113 C 
BRANCH  13   3
ATOM      2  O   UNL     1      -4.890 -10.918  17.094  0.00  0.00    -0.253 OA
ATOM      3  N   UNL     1      -4.283 -10.289  14.941  0.00  0.00    -0.299 N 
ATOM      5  N   UNL     1      -6.242  -9.484  15.871  0.00  0.00    -0.300 N 
ATOM     19  C   UNL     1      -5.121 -10.286  16.064  0.00  0.00    +0.300 C 
ATOM     30  H   UNL     1      -4.531  -9.680  14.167  0.00  0.00    +0.150 HD
ATOM     31  H   UNL     1      -6.356  -9.012  14.980  0.00  0.00    +0.150 HD
BRANCH   5  23
ATOM     23  C   UNL     1      -7.264  -9.311  16.876  0.00  0.00    +0.102 C 
ATOM     26  C   UNL     1      -8.639  -9.182  16.254  0.00  0.00    +0.024 C 
ENDBRANCH   5  23
ENDBRANCH  13   3
ENDBRANCH   7  13
BRANCH   9  14
ATOM     14  C   UNL     1      -3.969  -9.034  10.555  0.00  0.00    +0.103 C 
BRANCH  14  18
ATOM      1  O   UNL     1      -4.804  -9.486   8.354  0.00  0.00    -0.276 OA
ATOM      4  N   UNL     1      -6.373  -9.298  10.051  0.00  0.00    -0.300 N 
ATOM     18  C   UNL     1      -5.070  -9.294   9.543  0.00  0.00    +0.216 C 
ATOM     21  C   UNL     1      -6.663  -9.069  11.461  0.00  0.00    +0.132 C 
BRANCH   4  20
ATOM     20  C   UNL     1      -7.542  -9.534   9.207  0.00  0.00    +0.142 C 
BRANCH  20  22
ATOM     22  C   UNL     1      -8.333  -8.279   8.978  0.00  0.00    -0.030 A 
ATOM     24  C   UNL     1      -9.662  -8.206   9.397  0.00  0.00    +0.005 A 
ATOM     25  C   UNL     1      -7.740  -7.186   8.346  0.00  0.00    +0.005 A 
ATOM     27  C   UNL     1     -10.397  -7.040   9.185  0.00  0.00    +0.000 A 
ATOM     28  C   UNL     1      -8.475  -6.020   8.133  0.00  0.00    +0.000 A 
ATOM     29  C   UNL     1      -9.804  -5.947   8.553  0.00  0.00    +0.000 A 
ENDBRANCH  20  22
ENDBRANCH   4  20
ENDBRANCH  14  18
ENDBRANCH   9  14
TORSDOF 8
ENDMDL
MODEL 5
REMARK VINA RESULT:      -6.2      1.495      2.214
REMARK  Name = 38027141
REMARK  13 active torsions:
REMARK  status: ('A' for Active; 'I' for Inactive)
REMARK    1  A    between atoms: N_3  and  C_13
REMARK    2  A    between atoms: N_4  and  C_20
REMARK    3  A    between atoms: N_4  and  C_21
REMARK    4  A    between atoms: N_5  and  C_23
REMARK    5  A    between atoms: C_6  and  C_10
REMARK    6  A    between atoms: C_7  and  C_13
REMARK    7  A    between atoms: C_9  and  C_14
REMARK    8  A    between atoms: C_10  and  C_15
REMARK    9  A    between atoms: C_10  and  C_16
REMARK   10  A    between atoms: C_11  and  C_17
REMARK   11  A    between atoms: C_14  and  C_18
REMARK   12  A    between atoms: C_20  and  C_22
REMARK   13  A    between atoms: C_23  and  C_26
REMARK                            x       y       z     vdW  Elec       q    Type
REMARK                         _______ _______ _______ _____ _____    ______ ____
ROOT
ATOM      6  C   UNL     1      20.349   5.959  21.823  0.00  0.00    +0.000 C 
ATOM      7  C   UNL     1      20.750   7.247  22.583  0.00  0.00    +0.032 C 
ATOM      8  C   UNL     1      19.674   6.311  20.488  0.00  0.00    +0.012 C 
ATOM      9  C   UNL     1      18.414   7.175  20.682  0.00  0.00    +0.023 C 
ATOM     11  C   UNL     1      18.661   8.323  21.640  0.00  0.00    -0.073 C 
ATOM     12  C   UNL     1      19.717   8.344  22.472  0.00  0.00    -0.022 C 
ATOM     17  C   UNL     1      17.689   9.470  21.587  0.00  0.00    +0.039 C 
ENDROOT
BRANCH   6  10
ATOM     10  C   UNL     1      21.555   5.049  21.570  0.00  0.00    -0.013 C 
ATOM     15  C   UNL     1      21.098   3.699  21.024  0.00  0.00    +0.007 C 
ATOM     16  C   UNL     1      22.533   5.716  20.609  0.00  0.00    +0.007 C 
ENDBRANCH   6  10
BRANCH   7  13
ATOM     13  C   UNL     1      21.027   6.954  24.062  0.00  0.00    +0.113 C 
BRANCH  13   3
ATOM      2  O   UNL     1      21.602   7.822  26.753  0.00  0.00    -0.253 OA
ATOM      3  N   UNL     1      20.198   7.760  24.902  0.00  0.00    -0.299 N 
ATOM      5  N   UNL     1      19.560   8.923  26.797  0.00  0.00    -0.300 N 
ATOM     19  C   UNL     1      20.548   8.141  26.204  0.00  0.00    +0.300 C 
ATOM     30  H   UNL     1      19.335   8.133  24.518  0.00  0.00    +0.150 HD
ATOM     31  H   UNL     1      18.715   9.123  26.271  0.00  0.00    +0.150 HD
BRANCH   5  23
ATOM     23  C   UNL     1      19.675   9.446  28.137  0.00  0.00    +0.102 C 
ATOM     26  C   UNL     1      18.681  10.562  28.385  0.00  0.00    +0.024 C 
ENDBRANCH   5  23
ENDBRANCH  13   3
ENDBRANCH   7  13
BRANCH   9  14
ATOM     14  C   UNL     1      17.226   6.323  21.143  0.00  0.00    +0.103 C 
BRANCH  14  18
ATOM      1  O   UNL     1      16.189   5.943  19.015  0.00  0.00    -0.276 OA
ATOM      4  N   UNL     1      14.884   6.937  20.653  0.00  0.00    -0.300 N 
ATOM     18  C   UNL     1      16.067   6.375  20.163  0.00  0.00    +0.216 C 
ATOM     21  C   UNL     1      14.763   7.441  22.015  0.00  0.00    +0.132 C 
BRANCH   4  20
ATOM     20  C   UNL     1      13.678   7.059  19.837  0.00  0.00    +0.142 C 
BRANCH  20  22
ATOM     22  C   UNL     1      12.537   7.658  20.605  0.00  0.00    -0.030 A 
ATOM     24  C   UNL     1      11.644   6.831  21.286  0.00  0.00    +0.005 A 
ATOM     25  C   UNL     1      12.368   9.043  20.639  0.00  0.00    +0.005 A 
ATOM     27  C   UNL     1      10.583   7.386  22.001  0.00  0.00    +0.000 A 
ATOM     28  C   UNL     1      11.307   9.599  21.352  0.00  0.00    +0.000 A 
ATOM     29  C   UNL     1      10.414   8.771  22.034  0.00  0.00    +0.000 A 
ENDBRANCH  20  22
ENDBRANCH   4  20
ENDBRANCH  14  18
ENDBRANCH   9  14
TORSDOF 8
ENDMDL
MODEL 6
REMARK VINA RESULT:      -6.2     29.351     31.159
REMARK  Name = 38027141
REMARK  13 active torsions:
REMARK  status: ('A' for Active; 'I' for Inactive)
REMARK    1  A    between atoms: N_3  and  C_13
REMARK    2  A    between atoms: N_4  and  C_20
REMARK    3  A    between atoms: N_4  and  C_21
REMARK    4  A    between atoms: N_5  and  C_23
REMARK    5  A    between atoms: C_6  and  C_10
REMARK    6  A    between atoms: C_7  and  C_13
REMARK    7  A    between atoms: C_9  and  C_14
REMARK    8  A    between atoms: C_10  and  C_15
REMARK    9  A    between atoms: C_10  and  C_16
REMARK   10  A    between atoms: C_11  and  C_17
REMARK   11  A    between atoms: C_14  and  C_18
REMARK   12  A    between atoms: C_20  and  C_22
REMARK   13  A    between atoms: C_23  and  C_26
REMARK                            x       y       z     vdW  Elec       q    Type
REMARK                         _______ _______ _______ _____ _____    ______ ____
ROOT
ATOM      6  C   UNL     1     -13.003   8.549  20.554  0.00  0.00    +0.000 C 
ATOM      7  C   UNL     1     -13.531   8.441  22.005  0.00  0.00    +0.032 C 
ATOM      8  C   UNL     1     -11.838   9.549  20.480  0.00  0.00    +0.012 C 
ATOM      9  C   UNL     1     -12.247  10.955  20.957  0.00  0.00    +0.023 C 
ATOM     11  C   UNL     1     -13.016  10.906  22.261  0.00  0.00    -0.073 C 
ATOM     12  C   UNL     1     -13.572   9.771  22.721  0.00  0.00    -0.022 C 
ATOM     17  C   UNL     1     -13.094  12.184  23.050  0.00  0.00    +0.039 C 
ENDROOT
BRANCH   6  10
ATOM     10  C   UNL     1     -12.554   7.189  20.009  0.00  0.00    -0.013 C 
ATOM     15  C   UNL     1     -11.553   7.375  18.872  0.00  0.00    +0.007 C 
ATOM     16  C   UNL     1     -11.951   6.342  21.125  0.00  0.00    +0.007 C 
ENDBRANCH   6  10
BRANCH   7  13
ATOM     13  C   UNL     1     -14.924   7.799  22.041  0.00  0.00    +0.113 C 
BRANCH  13   3
ATOM      2  O   UNL     1     -15.140   4.922  22.074  0.00  0.00    -0.253 OA
ATOM      3  N   UNL     1     -15.065   6.960  23.189  0.00  0.00    -0.299 N 
ATOM      5  N   UNL     1     -15.295   4.995  24.388  0.00  0.00    -0.300 N 
ATOM     19  C   UNL     1     -15.165   5.564  23.124  0.00  0.00    +0.300 C 
ATOM     30  H   UNL     1     -15.028   7.387  24.109  0.00  0.00    +0.150 HD
ATOM     31  H   UNL     1     -15.321   5.607  25.198  0.00  0.00    +0.150 HD
BRANCH   5  23
ATOM     23  C   UNL     1     -15.416   3.572  24.598  0.00  0.00    +0.102 C 
ATOM     26  C   UNL     1     -16.118   3.261  25.904  0.00  0.00    +0.024 C 
ENDBRANCH   5  23
ENDBRANCH  13   3
ENDBRANCH   7  13
BRANCH   9  14
ATOM     14  C   UNL     1     -13.046  11.693  19.876  0.00  0.00    +0.103 C 
BRANCH  14  18
ATOM      1  O   UNL     1     -11.126  12.613  18.776  0.00  0.00    -0.276 OA
ATOM      4  N   UNL     1     -12.723  11.607  17.429  0.00  0.00    -0.300 N 
ATOM     18  C   UNL     1     -12.201  12.020  18.659  0.00  0.00    +0.216 C 
ATOM     21  C   UNL     1     -13.996  10.907  17.315  0.00  0.00    +0.132 C 
BRANCH   4  20
ATOM     20  C   UNL     1     -12.030  11.845  16.164  0.00  0.00    +0.142 C 
BRANCH  20  22
ATOM     22  C   UNL     1     -11.618  10.565  15.499  0.00  0.00    -0.030 A 
ATOM     24  C   UNL     1     -12.036  10.290  14.196  0.00  0.00    +0.005 A 
ATOM     25  C   UNL     1     -10.817   9.649  16.181  0.00  0.00    +0.005 A 
ATOM     27  C   UNL     1     -11.653   9.101  13.576  0.00  0.00    +0.000 A 
ATOM     28  C   UNL     1     -10.434   8.460  15.562  0.00  0.00    +0.000 A 
ATOM     29  C   UNL     1     -10.852   8.185  14.259  0.00  0.00    +0.000 A 
ENDBRANCH  20  22
ENDBRANCH   4  20
ENDBRANCH  14  18
ENDBRANCH   9  14
TORSDOF 8
ENDMDL
MODEL 7
REMARK VINA RESULT:      -6.1     15.507     19.275
REMARK  Name = 38027141
REMARK  13 active torsions:
REMARK  status: ('A' for Active; 'I' for Inactive)
REMARK    1  A    between atoms: N_3  and  C_13
REMARK    2  A    between atoms: N_4  and  C_20
REMARK    3  A    between atoms: N_4  and  C_21
REMARK    4  A    between atoms: N_5  and  C_23
REMARK    5  A    between atoms: C_6  and  C_10
REMARK    6  A    between atoms: C_7  and  C_13
REMARK    7  A    between atoms: C_9  and  C_14
REMARK    8  A    between atoms: C_10  and  C_15
REMARK    9  A    between atoms: C_10  and  C_16
REMARK   10  A    between atoms: C_11  and  C_17
REMARK   11  A    between atoms: C_14  and  C_18
REMARK   12  A    between atoms: C_20  and  C_22
REMARK   13  A    between atoms: C_23  and  C_26
REMARK                            x       y       z     vdW  Elec       q    Type
REMARK                         _______ _______ _______ _____ _____    ______ ____
ROOT
ATOM      6  C   UNL     1      10.859   6.676   6.316  0.00  0.00    +0.000 C 
ATOM      7  C   UNL     1      10.260   6.735   4.889  0.00  0.00    +0.032 C 
ATOM      8  C   UNL     1      11.375   8.060   6.739  0.00  0.00    +0.012 C 
ATOM      9  C   UNL     1      12.454   8.598   5.779  0.00  0.00    +0.023 C 
ATOM     11  C   UNL     1      12.044   8.442   4.329  0.00  0.00    -0.073 C 
ATOM     12  C   UNL     1      11.053   7.615   3.952  0.00  0.00    -0.022 C 
ATOM     17  C   UNL     1      12.771   9.293   3.325  0.00  0.00    +0.039 C 
ENDROOT
BRANCH   6  10
ATOM     10  C   UNL     1       9.839   6.169   7.340  0.00  0.00    -0.013 C 
ATOM     15  C   UNL     1      10.551   5.543   8.536  0.00  0.00    +0.007 C 
ATOM     16  C   UNL     1       8.925   7.304   7.790  0.00  0.00    +0.007 C 
ENDBRANCH   6  10
BRANCH   7  13
ATOM     13  C   UNL     1      10.129   5.332   4.285  0.00  0.00    +0.113 C 
BRANCH  13   3
ATOM      2  O   UNL     1      10.503   3.885   1.818  0.00  0.00    -0.253 OA
ATOM      3  N   UNL     1      11.369   4.908   3.716  0.00  0.00    -0.299 N 
ATOM      5  N   UNL     1      12.793   3.918   2.186  0.00  0.00    -0.300 N 
ATOM     19  C   UNL     1      11.470   4.206   2.507  0.00  0.00    +0.300 C 
ATOM     30  H   UNL     1      12.232   5.184   4.174  0.00  0.00    +0.150 HD
ATOM     31  H   UNL     1      13.525   4.210   2.825  0.00  0.00    +0.150 HD
BRANCH   5  23
ATOM     23  C   UNL     1      13.171   3.201   0.991  0.00  0.00    +0.102 C 
ATOM     26  C   UNL     1      13.355   4.138  -0.184  0.00  0.00    +0.024 C 
ENDBRANCH   5  23
ENDBRANCH  13   3
ENDBRANCH   7  13
BRANCH   9  14
ATOM     14  C   UNL     1      13.808   7.930   6.042  0.00  0.00    +0.103 C 
BRANCH  14  18
ATOM      1  O   UNL     1      15.071   9.917   6.489  0.00  0.00    -0.276 OA
ATOM      4  N   UNL     1      15.891   8.505   4.844  0.00  0.00    -0.300 N 
ATOM     18  C   UNL     1      14.970   8.882   5.826  0.00  0.00    +0.216 C 
ATOM     21  C   UNL     1      15.750   7.276   4.072  0.00  0.00    +0.132 C 
BRANCH   4  20
ATOM     20  C   UNL     1      17.064   9.312   4.517  0.00  0.00    +0.142 C 
BRANCH  20  22
ATOM     22  C   UNL     1      18.328   8.715   5.063  0.00  0.00    -0.030 A 
ATOM     24  C   UNL     1      18.692   8.948   6.390  0.00  0.00    +0.005 A 
ATOM     25  C   UNL     1      19.138   7.927   4.246  0.00  0.00    +0.005 A 
ATOM     27  C   UNL     1      19.866   8.393   6.899  0.00  0.00    +0.000 A 
ATOM     28  C   UNL     1      20.312   7.373   4.754  0.00  0.00    +0.000 A 
ATOM     29  C   UNL     1      20.677   7.606   6.081  0.00  0.00    +0.000 A 
ENDBRANCH  20  22
ENDBRANCH   4  20
ENDBRANCH  14  18
ENDBRANCH   9  14
TORSDOF 8
ENDMDL
MODEL 8
REMARK VINA RESULT:      -6.1     28.610     31.754
REMARK  Name = 38027141
REMARK  13 active torsions:
REMARK  status: ('A' for Active; 'I' for Inactive)
REMARK    1  A    between atoms: N_3  and  C_13
REMARK    2  A    between atoms: N_4  and  C_20
REMARK    3  A    between atoms: N_4  and  C_21
REMARK    4  A    between atoms: N_5  and  C_23
REMARK    5  A    between atoms: C_6  and  C_10
REMARK    6  A    between atoms: C_7  and  C_13
REMARK    7  A    between atoms: C_9  and  C_14
REMARK    8  A    between atoms: C_10  and  C_15
REMARK    9  A    between atoms: C_10  and  C_16
REMARK   10  A    between atoms: C_11  and  C_17
REMARK   11  A    between atoms: C_14  and  C_18
REMARK   12  A    between atoms: C_20  and  C_22
REMARK   13  A    between atoms: C_23  and  C_26
REMARK                            x       y       z     vdW  Elec       q    Type
REMARK                         _______ _______ _______ _____ _____    ______ ____
ROOT
ATOM      6  C   UNL     1      -7.252 -11.970  17.104  0.00  0.00    +0.000 C 
ATOM      7  C   UNL     1      -7.370 -11.777  18.636  0.00  0.00    +0.032 C 
ATOM      8  C   UNL     1      -6.190 -13.031  16.777  0.00  0.00    +0.012 C 
ATOM      9  C   UNL     1      -4.802 -12.656  17.329  0.00  0.00    +0.023 C 
ATOM     11  C   UNL     1      -4.876 -12.194  18.771  0.00  0.00    -0.073 C 
ATOM     12  C   UNL     1      -6.034 -11.818  19.341  0.00  0.00    -0.022 C 
ATOM     17  C   UNL     1      -3.594 -12.217  19.556  0.00  0.00    +0.039 C 
ENDROOT
BRANCH   6  10
ATOM     10  C   UNL     1      -8.592 -12.366  16.476  0.00  0.00    -0.013 C 
ATOM     15  C   UNL     1      -8.409 -12.704  14.999  0.00  0.00    +0.007 C 
ATOM     16  C   UNL     1      -9.203 -13.545  17.227  0.00  0.00    +0.007 C 
ENDBRANCH   6  10
BRANCH   7  13
ATOM     13  C   UNL     1      -8.087 -10.465  18.976  0.00  0.00    +0.113 C 
BRANCH  13   3
ATOM      2  O   UNL     1     -10.909 -10.475  18.376  0.00  0.00    -0.253 OA
ATOM      3  N   UNL     1      -9.161 -10.697  19.890  0.00  0.00    -0.299 N 
ATOM      5  N   UNL     1     -11.346 -10.940  20.607  0.00  0.00    -0.300 N 
ATOM     19  C   UNL     1     -10.512 -10.685  19.522  0.00  0.00    +0.300 C 
ATOM     30  H   UNL     1      -8.936 -10.948  20.848  0.00  0.00    +0.150 HD
ATOM     31  H   UNL     1     -10.928 -11.087  21.520  0.00  0.00    +0.150 HD
BRANCH   5  23
ATOM     23  C   UNL     1     -12.785 -10.983  20.496  0.00  0.00    +0.102 C 
ATOM     26  C   UNL     1     -13.400  -9.617  20.723  0.00  0.00    +0.024 C 
ENDBRANCH   5  23
ENDBRANCH  13   3
ENDBRANCH   7  13
BRANCH   9  14
ATOM     14  C   UNL     1      -4.125 -11.600  16.449  0.00  0.00    +0.103 C 
BRANCH  14  18
ATOM      1  O   UNL     1      -3.117 -13.048  14.825  0.00  0.00    -0.276 OA
ATOM      4  N   UNL     1      -4.564 -11.423  14.024  0.00  0.00    -0.300 N 
ATOM     18  C   UNL     1      -3.878 -12.101  15.037  0.00  0.00    +0.216 C 
ATOM     21  C   UNL     1      -5.459 -10.305  14.299  0.00  0.00    +0.132 C 
BRANCH   4  20
ATOM     20  C   UNL     1      -4.435 -11.783  12.614  0.00  0.00    +0.142 C 
BRANCH  20  22
ATOM     22  C   UNL     1      -3.582 -10.807  11.859  0.00  0.00    -0.030 A 
ATOM     24  C   UNL     1      -4.133 -10.061  10.816  0.00  0.00    +0.005 A 
ATOM     25  C   UNL     1      -2.239 -10.643  12.199  0.00  0.00    +0.005 A 
ATOM     27  C   UNL     1      -3.341  -9.152  10.114  0.00  0.00    +0.000 A 
ATOM     28  C   UNL     1      -1.447  -9.736  11.497  0.00  0.00    +0.000 A 
ATOM     29  C   UNL     1      -1.997  -8.990  10.454  0.00  0.00    +0.000 A 
ENDBRANCH  20  22
ENDBRANCH   4  20
ENDBRANCH  14  18
ENDBRANCH   9  14
TORSDOF 8
ENDMDL
MODEL 9
REMARK VINA RESULT:      -6.1     27.596     30.829
REMARK  Name = 38027141
REMARK  13 active torsions:
REMARK  status: ('A' for Active; 'I' for Inactive)
REMARK    1  A    between atoms: N_3  and  C_13
REMARK    2  A    between atoms: N_4  and  C_20
REMARK    3  A    between atoms: N_4  and  C_21
REMARK    4  A    between atoms: N_5  and  C_23
REMARK    5  A    between atoms: C_6  and  C_10
REMARK    6  A    between atoms: C_7  and  C_13
REMARK    7  A    between atoms: C_9  and  C_14
REMARK    8  A    between atoms: C_10  and  C_15
REMARK    9  A    between atoms: C_10  and  C_16
REMARK   10  A    between atoms: C_11  and  C_17
REMARK   11  A    between atoms: C_14  and  C_18
REMARK   12  A    between atoms: C_20  and  C_22
REMARK   13  A    between atoms: C_23  and  C_26
REMARK                            x       y       z     vdW  Elec       q    Type
REMARK                         _______ _______ _______ _____ _____    ______ ____
ROOT
ATOM      6  C   UNL     1      -4.933 -12.390  16.050  0.00  0.00    +0.000 C 
ATOM      7  C   UNL     1      -4.164 -11.840  17.276  0.00  0.00    +0.032 C 
ATOM      8  C   UNL     1      -3.954 -12.769  14.928  0.00  0.00    +0.012 C 
ATOM      9  C   UNL     1      -3.101 -11.571  14.470  0.00  0.00    +0.023 C 
ATOM     11  C   UNL     1      -2.522 -10.811  15.646  0.00  0.00    -0.073 C 
ATOM     12  C   UNL     1      -3.001 -10.954  16.895  0.00  0.00    -0.022 C 
ATOM     17  C   UNL     1      -1.347  -9.916  15.362  0.00  0.00    +0.039 C 
ENDROOT
BRANCH   6  10
ATOM     10  C   UNL     1      -5.795 -13.602  16.417  0.00  0.00    -0.013 C 
ATOM     15  C   UNL     1      -6.962 -13.740  15.443  0.00  0.00    +0.007 C 
ATOM     16  C   UNL     1      -4.950 -14.872  16.430  0.00  0.00    +0.007 C 
ENDBRANCH   6  10
BRANCH   7  13
ATOM     13  C   UNL     1      -5.100 -11.076  18.220  0.00  0.00    +0.113 C 
BRANCH  13   3
ATOM      2  O   UNL     1      -7.956 -11.011  17.815  0.00  0.00    -0.253 OA
ATOM      3  N   UNL     1      -5.845 -10.089  17.504  0.00  0.00    -0.299 N 
ATOM      5  N   UNL     1      -7.705  -9.044  16.611  0.00  0.00    -0.300 N 
ATOM     19  C   UNL     1      -7.238 -10.126  17.350  0.00  0.00    +0.300 C 
ATOM     30  H   UNL     1      -5.353  -9.279  17.140  0.00  0.00    +0.150 HD
ATOM     31  H   UNL     1      -7.035  -8.370  16.255  0.00  0.00    +0.150 HD
BRANCH   5  23
ATOM     23  C   UNL     1      -9.103  -8.847  16.308  0.00  0.00    +0.102 C 
ATOM     26  C   UNL     1      -9.775  -7.963  17.338  0.00  0.00    +0.024 C 
ENDBRANCH   5  23
ENDBRANCH  13   3
ENDBRANCH   7  13
BRANCH   9  14
ATOM     14  C   UNL     1      -3.904 -10.638  13.556  0.00  0.00    +0.103 C 
BRANCH  14  18
ATOM      1  O   UNL     1      -2.159 -10.973  11.947  0.00  0.00    -0.276 OA
ATOM      4  N   UNL     1      -4.017  -9.779  11.243  0.00  0.00    -0.300 N 
ATOM     18  C   UNL     1      -3.268 -10.489  12.187  0.00  0.00    +0.216 C 
ATOM     21  C   UNL     1      -5.327  -9.216  11.549  0.00  0.00    +0.132 C 
BRANCH   4  20
ATOM     20  C   UNL     1      -3.545  -9.549   9.879  0.00  0.00    +0.142 C 
BRANCH  20  22
ATOM     22  C   UNL     1      -4.309 -10.363   8.875  0.00  0.00    -0.030 A 
ATOM     24  C   UNL     1      -4.278 -11.756   8.939  0.00  0.00    +0.005 A 
ATOM     25  C   UNL     1      -5.050  -9.727   7.879  0.00  0.00    +0.005 A 
ATOM     27  C   UNL     1      -4.987 -12.513   8.006  0.00  0.00    +0.000 A 
ATOM     28  C   UNL     1      -5.758 -10.483   6.947  0.00  0.00    +0.000 A 
ATOM     29  C   UNL     1      -5.728 -11.876   7.010  0.00  0.00    +0.000 A 
ENDBRANCH  20  22
ENDBRANCH   4  20
ENDBRANCH  14  18
ENDBRANCH   9  14
TORSDOF 8
ENDMDL
MODEL 10
REMARK VINA RESULT:      -6.0     27.965     31.223
REMARK  Name = 38027141
REMARK  13 active torsions:
REMARK  status: ('A' for Active; 'I' for Inactive)
REMARK    1  A    between atoms: N_3  and  C_13
REMARK    2  A    between atoms: N_4  and  C_20
REMARK    3  A    between atoms: N_4  and  C_21
REMARK    4  A    between atoms: N_5  and  C_23
REMARK    5  A    between atoms: C_6  and  C_10
REMARK    6  A    between atoms: C_7  and  C_13
REMARK    7  A    between atoms: C_9  and  C_14
REMARK    8  A    between atoms: C_10  and  C_15
REMARK    9  A    between atoms: C_10  and  C_16
REMARK   10  A    between atoms: C_11  and  C_17
REMARK   11  A    between atoms: C_14  and  C_18
REMARK   12  A    between atoms: C_20  and  C_22
REMARK   13  A    between atoms: C_23  and  C_26
REMARK                            x       y       z     vdW  Elec       q    Type
REMARK                         _______ _______ _______ _____ _____    ______ ____
ROOT
ATOM      6  C   UNL     1      -5.050 -10.985  13.767  0.00  0.00    +0.000 C 
ATOM      7  C   UNL     1      -3.684 -10.915  13.041  0.00  0.00    +0.032 C 
ATOM      8  C   UNL     1      -5.044 -10.081  15.009  0.00  0.00    +0.012 C 
ATOM      9  C   UNL     1      -3.940 -10.471  16.009  0.00  0.00    +0.023 C 
ATOM     11  C   UNL     1      -2.607 -10.684  15.320  0.00  0.00    -0.073 C 
ATOM     12  C   UNL     1      -2.511 -10.868  13.991  0.00  0.00    -0.022 C 
ATOM     17  C   UNL     1      -1.380 -10.637  16.189  0.00  0.00    +0.039 C 
ENDROOT
BRANCH   6  10
ATOM     10  C   UNL     1      -6.206 -10.589  12.843  0.00  0.00    -0.013 C 
ATOM     15  C   UNL     1      -7.510 -10.499  13.630  0.00  0.00    +0.007 C 
ATOM     16  C   UNL     1      -5.903  -9.266  12.148  0.00  0.00    +0.007 C 
ENDBRANCH   6  10
BRANCH   7  13
ATOM     13  C   UNL     1      -3.510 -12.091  12.073  0.00  0.00    +0.113 C 
BRANCH  13   3
ATOM      2  O   UNL     1      -3.281 -14.955  12.343  0.00  0.00    -0.253 OA
ATOM      3  N   UNL     1      -2.330 -12.835  12.387  0.00  0.00    -0.299 N 
ATOM      5  N   UNL     1      -1.024 -14.696  12.814  0.00  0.00    -0.300 N 
ATOM     19  C   UNL     1      -2.299 -14.231  12.501  0.00  0.00    +0.300 C 
ATOM     30  H   UNL     1      -1.450 -12.336  12.469  0.00  0.00    +0.150 HD
ATOM     31  H   UNL     1      -0.277 -14.021  12.940  0.00  0.00    +0.150 HD
BRANCH   5  23
ATOM     23  C   UNL     1      -0.722 -16.097  12.987  0.00  0.00    +0.102 C 
ATOM     26  C   UNL     1      -1.017 -16.557  14.400  0.00  0.00    +0.024 C 
ENDBRANCH   5  23
ENDBRANCH  13   3
ENDBRANCH   7  13
BRANCH   9  14
ATOM     14  C   UNL     1      -4.342 -11.709  16.820  0.00  0.00    +0.103 C 
BRANCH  14  18
ATOM      1  O   UNL     1      -5.018 -10.671  18.873  0.00  0.00    -0.276 OA
ATOM      4  N   UNL     1      -6.618 -11.924  17.756  0.00  0.00    -0.300 N 
ATOM     18  C   UNL     1      -5.340 -11.378  17.915  0.00  0.00    +0.216 C 
ATOM     21  C   UNL     1      -6.976 -12.757  16.615  0.00  0.00    +0.132 C 
BRANCH   4  20
ATOM     20  C   UNL     1      -7.691 -11.698  18.721  0.00  0.00    +0.142 C 
BRANCH  20  22
ATOM     22  C   UNL     1      -8.604 -10.584  18.299  0.00  0.00    -0.030 A 
ATOM     24  C   UNL     1      -9.934 -10.575  18.720  0.00  0.00    +0.005 A 
ATOM     25  C   UNL     1      -8.123  -9.557  17.487  0.00  0.00    +0.005 A 
ATOM     27  C   UNL     1     -10.783  -9.540  18.328  0.00  0.00    +0.000 A 
ATOM     28  C   UNL     1      -8.971  -8.522  17.094  0.00  0.00    +0.000 A 
ATOM     29  C   UNL     1     -10.301  -8.513  17.515  0.00  0.00    +0.000 A 
ENDBRANCH  20  22
ENDBRANCH   4  20
ENDBRANCH  14  18
ENDBRANCH   9  14
TORSDOF 8
ENDMDL
