MODEL 1
REMARK VINA RESULT:      -6.5      0.000      0.000
REMARK  Name = 28960638
REMARK  6 active torsions:
REMARK  status: ('A' for Active; 'I' for Inactive)
REMARK    1  A    between atoms: O_1  and  C_9
REMARK    2  A    between atoms: N_3  and  C_11
REMARK    3  A    between atoms: C_7  and  C_12
REMARK    4  A    between atoms: C_11  and  C_13
REMARK    5  A    between atoms: C_11  and  C_14
REMARK    6  A    between atoms: C_15  and  C_16
REMARK                            x       y       z     vdW  Elec       q    Type
REMARK                         _______ _______ _______ _____ _____    ______ ____
ROOT
ATOM      2  O   UNL     1      14.893   8.784  20.207  0.00  0.00    -0.336 OA
ATOM      4  N   UNL     1      15.499   6.630  20.107  0.00  0.00    -0.190 NA
ATOM      5  N   UNL     1      16.258   8.749  20.518  0.00  0.00    -0.056 NA
ATOM     12  C   UNL     1      14.526   7.496  19.979  0.00  0.00    +0.245 A 
ATOM     15  C   UNL     1      16.542   7.445  20.438  0.00  0.00    +0.204 A 
ENDROOT
BRANCH  15  16
ATOM      6  N   UNL     1      19.921   7.044  21.935  0.00  0.00    -0.263 NA
ATOM     16  C   UNL     1      17.855   6.925  20.685  0.00  0.00    +0.041 A 
ATOM     17  C   UNL     1      18.346   5.842  19.964  0.00  0.00    +0.014 A 
ATOM     18  C   UNL     1      18.675   7.485  21.651  0.00  0.00    +0.122 A 
ATOM     19  C   UNL     1      19.623   5.359  20.226  0.00  0.00    +0.020 A 
ATOM     20  C   UNL     1      20.365   5.990  21.213  0.00  0.00    +0.111 A 
ENDBRANCH  15  16
BRANCH  12   7
ATOM      3  N   UNL     1      12.164   8.227  20.268  0.00  0.00    -0.286 NA
ATOM      7  C   UNL     1      13.073   7.262  19.617  0.00  0.00    +0.149 C 
ATOM      8  C   UNL     1      12.803   7.421  18.110  0.00  0.00    +0.061 C 
ATOM      9  C   UNL     1      11.694   8.463  18.016  0.00  0.00    +0.130 C 
ATOM     10  C   UNL     1      11.020   8.386  19.372  0.00  0.00    +0.116 C 
BRANCH   3  11
ATOM     11  C   UNL     1      11.759   7.820  21.607  0.00  0.00    +0.051 C 
ATOM     13  C   UNL     1      11.237   6.387  21.591  0.00  0.00    +0.024 C 
ATOM     14  C   UNL     1      10.699   8.784  22.131  0.00  0.00    +0.024 C 
ENDBRANCH   3  11
BRANCH   9   1
ATOM      1  O   UNL     1      10.799   8.150  16.966  0.00  0.00    -0.390 OA
ATOM     21  H   UNL     1      10.775   8.914  16.364  0.00  0.00    +0.210 HD
ENDBRANCH   9   1
ENDBRANCH  12   7
TORSDOF 4
ENDMDL
MODEL 2
REMARK VINA RESULT:      -6.3      1.928      3.175
REMARK  Name = 28960638
REMARK  6 active torsions:
REMARK  status: ('A' for Active; 'I' for Inactive)
REMARK    1  A    between atoms: O_1  and  C_9
REMARK    2  A    between atoms: N_3  and  C_11
REMARK    3  A    between atoms: C_7  and  C_12
REMARK    4  A    between atoms: C_11  and  C_13
REMARK    5  A    between atoms: C_11  and  C_14
REMARK    6  A    between atoms: C_15  and  C_16
REMARK                            x       y       z     vdW  Elec       q    Type
REMARK                         _______ _______ _______ _____ _____    ______ ____
ROOT
ATOM      2  O   UNL     1      15.828   6.113  18.721  0.00  0.00    -0.336 OA
ATOM      4  N   UNL     1      16.775   7.186  20.444  0.00  0.00    -0.190 NA
ATOM      5  N   UNL     1      17.121   5.588  18.844  0.00  0.00    -0.056 NA
ATOM     12  C   UNL     1      15.707   7.046  19.700  0.00  0.00    +0.245 A 
ATOM     15  C   UNL     1      17.615   6.271  19.882  0.00  0.00    +0.204 A 
ENDROOT
BRANCH  15  16
ATOM      6  N   UNL     1      20.912   4.663  20.490  0.00  0.00    -0.263 NA
ATOM     16  C   UNL     1      18.945   6.064  20.379  0.00  0.00    +0.041 A 
ATOM     17  C   UNL     1      19.560   7.005  21.197  0.00  0.00    +0.014 A 
ATOM     18  C   UNL     1      19.658   4.920  20.057  0.00  0.00    +0.122 A 
ATOM     19  C   UNL     1      20.850   6.777  21.662  0.00  0.00    +0.020 A 
ATOM     20  C   UNL     1      21.478   5.601  21.284  0.00  0.00    +0.111 A 
ENDBRANCH  15  16
BRANCH  12   7
ATOM      3  N   UNL     1      13.676   7.812  18.483  0.00  0.00    -0.286 NA
ATOM      7  C   UNL     1      14.378   7.770  19.781  0.00  0.00    +0.149 C 
ATOM      8  C   UNL     1      13.387   7.089  20.743  0.00  0.00    +0.061 C 
ATOM      9  C   UNL     1      12.141   6.829  19.906  0.00  0.00    +0.130 C 
ATOM     10  C   UNL     1      12.246   7.848  18.787  0.00  0.00    +0.116 C 
BRANCH   3  11
ATOM     11  C   UNL     1      14.085   8.932  17.644  0.00  0.00    +0.051 C 
ATOM     13  C   UNL     1      13.199  10.145  17.911  0.00  0.00    +0.024 C 
ATOM     14  C   UNL     1      14.020   8.518  16.178  0.00  0.00    +0.024 C 
ENDBRANCH   3  11
BRANCH   9   1
ATOM      1  O   UNL     1      10.970   7.017  20.677  0.00  0.00    -0.390 OA
ATOM     21  H   UNL     1      10.512   7.801  20.328  0.00  0.00    +0.210 HD
ENDBRANCH   9   1
ENDBRANCH  12   7
TORSDOF 4
ENDMDL
MODEL 3
REMARK VINA RESULT:      -6.2      1.750      2.546
REMARK  Name = 28960638
REMARK  6 active torsions:
REMARK  status: ('A' for Active; 'I' for Inactive)
REMARK    1  A    between atoms: O_1  and  C_9
REMARK    2  A    between atoms: N_3  and  C_11
REMARK    3  A    between atoms: C_7  and  C_12
REMARK    4  A    between atoms: C_11  and  C_13
REMARK    5  A    between atoms: C_11  and  C_14
REMARK    6  A    between atoms: C_15  and  C_16
REMARK                            x       y       z     vdW  Elec       q    Type
REMARK                         _______ _______ _______ _____ _____    ______ ____
ROOT
ATOM      2  O   UNL     1      14.491   6.617  19.810  0.00  0.00    -0.336 OA
ATOM      4  N   UNL     1      15.685   7.967  21.140  0.00  0.00    -0.190 NA
ATOM      5  N   UNL     1      15.816   6.170  19.731  0.00  0.00    -0.056 NA
ATOM     12  C   UNL     1      14.503   7.677  20.660  0.00  0.00    +0.245 A 
ATOM     15  C   UNL     1      16.459   7.016  20.543  0.00  0.00    +0.204 A 
ENDROOT
BRANCH  15  16
ATOM      6  N   UNL     1      19.849   7.877  21.801  0.00  0.00    -0.263 NA
ATOM     16  C   UNL     1      17.872   6.938  20.775  0.00  0.00    +0.041 A 
ATOM     17  C   UNL     1      18.632   5.904  20.239  0.00  0.00    +0.014 A 
ATOM     18  C   UNL     1      18.523   7.891  21.543  0.00  0.00    +0.122 A 
ATOM     19  C   UNL     1      20.000   5.855  20.483  0.00  0.00    +0.020 A 
ATOM     20  C   UNL     1      20.556   6.857  21.263  0.00  0.00    +0.111 A 
ENDBRANCH  15  16
BRANCH  12   7
ATOM      3  N   UNL     1      12.389   8.556  19.681  0.00  0.00    -0.286 NA
ATOM      7  C   UNL     1      13.170   8.350  20.918  0.00  0.00    +0.149 C 
ATOM      8  C   UNL     1      12.250   7.517  21.829  0.00  0.00    +0.061 C 
ATOM      9  C   UNL     1      10.959   7.345  21.036  0.00  0.00    +0.130 C 
ATOM     10  C   UNL     1      10.980   8.512  20.068  0.00  0.00    +0.116 C 
BRANCH   3  11
ATOM     11  C   UNL     1      12.729   9.792  18.987  0.00  0.00    +0.051 C 
ATOM     13  C   UNL     1      13.801   9.530  17.933  0.00  0.00    +0.024 C 
ATOM     14  C   UNL     1      13.198  10.830  20.001  0.00  0.00    +0.024 C 
ENDBRANCH   3  11
BRANCH   9   1
ATOM      1  O   UNL     1       9.834   7.394  21.892  0.00  0.00    -0.390 OA
ATOM     21  H   UNL     1       9.054   7.576  21.340  0.00  0.00    +0.210 HD
ENDBRANCH   9   1
ENDBRANCH  12   7
TORSDOF 4
ENDMDL
MODEL 4
REMARK VINA RESULT:      -6.0      4.043      7.349
REMARK  Name = 28960638
REMARK  6 active torsions:
REMARK  status: ('A' for Active; 'I' for Inactive)
REMARK    1  A    between atoms: O_1  and  C_9
REMARK    2  A    between atoms: N_3  and  C_11
REMARK    3  A    between atoms: C_7  and  C_12
REMARK    4  A    between atoms: C_11  and  C_13
REMARK    5  A    between atoms: C_11  and  C_14
REMARK    6  A    between atoms: C_15  and  C_16
REMARK                            x       y       z     vdW  Elec       q    Type
REMARK                         _______ _______ _______ _____ _____    ______ ____
ROOT
ATOM      2  O   UNL     1      12.950   9.829  22.335  0.00  0.00    -0.336 OA
ATOM      4  N   UNL     1      10.911  10.756  22.356  0.00  0.00    -0.190 NA
ATOM      5  N   UNL     1      13.042  10.954  23.165  0.00  0.00    -0.056 NA
ATOM     12  C   UNL     1      11.663   9.786  21.901  0.00  0.00    +0.245 A 
ATOM     15  C   UNL     1      11.799  11.446  23.126  0.00  0.00    +0.204 A 
ENDROOT
BRANCH  15  16
ATOM      6  N   UNL     1      11.212  15.036  23.898  0.00  0.00    -0.263 NA
ATOM     16  C   UNL     1      11.415  12.627  23.844  0.00  0.00    +0.041 A 
ATOM     17  C   UNL     1      10.890  12.547  25.130  0.00  0.00    +0.014 A 
ATOM     18  C   UNL     1      11.554  13.884  23.279  0.00  0.00    +0.122 A 
ATOM     19  C   UNL     1      10.526  13.709  25.800  0.00  0.00    +0.020 A 
ATOM     20  C   UNL     1      10.706  14.918  25.147  0.00  0.00    +0.111 A 
ENDBRANCH  15  16
BRANCH  12   7
ATOM      3  N   UNL     1      12.472   8.110  20.247  0.00  0.00    -0.286 NA
ATOM      7  C   UNL     1      11.302   8.643  20.975  0.00  0.00    +0.149 C 
ATOM      8  C   UNL     1      10.720   7.430  21.724  0.00  0.00    +0.061 C 
ATOM      9  C   UNL     1      11.601   6.255  21.319  0.00  0.00    +0.130 C 
ATOM     10  C   UNL     1      12.194   6.697  19.995  0.00  0.00    +0.116 C 
BRANCH   3  11
ATOM     11  C   UNL     1      12.765   8.839  19.019  0.00  0.00    +0.051 C 
ATOM     13  C   UNL     1      12.482   7.962  17.804  0.00  0.00    +0.024 C 
ATOM     14  C   UNL     1      14.219   9.299  19.038  0.00  0.00    +0.024 C 
ENDBRANCH   3  11
BRANCH   9   1
ATOM      1  O   UNL     1      10.833   5.075  21.181  0.00  0.00    -0.390 OA
ATOM     21  H   UNL     1      10.198   5.052  21.918  0.00  0.00    +0.210 HD
ENDBRANCH   9   1
ENDBRANCH  12   7
TORSDOF 4
ENDMDL
MODEL 5
REMARK VINA RESULT:      -5.9      3.720      6.406
REMARK  Name = 28960638
REMARK  6 active torsions:
REMARK  status: ('A' for Active; 'I' for Inactive)
REMARK    1  A    between atoms: O_1  and  C_9
REMARK    2  A    between atoms: N_3  and  C_11
REMARK    3  A    between atoms: C_7  and  C_12
REMARK    4  A    between atoms: C_11  and  C_13
REMARK    5  A    between atoms: C_11  and  C_14
REMARK    6  A    between atoms: C_15  and  C_16
REMARK                            x       y       z     vdW  Elec       q    Type
REMARK                         _______ _______ _______ _____ _____    ______ ____
ROOT
ATOM      2  O   UNL     1      13.556   7.768  16.466  0.00  0.00    -0.336 OA
ATOM      4  N   UNL     1      14.251   9.504  17.698  0.00  0.00    -0.190 NA
ATOM      5  N   UNL     1      13.533   8.882  15.617  0.00  0.00    -0.056 NA
ATOM     12  C   UNL     1      13.990   8.222  17.671  0.00  0.00    +0.245 A 
ATOM     15  C   UNL     1      13.956   9.866  16.417  0.00  0.00    +0.204 A 
ENDROOT
BRANCH  15  16
ATOM      6  N   UNL     1      14.520  13.540  16.499  0.00  0.00    -0.263 NA
ATOM     16  C   UNL     1      14.093  11.221  15.966  0.00  0.00    +0.041 A 
ATOM     17  C   UNL     1      13.945  11.549  14.623  0.00  0.00    +0.014 A 
ATOM     18  C   UNL     1      14.377  12.244  16.856  0.00  0.00    +0.122 A 
ATOM     19  C   UNL     1      14.083  12.871  14.216  0.00  0.00    +0.020 A 
ATOM     20  C   UNL     1      14.368  13.821  15.184  0.00  0.00    +0.111 A 
ENDBRANCH  15  16
BRANCH  12   7
ATOM      3  N   UNL     1      14.842   7.703  19.951  0.00  0.00    -0.286 NA
ATOM      7  C   UNL     1      14.104   7.194  18.777  0.00  0.00    +0.149 C 
ATOM      8  C   UNL     1      12.734   6.761  19.331  0.00  0.00    +0.061 C 
ATOM      9  C   UNL     1      12.815   7.022  20.831  0.00  0.00    +0.130 C 
ATOM     10  C   UNL     1      14.304   7.000  21.115  0.00  0.00    +0.116 C 
BRANCH   3  11
ATOM     11  C   UNL     1      16.286   7.544  19.834  0.00  0.00    +0.051 C 
ATOM     13  C   UNL     1      16.622   6.190  19.218  0.00  0.00    +0.024 C 
ATOM     14  C   UNL     1      16.926   7.694  21.211  0.00  0.00    +0.024 C 
ENDBRANCH   3  11
BRANCH   9   1
ATOM      1  O   UNL     1      12.129   6.017  21.553  0.00  0.00    -0.390 OA
ATOM     21  H   UNL     1      12.330   6.145  22.496  0.00  0.00    +0.210 HD
ENDBRANCH   9   1
ENDBRANCH  12   7
TORSDOF 4
ENDMDL
MODEL 6
REMARK VINA RESULT:      -5.7     32.011     32.839
REMARK  Name = 28960638
REMARK  6 active torsions:
REMARK  status: ('A' for Active; 'I' for Inactive)
REMARK    1  A    between atoms: O_1  and  C_9
REMARK    2  A    between atoms: N_3  and  C_11
REMARK    3  A    between atoms: C_7  and  C_12
REMARK    4  A    between atoms: C_11  and  C_13
REMARK    5  A    between atoms: C_11  and  C_14
REMARK    6  A    between atoms: C_15  and  C_16
REMARK                            x       y       z     vdW  Elec       q    Type
REMARK                         _______ _______ _______ _____ _____    ______ ____
ROOT
ATOM      2  O   UNL     1     -15.877   0.917  29.830  0.00  0.00    -0.336 OA
ATOM      4  N   UNL     1     -15.334   2.772  28.697  0.00  0.00    -0.190 NA
ATOM      5  N   UNL     1     -16.410   0.759  28.544  0.00  0.00    -0.056 NA
ATOM     12  C   UNL     1     -15.260   2.128  29.834  0.00  0.00    +0.245 A 
ATOM     15  C   UNL     1     -16.047   1.893  27.936  0.00  0.00    +0.204 A 
ENDROOT
BRANCH  15  16
ATOM      6  N   UNL     1     -17.176   1.382  24.431  0.00  0.00    -0.263 NA
ATOM     16  C   UNL     1     -16.384   2.179  26.571  0.00  0.00    +0.041 A 
ATOM     17  C   UNL     1     -16.264   3.465  26.057  0.00  0.00    +0.014 A 
ATOM     18  C   UNL     1     -16.841   1.182  25.725  0.00  0.00    +0.122 A 
ATOM     19  C   UNL     1     -16.600   3.711  24.730  0.00  0.00    +0.020 A 
ATOM     20  C   UNL     1     -17.046   2.646  23.965  0.00  0.00    +0.111 A 
ENDBRANCH  15  16
BRANCH  12   7
ATOM      3  N   UNL     1     -15.346   3.592  31.846  0.00  0.00    -0.286 NA
ATOM      7  C   UNL     1     -14.594   2.541  31.131  0.00  0.00    +0.149 C 
ATOM      8  C   UNL     1     -14.483   1.382  32.138  0.00  0.00    +0.061 C 
ATOM      9  C   UNL     1     -15.161   1.893  33.404  0.00  0.00    +0.130 C 
ATOM     10  C   UNL     1     -15.072   3.401  33.269  0.00  0.00    +0.116 C 
BRANCH   3  11
ATOM     11  C   UNL     1     -15.015   4.939  31.400  0.00  0.00    +0.051 C 
ATOM     13  C   UNL     1     -14.302   5.704  32.511  0.00  0.00    +0.024 C 
ATOM     14  C   UNL     1     -16.289   5.659  30.969  0.00  0.00    +0.024 C 
ENDBRANCH   3  11
BRANCH   9   1
ATOM      1  O   UNL     1     -14.486   1.429  34.557  0.00  0.00    -0.390 OA
ATOM     21  H   UNL     1     -15.122   0.910  35.079  0.00  0.00    +0.210 HD
ENDBRANCH   9   1
ENDBRANCH  12   7
TORSDOF 4
ENDMDL
MODEL 7
REMARK VINA RESULT:      -5.6      4.196      6.476
REMARK  Name = 28960638
REMARK  6 active torsions:
REMARK  status: ('A' for Active; 'I' for Inactive)
REMARK    1  A    between atoms: O_1  and  C_9
REMARK    2  A    between atoms: N_3  and  C_11
REMARK    3  A    between atoms: C_7  and  C_12
REMARK    4  A    between atoms: C_11  and  C_13
REMARK    5  A    between atoms: C_11  and  C_14
REMARK    6  A    between atoms: C_15  and  C_16
REMARK                            x       y       z     vdW  Elec       q    Type
REMARK                         _______ _______ _______ _____ _____    ______ ____
ROOT
ATOM      2  O   UNL     1      13.409   8.336  16.753  0.00  0.00    -0.336 OA
ATOM      4  N   UNL     1      14.503  10.268  17.054  0.00  0.00    -0.190 NA
ATOM      5  N   UNL     1      13.525   8.921  15.485  0.00  0.00    -0.056 NA
ATOM     12  C   UNL     1      14.011   9.194  17.618  0.00  0.00    +0.245 A 
ATOM     15  C   UNL     1      14.182  10.056  15.746  0.00  0.00    +0.204 A 
ENDROOT
BRANCH  15  16
ATOM      6  N   UNL     1      16.209  11.924  13.251  0.00  0.00    -0.263 NA
ATOM     16  C   UNL     1      14.528  10.999  14.722  0.00  0.00    +0.041 A 
ATOM     17  C   UNL     1      13.583  11.879  14.207  0.00  0.00    +0.014 A 
ATOM     18  C   UNL     1      15.816  11.061  14.215  0.00  0.00    +0.122 A 
ATOM     19  C   UNL     1      13.948  12.781  13.215  0.00  0.00    +0.020 A 
ATOM     20  C   UNL     1      15.263  12.765  12.775  0.00  0.00    +0.111 A 
ENDBRANCH  15  16
BRANCH  12   7
ATOM      3  N   UNL     1      12.818   8.016  19.458  0.00  0.00    -0.286 NA
ATOM      7  C   UNL     1      14.021   8.784  19.077  0.00  0.00    +0.149 C 
ATOM      8  C   UNL     1      15.204   7.863  19.428  0.00  0.00    +0.061 C 
ATOM      9  C   UNL     1      14.568   6.622  20.044  0.00  0.00    +0.130 C 
ATOM     10  C   UNL     1      13.225   7.121  20.540  0.00  0.00    +0.116 C 
BRANCH   3  11
ATOM     11  C   UNL     1      11.694   8.862  19.840  0.00  0.00    +0.051 C 
ATOM     13  C   UNL     1      12.194  10.131  20.522  0.00  0.00    +0.024 C 
ATOM     14  C   UNL     1      10.759   8.078  20.755  0.00  0.00    +0.024 C 
ENDBRANCH   3  11
BRANCH   9   1
ATOM      1  O   UNL     1      15.365   6.122  21.100  0.00  0.00    -0.390 OA
ATOM     21  H   UNL     1      14.964   5.288  21.399  0.00  0.00    +0.210 HD
ENDBRANCH   9   1
ENDBRANCH  12   7
TORSDOF 4
ENDMDL
MODEL 8
REMARK VINA RESULT:      -5.5     25.337     28.451
REMARK  Name = 28960638
REMARK  6 active torsions:
REMARK  status: ('A' for Active; 'I' for Inactive)
REMARK    1  A    between atoms: O_1  and  C_9
REMARK    2  A    between atoms: N_3  and  C_11
REMARK    3  A    between atoms: C_7  and  C_12
REMARK    4  A    between atoms: C_11  and  C_13
REMARK    5  A    between atoms: C_11  and  C_14
REMARK    6  A    between atoms: C_15  and  C_16
REMARK                            x       y       z     vdW  Elec       q    Type
REMARK                         _______ _______ _______ _____ _____    ______ ____
ROOT
ATOM      2  O   UNL     1      -5.657  -9.474  15.885  0.00  0.00    -0.336 OA
ATOM      4  N   UNL     1      -6.093 -11.278  17.139  0.00  0.00    -0.190 NA
ATOM      5  N   UNL     1      -6.852  -9.198  16.561  0.00  0.00    -0.056 NA
ATOM     12  C   UNL     1      -5.278 -10.717  16.282  0.00  0.00    +0.245 A 
ATOM     15  C   UNL     1      -7.043 -10.309  17.281  0.00  0.00    +0.204 A 
ENDROOT
BRANCH  15  16
ATOM      6  N   UNL     1      -9.132 -11.530  20.103  0.00  0.00    -0.263 NA
ATOM     16  C   UNL     1      -8.173 -10.482  18.147  0.00  0.00    +0.041 A 
ATOM     17  C   UNL     1      -9.368  -9.812  17.910  0.00  0.00    +0.014 A 
ATOM     18  C   UNL     1      -8.107 -11.322  19.247  0.00  0.00    +0.122 A 
ATOM     19  C   UNL     1     -10.446 -10.000  18.768  0.00  0.00    +0.020 A 
ATOM     20  C   UNL     1     -10.279 -10.862  19.840  0.00  0.00    +0.111 A 
ENDBRANCH  15  16
BRANCH  12   7
ATOM      3  N   UNL     1      -3.663 -10.622  14.391  0.00  0.00    -0.286 NA
ATOM      7  C   UNL     1      -3.994 -11.254  15.684  0.00  0.00    +0.149 C 
ATOM      8  C   UNL     1      -2.767 -10.991  16.576  0.00  0.00    +0.061 C 
ATOM      9  C   UNL     1      -1.781 -10.248  15.682  0.00  0.00    +0.130 C 
ATOM     10  C   UNL     1      -2.205 -10.644  14.280  0.00  0.00    +0.116 C 
BRANCH   3  11
ATOM     11  C   UNL     1      -4.308 -11.269  13.254  0.00  0.00    +0.051 C 
ATOM     13  C   UNL     1      -3.410 -12.365  12.689  0.00  0.00    +0.024 C 
ATOM     14  C   UNL     1      -4.631 -10.223  12.192  0.00  0.00    +0.024 C 
ENDBRANCH   3  11
BRANCH   9   1
ATOM      1  O   UNL     1      -0.453 -10.645  15.960  0.00  0.00    -0.390 OA
ATOM     21  H   UNL     1       0.055  -9.842  16.169  0.00  0.00    +0.210 HD
ENDBRANCH   9   1
ENDBRANCH  12   7
TORSDOF 4
ENDMDL
MODEL 9
REMARK VINA RESULT:      -5.5      3.563      6.675
REMARK  Name = 28960638
REMARK  6 active torsions:
REMARK  status: ('A' for Active; 'I' for Inactive)
REMARK    1  A    between atoms: O_1  and  C_9
REMARK    2  A    between atoms: N_3  and  C_11
REMARK    3  A    between atoms: C_7  and  C_12
REMARK    4  A    between atoms: C_11  and  C_13
REMARK    5  A    between atoms: C_11  and  C_14
REMARK    6  A    between atoms: C_15  and  C_16
REMARK                            x       y       z     vdW  Elec       q    Type
REMARK                         _______ _______ _______ _____ _____    ______ ____
ROOT
ATOM      2  O   UNL     1      12.667  11.939  19.704  0.00  0.00    -0.336 OA
ATOM      4  N   UNL     1      12.372  10.568  21.450  0.00  0.00    -0.190 NA
ATOM      5  N   UNL     1      12.166  12.734  20.743  0.00  0.00    -0.056 NA
ATOM     12  C   UNL     1      12.758  10.680  20.204  0.00  0.00    +0.245 A 
ATOM     15  C   UNL     1      12.019  11.853  21.738  0.00  0.00    +0.204 A 
ENDROOT
BRANCH  15  16
ATOM      6  N   UNL     1      11.272  11.704  25.377  0.00  0.00    -0.263 NA
ATOM     16  C   UNL     1      11.518  12.226  23.030  0.00  0.00    +0.041 A 
ATOM     17  C   UNL     1      10.821  13.415  23.213  0.00  0.00    +0.014 A 
ATOM     18  C   UNL     1      11.715  11.413  24.134  0.00  0.00    +0.122 A 
ATOM     19  C   UNL     1      10.349  13.750  24.477  0.00  0.00    +0.020 A 
ATOM     20  C   UNL     1      10.597  12.868  25.517  0.00  0.00    +0.111 A 
ENDBRANCH  15  16
BRANCH  12   7
ATOM      3  N   UNL     1      12.581   8.325  19.416  0.00  0.00    -0.286 NA
ATOM      7  C   UNL     1      13.283   9.616  19.262  0.00  0.00    +0.149 C 
ATOM      8  C   UNL     1      13.098   9.990  17.780  0.00  0.00    +0.061 C 
ATOM      9  C   UNL     1      12.321   8.828  17.173  0.00  0.00    +0.130 C 
ATOM     10  C   UNL     1      12.624   7.673  18.108  0.00  0.00    +0.116 C 
BRANCH   3  11
ATOM     11  C   UNL     1      13.144   7.486  20.465  0.00  0.00    +0.051 C 
ATOM     13  C   UNL     1      14.364   6.733  19.944  0.00  0.00    +0.024 C 
ATOM     14  C   UNL     1      12.077   6.520  20.970  0.00  0.00    +0.024 C 
ENDBRANCH   3  11
BRANCH   9   1
ATOM      1  O   UNL     1      12.760   8.564  15.855  0.00  0.00    -0.390 OA
ATOM     21  H   UNL     1      12.010   8.728  15.258  0.00  0.00    +0.210 HD
ENDBRANCH   9   1
ENDBRANCH  12   7
TORSDOF 4
ENDMDL
MODEL 10
REMARK VINA RESULT:      -5.5     25.595     28.474
REMARK  Name = 28960638
REMARK  6 active torsions:
REMARK  status: ('A' for Active; 'I' for Inactive)
REMARK    1  A    between atoms: O_1  and  C_9
REMARK    2  A    between atoms: N_3  and  C_11
REMARK    3  A    between atoms: C_7  and  C_12
REMARK    4  A    between atoms: C_11  and  C_13
REMARK    5  A    between atoms: C_11  and  C_14
REMARK    6  A    between atoms: C_15  and  C_16
REMARK                            x       y       z     vdW  Elec       q    Type
REMARK                         _______ _______ _______ _____ _____    ______ ____
ROOT
ATOM      2  O   UNL     1     -11.662   6.773  20.773  0.00  0.00    -0.336 OA
ATOM      4  N   UNL     1     -13.850   7.256  20.765  0.00  0.00    -0.190 NA
ATOM      5  N   UNL     1     -12.276   5.817  21.594  0.00  0.00    -0.056 NA
ATOM     12  C   UNL     1     -12.660   7.580  20.326  0.00  0.00    +0.245 A 
ATOM     15  C   UNL     1     -13.564   6.170  21.538  0.00  0.00    +0.204 A 
ENDROOT
BRANCH  15  16
ATOM      6  N   UNL     1     -15.262   4.214  24.206  0.00  0.00    -0.263 NA
ATOM     16  C   UNL     1     -14.590   5.458  22.245  0.00  0.00    +0.041 A 
ATOM     17  C   UNL     1     -15.864   5.312  21.707  0.00  0.00    +0.014 A 
ATOM     18  C   UNL     1     -14.342   4.895  23.487  0.00  0.00    +0.122 A 
ATOM     19  C   UNL     1     -16.837   4.617  22.416  0.00  0.00    +0.020 A 
ATOM     20  C   UNL     1     -16.489   4.091  23.650  0.00  0.00    +0.111 A 
ENDBRANCH  15  16
BRANCH  12   7
ATOM      3  N   UNL     1     -11.622   9.834  20.130  0.00  0.00    -0.286 NA
ATOM      7  C   UNL     1     -12.250   8.711  19.405  0.00  0.00    +0.149 C 
ATOM      8  C   UNL     1     -11.201   8.280  18.363  0.00  0.00    +0.061 C 
ATOM      9  C   UNL     1     -10.039   9.249  18.549  0.00  0.00    +0.130 C 
ATOM     10  C   UNL     1     -10.686  10.458  19.196  0.00  0.00    +0.116 C 
BRANCH   3  11
ATOM     11  C   UNL     1     -12.589  10.790  20.657  0.00  0.00    +0.051 C 
ATOM     13  C   UNL     1     -12.495  12.110  19.899  0.00  0.00    +0.024 C 
ATOM     14  C   UNL     1     -12.339  10.994  22.148  0.00  0.00    +0.024 C 
ENDBRANCH   3  11
BRANCH   9   1
ATOM      1  O   UNL     1      -9.452   9.572  17.304  0.00  0.00    -0.390 OA
ATOM     21  H   UNL     1     -10.135  10.000  16.760  0.00  0.00    +0.210 HD
ENDBRANCH   9   1
ENDBRANCH  12   7
TORSDOF 4
ENDMDL
