MODEL 1
REMARK VINA RESULT:      -7.3      0.000      0.000
REMARK  Name = 75536427
REMARK  10 active torsions:
REMARK  status: ('A' for Active; 'I' for Inactive)
REMARK    1  A    between atoms: O_2  and  C_13
REMARK    2  A    between atoms: O_6  and  C_32
REMARK    3  A    between atoms: O_6  and  C_33
REMARK    4  A    between atoms: N_7  and  C_17
REMARK    5  A    between atoms: N_8  and  C_20
REMARK    6  A    between atoms: N_10  and  C_27
REMARK    7  A    between atoms: C_11  and  C_16
REMARK    8  A    between atoms: C_12  and  C_17
REMARK    9  A    between atoms: C_16  and  C_18
REMARK   10  A    between atoms: C_20  and  C_21
REMARK                            x       y       z     vdW  Elec       q    Type
REMARK                         _______ _______ _______ _____ _____    ______ ____
ROOT
ATOM      1  O   UNL     1      11.783   7.381  19.207  0.00  0.00    -0.369 OA
ATOM     11  C   UNL     1      13.117   7.835  18.972  0.00  0.00    +0.125 C 
ATOM     12  C   UNL     1      11.276   7.632  20.524  0.00  0.00    +0.164 C 
ATOM     13  C   UNL     1      12.198   7.041  21.598  0.00  0.00    +0.145 C 
ATOM     14  C   UNL     1      14.091   7.177  19.949  0.00  0.00    +0.034 C 
ATOM     15  C   UNL     1      13.659   7.431  21.391  0.00  0.00    +0.036 C 
ENDROOT
BRANCH  13   2
ATOM      2  O   UNL     1      12.114   5.614  21.543  0.00  0.00    -0.389 OA
ATOM     34  H   UNL     1      12.816   5.301  20.948  0.00  0.00    +0.210 HD
ENDBRANCH  13   2
BRANCH  11  16
ATOM     16  C   UNL     1      13.475   7.484  17.533  0.00  0.00    +0.090 C 
BRANCH  16  18
ATOM      3  O   UNL     1      13.146  10.004  14.977  0.00  0.00    -0.358 OA
ATOM      9  N   UNL     1      12.858   8.758  15.519  0.00  0.00    -0.083 NA
ATOM     18  C   UNL     1      13.549   8.710  16.662  0.00  0.00    +0.086 A 
ATOM     19  C   UNL     1      14.285   9.886  16.890  0.00  0.00    +0.072 A 
ATOM     21  C   UNL     1      13.997  10.666  15.802  0.00  0.00    +0.151 A 
BRANCH  21  20
ATOM     20  C   UNL     1      14.407  12.010  15.378  0.00  0.00    +0.161 C 
BRANCH  20   8
ATOM      4  O   UNL     1      18.342  13.255  14.613  0.00  0.00    -0.377 OA
ATOM      8  N   UNL     1      15.841  12.250  15.528  0.00  0.00    -0.291 NA
ATOM     22  C   UNL     1      16.597  11.575  14.465  0.00  0.00    +0.113 C 
ATOM     23  C   UNL     1      16.134  13.690  15.518  0.00  0.00    +0.113 C 
ATOM     24  C   UNL     1      18.089  11.850  14.636  0.00  0.00    +0.175 C 
ATOM     25  C   UNL     1      17.635  13.916  15.664  0.00  0.00    +0.175 C 
ENDBRANCH  20   8
ENDBRANCH  21  20
ENDBRANCH  16  18
ENDBRANCH  11  16
BRANCH  12  17
ATOM     17  C   UNL     1      10.996   9.119  20.731  0.00  0.00    +0.140 C 
BRANCH  17   7
ATOM      5  O   UNL     1      11.410  11.747  21.792  0.00  0.00    -0.253 OA
ATOM      7  N   UNL     1      11.116   9.475  22.113  0.00  0.00    -0.297 N 
ATOM     10  N   UNL     1      11.398  10.835  23.955  0.00  0.00    -0.269 N 
ATOM     26  C   UNL     1      11.320  10.792  22.559  0.00  0.00    +0.304 C 
ATOM     35  H   UNL     1      11.098   8.730  22.803  0.00  0.00    +0.150 HD
ATOM     36  H   UNL     1      11.300   9.949  24.444  0.00  0.00    +0.156 HD
BRANCH  10  27
ATOM     27  C   UNL     1      11.596  11.967  24.779  0.00  0.00    +0.035 A 
ATOM     28  C   UNL     1      10.535  12.834  25.040  0.00  0.00    +0.027 A 
ATOM     29  C   UNL     1      12.852  12.218  25.330  0.00  0.00    +0.027 A 
ATOM     30  C   UNL     1      10.730  13.950  25.853  0.00  0.00    +0.047 A 
ATOM     31  C   UNL     1      13.048  13.334  26.142  0.00  0.00    +0.047 A 
ATOM     32  C   UNL     1      11.986  14.201  26.403  0.00  0.00    +0.120 A 
BRANCH  32   6
ATOM      6  O   UNL     1      12.177  15.291  27.197  0.00  0.00    -0.495 OA
ATOM     33  C   UNL     1      11.163  15.578  28.159  0.00  0.00    +0.277 C 
ENDBRANCH  32   6
ENDBRANCH  10  27
ENDBRANCH  17   7
ENDBRANCH  12  17
TORSDOF 9
ENDMDL
MODEL 2
REMARK VINA RESULT:      -7.3      3.056      6.992
REMARK  Name = 75536427
REMARK  10 active torsions:
REMARK  status: ('A' for Active; 'I' for Inactive)
REMARK    1  A    between atoms: O_2  and  C_13
REMARK    2  A    between atoms: O_6  and  C_32
REMARK    3  A    between atoms: O_6  and  C_33
REMARK    4  A    between atoms: N_7  and  C_17
REMARK    5  A    between atoms: N_8  and  C_20
REMARK    6  A    between atoms: N_10  and  C_27
REMARK    7  A    between atoms: C_11  and  C_16
REMARK    8  A    between atoms: C_12  and  C_17
REMARK    9  A    between atoms: C_16  and  C_18
REMARK   10  A    between atoms: C_20  and  C_21
REMARK                            x       y       z     vdW  Elec       q    Type
REMARK                         _______ _______ _______ _____ _____    ______ ____
ROOT
ATOM      1  O   UNL     1      11.839  10.679  21.352  0.00  0.00    -0.369 OA
ATOM     11  C   UNL     1      11.559   9.751  22.403  0.00  0.00    +0.125 C 
ATOM     12  C   UNL     1      12.336  11.954  21.780  0.00  0.00    +0.164 C 
ATOM     13  C   UNL     1      11.385  12.614  22.785  0.00  0.00    +0.145 C 
ATOM     14  C   UNL     1      10.522  10.325  23.367  0.00  0.00    +0.034 C 
ATOM     15  C   UNL     1      10.986  11.672  23.917  0.00  0.00    +0.036 C 
ENDROOT
BRANCH  13   2
ATOM      2  O   UNL     1      10.191  13.005  22.102  0.00  0.00    -0.389 OA
ATOM     34  H   UNL     1      10.455  13.510  21.314  0.00  0.00    +0.210 HD
ENDBRANCH  13   2
BRANCH  11  16
ATOM     16  C   UNL     1      11.048   8.469  21.758  0.00  0.00    +0.090 C 
BRANCH  16  18
ATOM      3  O   UNL     1      11.224   8.342  18.161  0.00  0.00    -0.358 OA
ATOM      9  N   UNL     1      10.523   8.468  19.354  0.00  0.00    -0.083 NA
ATOM     18  C   UNL     1      11.451   8.373  20.311  0.00  0.00    +0.086 A 
ATOM     19  C   UNL     1      12.742   8.187  19.786  0.00  0.00    +0.072 A 
ATOM     21  C   UNL     1      12.543   8.175  18.431  0.00  0.00    +0.151 A 
BRANCH  21  20
ATOM     20  C   UNL     1      13.434   8.025  17.275  0.00  0.00    +0.161 C 
BRANCH  20   8
ATOM      4  O   UNL     1      15.626  11.232  15.685  0.00  0.00    -0.377 OA
ATOM      8  N   UNL     1      13.768   9.296  16.635  0.00  0.00    -0.291 NA
ATOM     22  C   UNL     1      14.512  10.165  17.557  0.00  0.00    +0.113 C 
ATOM     23  C   UNL     1      14.551   9.075  15.411  0.00  0.00    +0.113 C 
ATOM     24  C   UNL     1      14.859  11.480  16.864  0.00  0.00    +0.175 C 
ATOM     25  C   UNL     1      14.897  10.414  14.768  0.00  0.00    +0.175 C 
ENDBRANCH  20   8
ENDBRANCH  21  20
ENDBRANCH  16  18
ENDBRANCH  11  16
BRANCH  12  17
ATOM     17  C   UNL     1      13.767  11.839  22.301  0.00  0.00    +0.140 C 
BRANCH  17   7
ATOM      5  O   UNL     1      15.142   9.358  22.701  0.00  0.00    -0.253 OA
ATOM      7  N   UNL     1      14.604  11.162  21.357  0.00  0.00    -0.297 N 
ATOM     10  N   UNL     1      15.995   9.522  20.521  0.00  0.00    -0.269 N 
ATOM     26  C   UNL     1      15.249   9.942  21.626  0.00  0.00    +0.304 C 
ATOM     35  H   UNL     1      14.776  11.610  20.462  0.00  0.00    +0.150 HD
ATOM     36  H   UNL     1      15.975  10.125  19.702  0.00  0.00    +0.156 HD
BRANCH  10  27
ATOM     27  C   UNL     1      16.780   8.352  20.397  0.00  0.00    +0.035 A 
ATOM     28  C   UNL     1      16.341   7.299  19.595  0.00  0.00    +0.027 A 
ATOM     29  C   UNL     1      17.994   8.252  21.077  0.00  0.00    +0.027 A 
ATOM     30  C   UNL     1      17.115   6.146  19.474  0.00  0.00    +0.047 A 
ATOM     31  C   UNL     1      18.768   7.099  20.956  0.00  0.00    +0.047 A 
ATOM     32  C   UNL     1      18.328   6.045  20.154  0.00  0.00    +0.120 A 
BRANCH  32   6
ATOM      6  O   UNL     1      19.085   4.919  20.035  0.00  0.00    -0.495 OA
ATOM     33  C   UNL     1      20.455   5.014  20.421  0.00  0.00    +0.277 C 
ENDBRANCH  32   6
ENDBRANCH  10  27
ENDBRANCH  17   7
ENDBRANCH  12  17
TORSDOF 9
ENDMDL
MODEL 3
REMARK VINA RESULT:      -7.2      5.251      6.564
REMARK  Name = 75536427
REMARK  10 active torsions:
REMARK  status: ('A' for Active; 'I' for Inactive)
REMARK    1  A    between atoms: O_2  and  C_13
REMARK    2  A    between atoms: O_6  and  C_32
REMARK    3  A    between atoms: O_6  and  C_33
REMARK    4  A    between atoms: N_7  and  C_17
REMARK    5  A    between atoms: N_8  and  C_20
REMARK    6  A    between atoms: N_10  and  C_27
REMARK    7  A    between atoms: C_11  and  C_16
REMARK    8  A    between atoms: C_12  and  C_17
REMARK    9  A    between atoms: C_16  and  C_18
REMARK   10  A    between atoms: C_20  and  C_21
REMARK                            x       y       z     vdW  Elec       q    Type
REMARK                         _______ _______ _______ _____ _____    ______ ____
ROOT
ATOM      1  O   UNL     1      14.535   7.264  18.441  0.00  0.00    -0.369 OA
ATOM     11  C   UNL     1      15.381   7.118  19.583  0.00  0.00    +0.125 C 
ATOM     12  C   UNL     1      13.290   7.932  18.684  0.00  0.00    +0.164 C 
ATOM     13  C   UNL     1      12.498   7.244  19.803  0.00  0.00    +0.145 C 
ATOM     14  C   UNL     1      14.670   6.332  20.684  0.00  0.00    +0.034 C 
ATOM     15  C   UNL     1      13.344   6.996  21.049  0.00  0.00    +0.036 C 
ENDROOT
BRANCH  13   2
ATOM      2  O   UNL     1      12.038   5.975  19.330  0.00  0.00    -0.389 OA
ATOM     34  H   UNL     1      12.802   5.506  18.954  0.00  0.00    +0.210 HD
ENDBRANCH  13   2
BRANCH  11  16
ATOM     16  C   UNL     1      16.643   6.396  19.131  0.00  0.00    +0.090 C 
BRANCH  16  18
ATOM      3  O   UNL     1      19.009   7.669  21.532  0.00  0.00    -0.358 OA
ATOM      9  N   UNL     1      17.844   7.769  20.782  0.00  0.00    -0.083 NA
ATOM     18  C   UNL     1      17.793   6.638  20.071  0.00  0.00    +0.086 A 
ATOM     19  C   UNL     1      18.888   5.796  20.329  0.00  0.00    +0.072 A 
ATOM     21  C   UNL     1      19.623   6.491  21.254  0.00  0.00    +0.151 A 
BRANCH  21  20
ATOM     20  C   UNL     1      20.877   6.222  21.965  0.00  0.00    +0.161 C 
BRANCH  20   8
ATOM      4  O   UNL     1      24.024   3.566  21.151  0.00  0.00    -0.377 OA
ATOM      8  N   UNL     1      21.695   5.193  21.325  0.00  0.00    -0.291 NA
ATOM     22  C   UNL     1      22.988   5.745  20.898  0.00  0.00    +0.113 C 
ATOM     23  C   UNL     1      21.908   4.055  22.231  0.00  0.00    +0.113 C 
ATOM     24  C   UNL     1      23.828   4.652  20.244  0.00  0.00    +0.175 C 
ATOM     25  C   UNL     1      22.772   3.002  21.546  0.00  0.00    +0.175 C 
ENDBRANCH  20   8
ENDBRANCH  21  20
ENDBRANCH  16  18
ENDBRANCH  11  16
BRANCH  12  17
ATOM     17  C   UNL     1      13.506   9.423  18.937  0.00  0.00    +0.140 C 
BRANCH  17   7
ATOM      5  O   UNL     1      13.718  10.899  21.381  0.00  0.00    -0.253 OA
ATOM      7  N   UNL     1      12.427   9.974  19.700  0.00  0.00    -0.297 N 
ATOM     10  N   UNL     1      11.380  11.105  21.416  0.00  0.00    -0.269 N 
ATOM     26  C   UNL     1      12.609  10.690  20.896  0.00  0.00    +0.304 C 
ATOM     35  H   UNL     1      11.478   9.800  19.383  0.00  0.00    +0.150 HD
ATOM     36  H   UNL     1      10.550  10.849  20.886  0.00  0.00    +0.156 HD
BRANCH  10  27
ATOM     27  C   UNL     1      11.142  11.845  22.598  0.00  0.00    +0.035 A 
ATOM     28  C   UNL     1      11.242  11.222  23.842  0.00  0.00    +0.027 A 
ATOM     29  C   UNL     1      10.808  13.197  22.519  0.00  0.00    +0.027 A 
ATOM     30  C   UNL     1      11.007  11.951  25.007  0.00  0.00    +0.047 A 
ATOM     31  C   UNL     1      10.573  13.926  23.685  0.00  0.00    +0.047 A 
ATOM     32  C   UNL     1      10.673  13.303  24.929  0.00  0.00    +0.120 A 
BRANCH  32   6
ATOM      6  O   UNL     1      10.444  14.015  26.067  0.00  0.00    -0.495 OA
ATOM     33  C   UNL     1      11.547  14.738  26.612  0.00  0.00    +0.277 C 
ENDBRANCH  32   6
ENDBRANCH  10  27
ENDBRANCH  17   7
ENDBRANCH  12  17
TORSDOF 9
ENDMDL
MODEL 4
REMARK VINA RESULT:      -6.9      4.759      9.746
REMARK  Name = 75536427
REMARK  10 active torsions:
REMARK  status: ('A' for Active; 'I' for Inactive)
REMARK    1  A    between atoms: O_2  and  C_13
REMARK    2  A    between atoms: O_6  and  C_32
REMARK    3  A    between atoms: O_6  and  C_33
REMARK    4  A    between atoms: N_7  and  C_17
REMARK    5  A    between atoms: N_8  and  C_20
REMARK    6  A    between atoms: N_10  and  C_27
REMARK    7  A    between atoms: C_11  and  C_16
REMARK    8  A    between atoms: C_12  and  C_17
REMARK    9  A    between atoms: C_16  and  C_18
REMARK   10  A    between atoms: C_20  and  C_21
REMARK                            x       y       z     vdW  Elec       q    Type
REMARK                         _______ _______ _______ _____ _____    ______ ____
ROOT
ATOM      1  O   UNL     1      12.328   8.016  22.080  0.00  0.00    -0.369 OA
ATOM     11  C   UNL     1      11.787   9.198  21.487  0.00  0.00    +0.125 C 
ATOM     12  C   UNL     1      13.354   7.366  21.320  0.00  0.00    +0.164 C 
ATOM     13  C   UNL     1      12.871   7.034  19.902  0.00  0.00    +0.145 C 
ATOM     14  C   UNL     1      11.187   8.888  20.117  0.00  0.00    +0.034 C 
ATOM     15  C   UNL     1      12.226   8.232  19.211  0.00  0.00    +0.036 C 
ENDROOT
BRANCH  13   2
ATOM      2  O   UNL     1      11.892   5.995  19.980  0.00  0.00    -0.389 OA
ATOM     34  H   UNL     1      11.088   6.377  20.370  0.00  0.00    +0.210 HD
ENDBRANCH  13   2
BRANCH  11  16
ATOM     16  C   UNL     1      10.724   9.742  22.434  0.00  0.00    +0.090 C 
BRANCH  16  18
ATOM      3  O   UNL     1      11.374  12.040  25.133  0.00  0.00    -0.358 OA
ATOM      9  N   UNL     1      10.539  11.195  24.411  0.00  0.00    -0.083 NA
ATOM     18  C   UNL     1      11.305  10.710  23.429  0.00  0.00    +0.086 A 
ATOM     19  C   UNL     1      12.619  11.208  23.481  0.00  0.00    +0.072 A 
ATOM     21  C   UNL     1      12.609  12.039  24.570  0.00  0.00    +0.151 A 
BRANCH  21  20
ATOM     20  C   UNL     1      13.622  12.884  25.212  0.00  0.00    +0.161 C 
BRANCH  20   8
ATOM      4  O   UNL     1      15.821  12.283  28.736  0.00  0.00    -0.377 OA
ATOM      8  N   UNL     1      14.025  12.400  26.531  0.00  0.00    -0.291 NA
ATOM     22  C   UNL     1      15.294  11.664  26.450  0.00  0.00    +0.113 C 
ATOM     23  C   UNL     1      14.149  13.514  27.481  0.00  0.00    +0.113 C 
ATOM     24  C   UNL     1      15.701  11.178  27.840  0.00  0.00    +0.175 C 
ATOM     25  C   UNL     1      14.582  12.987  28.845  0.00  0.00    +0.175 C 
ENDBRANCH  20   8
ENDBRANCH  21  20
ENDBRANCH  16  18
ENDBRANCH  11  16
BRANCH  12  17
ATOM     17  C   UNL     1      14.647   8.179  21.334  0.00  0.00    +0.140 C 
BRANCH  17   7
ATOM      5  O   UNL     1      17.407   8.582  20.686  0.00  0.00    -0.253 OA
ATOM      7  N   UNL     1      15.753   7.375  21.760  0.00  0.00    -0.297 N 
ATOM     10  N   UNL     1      17.945   6.687  21.962  0.00  0.00    -0.269 N 
ATOM     26  C   UNL     1      17.086   7.635  21.400  0.00  0.00    +0.304 C 
ATOM     35  H   UNL     1      15.557   6.547  22.315  0.00  0.00    +0.150 HD
ATOM     36  H   UNL     1      17.514   5.964  22.534  0.00  0.00    +0.156 HD
BRANCH  10  27
ATOM     27  C   UNL     1      19.351   6.605  21.835  0.00  0.00    +0.035 A 
ATOM     28  C   UNL     1      20.173   7.086  22.854  0.00  0.00    +0.027 A 
ATOM     29  C   UNL     1      19.917   6.044  20.690  0.00  0.00    +0.027 A 
ATOM     30  C   UNL     1      21.559   7.007  22.729  0.00  0.00    +0.047 A 
ATOM     31  C   UNL     1      21.304   5.965  20.564  0.00  0.00    +0.047 A 
ATOM     32  C   UNL     1      22.124   6.446  21.584  0.00  0.00    +0.120 A 
BRANCH  32   6
ATOM      6  O   UNL     1      23.479   6.368  21.461  0.00  0.00    -0.495 OA
ATOM     33  C   UNL     1      24.127   7.421  20.748  0.00  0.00    +0.277 C 
ENDBRANCH  32   6
ENDBRANCH  10  27
ENDBRANCH  17   7
ENDBRANCH  12  17
TORSDOF 9
ENDMDL
MODEL 5
REMARK VINA RESULT:      -6.8     28.044     29.909
REMARK  Name = 75536427
REMARK  10 active torsions:
REMARK  status: ('A' for Active; 'I' for Inactive)
REMARK    1  A    between atoms: O_2  and  C_13
REMARK    2  A    between atoms: O_6  and  C_32
REMARK    3  A    between atoms: O_6  and  C_33
REMARK    4  A    between atoms: N_7  and  C_17
REMARK    5  A    between atoms: N_8  and  C_20
REMARK    6  A    between atoms: N_10  and  C_27
REMARK    7  A    between atoms: C_11  and  C_16
REMARK    8  A    between atoms: C_12  and  C_17
REMARK    9  A    between atoms: C_16  and  C_18
REMARK   10  A    between atoms: C_20  and  C_21
REMARK                            x       y       z     vdW  Elec       q    Type
REMARK                         _______ _______ _______ _____ _____    ______ ____
ROOT
ATOM      1  O   UNL     1      -6.462 -12.012  16.972  0.00  0.00    -0.369 OA
ATOM     11  C   UNL     1      -5.041 -12.021  17.130  0.00  0.00    +0.125 C 
ATOM     12  C   UNL     1      -7.177 -11.224  17.932  0.00  0.00    +0.164 C 
ATOM     13  C   UNL     1      -6.840 -11.650  19.367  0.00  0.00    +0.145 C 
ATOM     14  C   UNL     1      -4.655 -12.553  18.509  0.00  0.00    +0.034 C 
ATOM     15  C   UNL     1      -5.336 -11.741  19.609  0.00  0.00    +0.036 C 
ENDROOT
BRANCH  13   2
ATOM      2  O   UNL     1      -7.400 -12.944  19.607  0.00  0.00    -0.389 OA
ATOM     34  H   UNL     1      -6.678 -13.528  19.895  0.00  0.00    +0.210 HD
ENDBRANCH  13   2
BRANCH  11  16
ATOM     16  C   UNL     1      -4.463 -12.901  16.029  0.00  0.00    +0.090 C 
BRANCH  16  18
ATOM      3  O   UNL     1      -2.426 -10.544  14.216  0.00  0.00    -0.358 OA
ATOM      9  N   UNL     1      -2.964 -11.057  15.390  0.00  0.00    -0.083 NA
ATOM     18  C   UNL     1      -3.716 -12.092  15.003  0.00  0.00    +0.086 A 
ATOM     19  C   UNL     1      -3.690 -12.277  13.610  0.00  0.00    +0.072 A 
ATOM     21  C   UNL     1      -2.866 -11.279  13.163  0.00  0.00    +0.151 A 
BRANCH  21  20
ATOM     20  C   UNL     1      -2.389 -10.872  11.836  0.00  0.00    +0.161 C 
BRANCH  20   8
ATOM      4  O   UNL     1      -4.525  -9.925   8.349  0.00  0.00    -0.377 OA
ATOM      8  N   UNL     1      -3.466 -10.466  10.935  0.00  0.00    -0.291 NA
ATOM     22  C   UNL     1      -3.096  -9.255  10.192  0.00  0.00    +0.113 C 
ATOM     23  C   UNL     1      -3.800 -11.549   9.999  0.00  0.00    +0.113 C 
ATOM     24  C   UNL     1      -4.231  -8.857   9.251  0.00  0.00    +0.175 C 
ATOM     25  C   UNL     1      -4.917 -11.099   9.063  0.00  0.00    +0.175 C 
ENDBRANCH  20   8
ENDBRANCH  21  20
ENDBRANCH  16  18
ENDBRANCH  11  16
BRANCH  12  17
ATOM     17  C   UNL     1      -6.962  -9.731  17.688  0.00  0.00    +0.140 C 
BRANCH  17   7
ATOM      5  O   UNL     1      -8.862  -9.010  15.670  0.00  0.00    -0.253 OA
ATOM      7  N   UNL     1      -8.178  -9.001  17.880  0.00  0.00    -0.297 N 
ATOM     10  N   UNL     1     -10.163  -7.965  17.322  0.00  0.00    -0.269 N 
ATOM     26  C   UNL     1      -9.064  -8.682  16.836  0.00  0.00    +0.304 C 
ATOM     35  H   UNL     1      -8.388  -8.656  18.812  0.00  0.00    +0.150 HD
ATOM     36  H   UNL     1     -10.178  -7.777  18.321  0.00  0.00    +0.156 HD
BRANCH  10  27
ATOM     27  C   UNL     1     -11.265  -7.466  16.590  0.00  0.00    +0.035 A 
ATOM     28  C   UNL     1     -12.459  -8.186  16.549  0.00  0.00    +0.027 A 
ATOM     29  C   UNL     1     -11.159  -6.253  15.909  0.00  0.00    +0.027 A 
ATOM     30  C   UNL     1     -13.546  -7.694  15.827  0.00  0.00    +0.047 A 
ATOM     31  C   UNL     1     -12.246  -5.760  15.187  0.00  0.00    +0.047 A 
ATOM     32  C   UNL     1     -13.440  -6.482  15.147  0.00  0.00    +0.120 A 
BRANCH  32   6
ATOM      6  O   UNL     1     -14.501  -6.001  14.442  0.00  0.00    -0.495 OA
ATOM     33  C   UNL     1     -15.786  -6.537  14.758  0.00  0.00    +0.277 C 
ENDBRANCH  32   6
ENDBRANCH  10  27
ENDBRANCH  17   7
ENDBRANCH  12  17
TORSDOF 9
ENDMDL
MODEL 6
REMARK VINA RESULT:      -6.7     28.612     31.550
REMARK  Name = 75536427
REMARK  10 active torsions:
REMARK  status: ('A' for Active; 'I' for Inactive)
REMARK    1  A    between atoms: O_2  and  C_13
REMARK    2  A    between atoms: O_6  and  C_32
REMARK    3  A    between atoms: O_6  and  C_33
REMARK    4  A    between atoms: N_7  and  C_17
REMARK    5  A    between atoms: N_8  and  C_20
REMARK    6  A    between atoms: N_10  and  C_27
REMARK    7  A    between atoms: C_11  and  C_16
REMARK    8  A    between atoms: C_12  and  C_17
REMARK    9  A    between atoms: C_16  and  C_18
REMARK   10  A    between atoms: C_20  and  C_21
REMARK                            x       y       z     vdW  Elec       q    Type
REMARK                         _______ _______ _______ _____ _____    ______ ____
ROOT
ATOM      1  O   UNL     1      -6.850 -11.439  17.107  0.00  0.00    -0.369 OA
ATOM     11  C   UNL     1      -6.659 -10.127  16.573  0.00  0.00    +0.125 C 
ATOM     12  C   UNL     1      -5.952 -11.805  18.163  0.00  0.00    +0.164 C 
ATOM     13  C   UNL     1      -4.489 -11.654  17.727  0.00  0.00    +0.145 C 
ATOM     14  C   UNL     1      -5.244  -9.972  16.017  0.00  0.00    +0.034 C 
ATOM     15  C   UNL     1      -4.207 -10.296  17.090  0.00  0.00    +0.036 C 
ENDROOT
BRANCH  13   2
ATOM      2  O   UNL     1      -4.191 -12.662  16.756  0.00  0.00    -0.389 OA
ATOM     34  H   UNL     1      -4.647 -12.420  15.932  0.00  0.00    +0.210 HD
ENDBRANCH  13   2
BRANCH  11  16
ATOM     16  C   UNL     1      -7.696  -9.923  15.476  0.00  0.00    +0.090 C 
BRANCH  16  18
ATOM      3  O   UNL     1     -10.052  -7.857  17.256  0.00  0.00    -0.358 OA
ATOM      9  N   UNL     1      -8.794  -8.422  17.087  0.00  0.00    -0.083 NA
ATOM     18  C   UNL     1      -8.891  -9.155  15.974  0.00  0.00    +0.086 A 
ATOM     19  C   UNL     1     -10.174  -9.092  15.404  0.00  0.00    +0.072 A 
ATOM     21  C   UNL     1     -10.865  -8.263  16.248  0.00  0.00    +0.151 A 
BRANCH  21  20
ATOM     20  C   UNL     1     -12.242  -7.756  16.272  0.00  0.00    +0.161 C 
BRANCH  20   8
ATOM      4  O   UNL     1     -13.584  -4.711  13.713  0.00  0.00    -0.377 OA
ATOM      8  N   UNL     1     -12.607  -7.018  15.064  0.00  0.00    -0.291 NA
ATOM     22  C   UNL     1     -14.033  -6.666  15.079  0.00  0.00    +0.113 C 
ATOM     23  C   UNL     1     -11.789  -5.805  14.925  0.00  0.00    +0.113 C 
ATOM     24  C   UNL     1     -14.387  -5.887  13.814  0.00  0.00    +0.175 C 
ATOM     25  C   UNL     1     -12.196  -5.047  13.666  0.00  0.00    +0.175 C 
ENDBRANCH  20   8
ENDBRANCH  21  20
ENDBRANCH  16  18
ENDBRANCH  11  16
BRANCH  12  17
ATOM     17  C   UNL     1      -6.272 -11.042  19.446  0.00  0.00    +0.140 C 
BRANCH  17   7
ATOM      5  O   UNL     1      -8.870 -12.152  19.918  0.00  0.00    -0.253 OA
ATOM      7  N   UNL     1      -7.527 -10.360  19.338  0.00  0.00    -0.297 N 
ATOM     10  N   UNL     1      -9.814 -10.066  19.401  0.00  0.00    -0.269 N 
ATOM     26  C   UNL     1      -8.767 -10.974  19.585  0.00  0.00    +0.304 C 
ATOM     35  H   UNL     1      -7.522  -9.395  19.021  0.00  0.00    +0.150 HD
ATOM     36  H   UNL     1      -9.555  -9.122  19.125  0.00  0.00    +0.156 HD
BRANCH  10  27
ATOM     27  C   UNL     1     -11.201 -10.298  19.553  0.00  0.00    +0.035 A 
ATOM     28  C   UNL     1     -11.904 -10.988  18.566  0.00  0.00    +0.027 A 
ATOM     29  C   UNL     1     -11.866  -9.836  20.688  0.00  0.00    +0.027 A 
ATOM     30  C   UNL     1     -13.272 -11.217  18.714  0.00  0.00    +0.047 A 
ATOM     31  C   UNL     1     -13.234 -10.063  20.837  0.00  0.00    +0.047 A 
ATOM     32  C   UNL     1     -13.936 -10.754  19.849  0.00  0.00    +0.120 A 
BRANCH  32   6
ATOM      6  O   UNL     1     -15.272 -10.977  19.995  0.00  0.00    -0.495 OA
ATOM     33  C   UNL     1     -16.015 -10.007  20.732  0.00  0.00    +0.277 C 
ENDBRANCH  32   6
ENDBRANCH  10  27
ENDBRANCH  17   7
ENDBRANCH  12  17
TORSDOF 9
ENDMDL
MODEL 7
REMARK VINA RESULT:      -6.6     27.685     30.489
REMARK  Name = 75536427
REMARK  10 active torsions:
REMARK  status: ('A' for Active; 'I' for Inactive)
REMARK    1  A    between atoms: O_2  and  C_13
REMARK    2  A    between atoms: O_6  and  C_32
REMARK    3  A    between atoms: O_6  and  C_33
REMARK    4  A    between atoms: N_7  and  C_17
REMARK    5  A    between atoms: N_8  and  C_20
REMARK    6  A    between atoms: N_10  and  C_27
REMARK    7  A    between atoms: C_11  and  C_16
REMARK    8  A    between atoms: C_12  and  C_17
REMARK    9  A    between atoms: C_16  and  C_18
REMARK   10  A    between atoms: C_20  and  C_21
REMARK                            x       y       z     vdW  Elec       q    Type
REMARK                         _______ _______ _______ _____ _____    ______ ____
ROOT
ATOM      1  O   UNL     1      -9.384 -10.825  16.805  0.00  0.00    -0.369 OA
ATOM     11  C   UNL     1      -9.054 -10.019  17.939  0.00  0.00    +0.125 C 
ATOM     12  C   UNL     1     -10.562 -10.425  16.094  0.00  0.00    +0.164 C 
ATOM     13  C   UNL     1     -11.779 -10.357  17.025  0.00  0.00    +0.145 C 
ATOM     14  C   UNL     1     -10.198 -10.019  18.951  0.00  0.00    +0.034 C 
ATOM     15  C   UNL     1     -11.498  -9.558  18.295  0.00  0.00    +0.036 C 
ENDROOT
BRANCH  13   2
ATOM      2  O   UNL     1     -12.136 -11.685  17.415  0.00  0.00    -0.389 OA
ATOM     34  H   UNL     1     -13.088 -11.688  17.613  0.00  0.00    +0.210 HD
ENDBRANCH  13   2
BRANCH  11  16
ATOM     16  C   UNL     1      -7.785 -10.592  18.556  0.00  0.00    +0.090 C 
BRANCH  16  18
ATOM      3  O   UNL     1      -5.392  -9.524  16.082  0.00  0.00    -0.358 OA
ATOM      9  N   UNL     1      -6.641  -9.471  16.688  0.00  0.00    -0.083 NA
ATOM     18  C   UNL     1      -6.587 -10.374  17.671  0.00  0.00    +0.086 A 
ATOM     19  C   UNL     1      -5.341 -11.022  17.733  0.00  0.00    +0.072 A 
ATOM     21  C   UNL     1      -4.627 -10.451  16.712  0.00  0.00    +0.151 A 
BRANCH  21  20
ATOM     20  C   UNL     1      -3.265 -10.637  16.197  0.00  0.00    +0.161 C 
BRANCH  20   8
ATOM      4  O   UNL     1      -1.966 -12.233  12.538  0.00  0.00    -0.377 OA
ATOM      8  N   UNL     1      -3.230 -11.038  14.791  0.00  0.00    -0.291 NA
ATOM     22  C   UNL     1      -2.125 -10.372  14.088  0.00  0.00    +0.113 C 
ATOM     23  C   UNL     1      -3.101 -12.496  14.666  0.00  0.00    +0.113 C 
ATOM     24  C   UNL     1      -2.101 -10.814  12.626  0.00  0.00    +0.175 C 
ATOM     25  C   UNL     1      -3.054 -12.888  13.193  0.00  0.00    +0.175 C 
ENDBRANCH  20   8
ENDBRANCH  21  20
ENDBRANCH  16  18
ENDBRANCH  11  16
BRANCH  12  17
ATOM     17  C   UNL     1     -10.326  -9.126  15.326  0.00  0.00    +0.140 C 
BRANCH  17   7
ATOM      5  O   UNL     1      -9.316 -10.026  12.801  0.00  0.00    -0.253 OA
ATOM      7  N   UNL     1      -8.973  -9.041  14.866  0.00  0.00    -0.297 N 
ATOM     10  N   UNL     1      -7.180  -9.291  13.437  0.00  0.00    -0.269 N 
ATOM     26  C   UNL     1      -8.550  -9.507  13.609  0.00  0.00    +0.304 C 
ATOM     35  H   UNL     1      -8.275  -8.665  15.500  0.00  0.00    +0.150 HD
ATOM     36  H   UNL     1      -6.688  -8.845  14.207  0.00  0.00    +0.156 HD
BRANCH  10  27
ATOM     27  C   UNL     1      -6.383  -9.619  12.314  0.00  0.00    +0.035 A 
ATOM     28  C   UNL     1      -6.129 -10.955  12.006  0.00  0.00    +0.027 A 
ATOM     29  C   UNL     1      -5.853  -8.606  11.516  0.00  0.00    +0.027 A 
ATOM     30  C   UNL     1      -5.343 -11.278  10.900  0.00  0.00    +0.047 A 
ATOM     31  C   UNL     1      -5.067  -8.928  10.410  0.00  0.00    +0.047 A 
ATOM     32  C   UNL     1      -4.813 -10.265  10.102  0.00  0.00    +0.120 A 
BRANCH  32   6
ATOM      6  O   UNL     1      -4.045 -10.580   9.022  0.00  0.00    -0.495 OA
ATOM     33  C   UNL     1      -4.605 -11.485   8.071  0.00  0.00    +0.277 C 
ENDBRANCH  32   6
ENDBRANCH  10  27
ENDBRANCH  17   7
ENDBRANCH  12  17
TORSDOF 9
ENDMDL
MODEL 8
REMARK VINA RESULT:      -6.5     11.684     17.886
REMARK  Name = 75536427
REMARK  10 active torsions:
REMARK  status: ('A' for Active; 'I' for Inactive)
REMARK    1  A    between atoms: O_2  and  C_13
REMARK    2  A    between atoms: O_6  and  C_32
REMARK    3  A    between atoms: O_6  and  C_33
REMARK    4  A    between atoms: N_7  and  C_17
REMARK    5  A    between atoms: N_8  and  C_20
REMARK    6  A    between atoms: N_10  and  C_27
REMARK    7  A    between atoms: C_11  and  C_16
REMARK    8  A    between atoms: C_12  and  C_17
REMARK    9  A    between atoms: C_16  and  C_18
REMARK   10  A    between atoms: C_20  and  C_21
REMARK                            x       y       z     vdW  Elec       q    Type
REMARK                         _______ _______ _______ _____ _____    ______ ____
ROOT
ATOM      1  O   UNL     1      10.376   7.327   6.048  0.00  0.00    -0.369 OA
ATOM     11  C   UNL     1       9.131   7.742   6.617  0.00  0.00    +0.125 C 
ATOM     12  C   UNL     1      10.600   5.912   6.037  0.00  0.00    +0.164 C 
ATOM     13  C   UNL     1      10.475   5.317   7.446  0.00  0.00    +0.145 C 
ATOM     14  C   UNL     1       9.016   7.269   8.065  0.00  0.00    +0.034 C 
ATOM     15  C   UNL     1       9.195   5.755   8.152  0.00  0.00    +0.036 C 
ENDROOT
BRANCH  13   2
ATOM      2  O   UNL     1      11.583   5.760   8.234  0.00  0.00    -0.389 OA
ATOM     34  H   UNL     1      12.393   5.414   7.823  0.00  0.00    +0.210 HD
ENDBRANCH  13   2
BRANCH  11  16
ATOM     16  C   UNL     1       9.075   9.263   6.538  0.00  0.00    +0.090 C 
BRANCH  16  18
ATOM      3  O   UNL     1      11.816  10.530   8.505  0.00  0.00    -0.358 OA
ATOM      9  N   UNL     1      11.300   9.846   7.411  0.00  0.00    -0.083 NA
ATOM     18  C   UNL     1       9.973   9.908   7.558  0.00  0.00    +0.086 A 
ATOM     19  C   UNL     1       9.598  10.612   8.716  0.00  0.00    +0.072 A 
ATOM     21  C   UNL     1      10.793  10.981   9.274  0.00  0.00    +0.151 A 
BRANCH  21  20
ATOM     20  C   UNL     1      11.162  11.732  10.480  0.00  0.00    +0.161 C 
BRANCH  20   8
ATOM      4  O   UNL     1       8.800  13.975  13.128  0.00  0.00    -0.377 OA
ATOM      8  N   UNL     1      10.008  12.247  11.215  0.00  0.00    -0.291 NA
ATOM     22  C   UNL     1      10.170  12.028  12.659  0.00  0.00    +0.113 C 
ATOM     23  C   UNL     1       9.811  13.678  10.943  0.00  0.00    +0.113 C 
ATOM     24  C   UNL     1       8.960  12.583  13.406  0.00  0.00    +0.175 C 
ATOM     25  C   UNL     1       8.611  14.195  11.729  0.00  0.00    +0.175 C 
ENDBRANCH  20   8
ENDBRANCH  21  20
ENDBRANCH  16  18
ENDBRANCH  11  16
BRANCH  12  17
ATOM     17  C   UNL     1       9.699   5.220   5.016  0.00  0.00    +0.140 C 
BRANCH  17   7
ATOM      5  O   UNL     1      11.498   6.053   2.949  0.00  0.00    -0.253 OA
ATOM      7  N   UNL     1      10.462   4.371   4.152  0.00  0.00    -0.297 N 
ATOM     10  N   UNL     1      11.934   3.797   2.472  0.00  0.00    -0.269 N 
ATOM     26  C   UNL     1      11.327   4.854   3.156  0.00  0.00    +0.304 C 
ATOM     35  H   UNL     1      10.336   3.367   4.234  0.00  0.00    +0.150 HD
ATOM     36  H   UNL     1      11.684   2.857   2.771  0.00  0.00    +0.156 HD
BRANCH  10  27
ATOM     27  C   UNL     1      12.863   3.870   1.407  0.00  0.00    +0.035 A 
ATOM     28  C   UNL     1      12.412   3.866   0.088  0.00  0.00    +0.027 A 
ATOM     29  C   UNL     1      14.229   3.946   1.677  0.00  0.00    +0.027 A 
ATOM     30  C   UNL     1      13.327   3.938  -0.962  0.00  0.00    +0.047 A 
ATOM     31  C   UNL     1      15.145   4.017   0.628  0.00  0.00    +0.047 A 
ATOM     32  C   UNL     1      14.693   4.014  -0.692  0.00  0.00    +0.120 A 
BRANCH  32   6
ATOM      6  O   UNL     1      15.587   4.084  -1.718  0.00  0.00    -0.495 OA
ATOM     33  C   UNL     1      16.836   4.720  -1.447  0.00  0.00    +0.277 C 
ENDBRANCH  32   6
ENDBRANCH  10  27
ENDBRANCH  17   7
ENDBRANCH  12  17
TORSDOF 9
ENDMDL
MODEL 9
REMARK VINA RESULT:      -6.5     29.803     30.995
REMARK  Name = 75536427
REMARK  10 active torsions:
REMARK  status: ('A' for Active; 'I' for Inactive)
REMARK    1  A    between atoms: O_2  and  C_13
REMARK    2  A    between atoms: O_6  and  C_32
REMARK    3  A    between atoms: O_6  and  C_33
REMARK    4  A    between atoms: N_7  and  C_17
REMARK    5  A    between atoms: N_8  and  C_20
REMARK    6  A    between atoms: N_10  and  C_27
REMARK    7  A    between atoms: C_11  and  C_16
REMARK    8  A    between atoms: C_12  and  C_17
REMARK    9  A    between atoms: C_16  and  C_18
REMARK   10  A    between atoms: C_20  and  C_21
REMARK                            x       y       z     vdW  Elec       q    Type
REMARK                         _______ _______ _______ _____ _____    ______ ____
ROOT
ATOM      1  O   UNL     1     -12.162  -3.950  12.132  0.00  0.00    -0.369 OA
ATOM     11  C   UNL     1     -12.580  -4.385  10.837  0.00  0.00    +0.125 C 
ATOM     12  C   UNL     1     -12.918  -4.480  13.228  0.00  0.00    +0.164 C 
ATOM     13  C   UNL     1     -14.415  -4.187  13.065  0.00  0.00    +0.145 C 
ATOM     14  C   UNL     1     -14.038  -4.007  10.585  0.00  0.00    +0.034 C 
ATOM     15  C   UNL     1     -14.937  -4.571  11.683  0.00  0.00    +0.036 C 
ENDROOT
BRANCH  13   2
ATOM      2  O   UNL     1     -14.632  -2.784  13.239  0.00  0.00    -0.389 OA
ATOM     34  H   UNL     1     -14.325  -2.336  12.433  0.00  0.00    +0.210 HD
ENDBRANCH  13   2
BRANCH  11  16
ATOM     16  C   UNL     1     -11.665  -3.725   9.813  0.00  0.00    +0.090 C 
BRANCH  16  18
ATOM      3  O   UNL     1      -8.853  -5.413   8.319  0.00  0.00    -0.358 OA
ATOM      9  N   UNL     1      -9.501  -4.273   8.778  0.00  0.00    -0.083 NA
ATOM     18  C   UNL     1     -10.682  -4.704   9.229  0.00  0.00    +0.086 A 
ATOM     19  C   UNL     1     -10.834  -6.094   9.082  0.00  0.00    +0.072 A 
ATOM     21  C   UNL     1      -9.657  -6.491   8.505  0.00  0.00    +0.151 A 
BRANCH  21  20
ATOM     20  C   UNL     1      -9.124  -7.788   8.072  0.00  0.00    +0.161 C 
BRANCH  20   8
ATOM      4  O   UNL     1      -5.958  -9.948   9.783  0.00  0.00    -0.377 OA
ATOM      8  N   UNL     1      -7.836  -8.115   8.681  0.00  0.00    -0.291 NA
ATOM     22  C   UNL     1      -8.024  -8.697  10.017  0.00  0.00    +0.113 C 
ATOM     23  C   UNL     1      -7.076  -9.041   7.830  0.00  0.00    +0.113 C 
ATOM     24  C   UNL     1      -6.667  -9.041  10.627  0.00  0.00    +0.175 C 
ATOM     25  C   UNL     1      -5.743  -9.377   8.491  0.00  0.00    +0.175 C 
ENDBRANCH  20   8
ENDBRANCH  21  20
ENDBRANCH  16  18
ENDBRANCH  11  16
BRANCH  12  17
ATOM     17  C   UNL     1     -12.621  -5.963  13.435  0.00  0.00    +0.140 C 
BRANCH  17   7
ATOM      5  O   UNL     1     -11.423  -8.394  14.363  0.00  0.00    -0.253 OA
ATOM      7  N   UNL     1     -12.041  -6.195  14.724  0.00  0.00    -0.297 N 
ATOM     10  N   UNL     1     -10.986  -7.350  16.419  0.00  0.00    -0.269 N 
ATOM     26  C   UNL     1     -11.470  -7.420  15.109  0.00  0.00    +0.304 C 
ATOM     35  H   UNL     1     -12.086  -5.447  15.410  0.00  0.00    +0.150 HD
ATOM     36  H   UNL     1     -11.103  -6.462  16.901  0.00  0.00    +0.156 HD
BRANCH  10  27
ATOM     27  C   UNL     1     -10.347  -8.368  17.164  0.00  0.00    +0.035 A 
ATOM     28  C   UNL     1     -11.070  -9.104  18.102  0.00  0.00    +0.027 A 
ATOM     29  C   UNL     1      -8.993  -8.636  16.961  0.00  0.00    +0.027 A 
ATOM     30  C   UNL     1     -10.440 -10.108  18.837  0.00  0.00    +0.047 A 
ATOM     31  C   UNL     1      -8.362  -9.639  17.696  0.00  0.00    +0.047 A 
ATOM     32  C   UNL     1      -9.087 -10.376  18.634  0.00  0.00    +0.120 A 
BRANCH  32   6
ATOM      6  O   UNL     1      -8.472 -11.356  19.352  0.00  0.00    -0.495 OA
ATOM     33  C   UNL     1      -7.048 -11.419  19.276  0.00  0.00    +0.277 C 
ENDBRANCH  32   6
ENDBRANCH  10  27
ENDBRANCH  17   7
ENDBRANCH  12  17
TORSDOF 9
ENDMDL
MODEL 10
REMARK VINA RESULT:      -6.5     14.323     18.506
REMARK  Name = 75536427
REMARK  10 active torsions:
REMARK  status: ('A' for Active; 'I' for Inactive)
REMARK    1  A    between atoms: O_2  and  C_13
REMARK    2  A    between atoms: O_6  and  C_32
REMARK    3  A    between atoms: O_6  and  C_33
REMARK    4  A    between atoms: N_7  and  C_17
REMARK    5  A    between atoms: N_8  and  C_20
REMARK    6  A    between atoms: N_10  and  C_27
REMARK    7  A    between atoms: C_11  and  C_16
REMARK    8  A    between atoms: C_12  and  C_17
REMARK    9  A    between atoms: C_16  and  C_18
REMARK   10  A    between atoms: C_20  and  C_21
REMARK                            x       y       z     vdW  Elec       q    Type
REMARK                         _______ _______ _______ _____ _____    ______ ____
ROOT
ATOM      1  O   UNL     1      10.783   7.009   5.643  0.00  0.00    -0.369 OA
ATOM     11  C   UNL     1      10.388   5.642   5.509  0.00  0.00    +0.125 C 
ATOM     12  C   UNL     1      11.194   7.399   6.959  0.00  0.00    +0.164 C 
ATOM     13  C   UNL     1      10.106   7.093   7.996  0.00  0.00    +0.145 C 
ATOM     14  C   UNL     1       9.223   5.323   6.444  0.00  0.00    +0.034 C 
ATOM     15  C   UNL     1       9.584   5.663   7.888  0.00  0.00    +0.036 C 
ENDROOT
BRANCH  13   2
ATOM      2  O   UNL     1       9.003   7.977   7.783  0.00  0.00    -0.389 OA
ATOM     34  H   UNL     1       9.322   8.721   7.243  0.00  0.00    +0.210 HD
ENDBRANCH  13   2
BRANCH  11  16
ATOM     16  C   UNL     1       9.992   5.419   4.054  0.00  0.00    +0.090 C 
BRANCH  16  18
ATOM      3  O   UNL     1      13.086   5.408   2.205  0.00  0.00    -0.358 OA
ATOM      9  N   UNL     1      12.156   6.011   3.044  0.00  0.00    -0.083 NA
ATOM     18  C   UNL     1      11.186   5.104   3.193  0.00  0.00    +0.086 A 
ATOM     19  C   UNL     1      11.446   3.922   2.479  0.00  0.00    +0.072 A 
ATOM     21  C   UNL     1      12.652   4.164   1.876  0.00  0.00    +0.151 A 
BRANCH  21  20
ATOM     20  C   UNL     1      13.521   3.381   0.990  0.00  0.00    +0.161 C 
BRANCH  20   8
ATOM      4  O   UNL     1      16.176   4.546  -2.045  0.00  0.00    -0.377 OA
ATOM      8  N   UNL     1      14.285   4.205   0.055  0.00  0.00    -0.291 NA
ATOM     22  C   UNL     1      15.728   4.056   0.289  0.00  0.00    +0.113 C 
ATOM     23  C   UNL     1      13.961   3.855  -1.335  0.00  0.00    +0.113 C 
ATOM     24  C   UNL     1      16.505   4.916  -0.706  0.00  0.00    +0.175 C 
ATOM     25  C   UNL     1      14.779   4.718  -2.291  0.00  0.00    +0.175 C 
ENDBRANCH  20   8
ENDBRANCH  21  20
ENDBRANCH  16  18
ENDBRANCH  11  16
BRANCH  12  17
ATOM     17  C   UNL     1      12.548   6.788   7.317  0.00  0.00    +0.140 C 
BRANCH  17   7
ATOM      5  O   UNL     1      14.485   8.535   6.133  0.00  0.00    -0.253 OA
ATOM      7  N   UNL     1      13.322   6.535   6.139  0.00  0.00    -0.297 N 
ATOM     10  N   UNL     1      14.859   6.927   4.465  0.00  0.00    -0.269 N 
ATOM     26  C   UNL     1      14.257   7.444   5.616  0.00  0.00    +0.304 C 
ATOM     35  H   UNL     1      13.153   5.672   5.632  0.00  0.00    +0.150 HD
ATOM     36  H   UNL     1      14.557   6.002   4.169  0.00  0.00    +0.156 HD
BRANCH  10  27
ATOM     27  C   UNL     1      15.845   7.534   3.652  0.00  0.00    +0.035 A 
ATOM     28  C   UNL     1      15.606   7.726   2.292  0.00  0.00    +0.027 A 
ATOM     29  C   UNL     1      17.056   7.941   4.212  0.00  0.00    +0.027 A 
ATOM     30  C   UNL     1      16.578   8.324   1.491  0.00  0.00    +0.047 A 
ATOM     31  C   UNL     1      18.029   8.540   3.411  0.00  0.00    +0.047 A 
ATOM     32  C   UNL     1      17.789   8.731   2.050  0.00  0.00    +0.120 A 
BRANCH  32   6
ATOM      6  O   UNL     1      18.739   9.315   1.268  0.00  0.00    -0.495 OA
ATOM     33  C   UNL     1      18.819  10.740   1.301  0.00  0.00    +0.277 C 
ENDBRANCH  32   6
ENDBRANCH  10  27
ENDBRANCH  17   7
ENDBRANCH  12  17
TORSDOF 9
ENDMDL
