MODEL 1
REMARK VINA RESULT:      -6.9      0.000      0.000
REMARK  Name = 45783385
REMARK  8 active torsions:
REMARK  status: ('A' for Active; 'I' for Inactive)
REMARK    1  A    between atoms: O_2  and  C_27
REMARK    2  A    between atoms: O_2  and  C_28
REMARK    3  A    between atoms: N_3  and  C_9
REMARK    4  A    between atoms: N_4  and  C_19
REMARK    5  A    between atoms: N_7  and  C_25
REMARK    6  A    between atoms: C_10  and  C_18
REMARK    7  A    between atoms: C_20  and  C_21
REMARK    8  A    between atoms: C_25  and  C_27
REMARK                            x       y       z     vdW  Elec       q    Type
REMARK                         _______ _______ _______ _____ _____    ______ ____
ROOT
ATOM      1  O   UNL     1      16.873   6.458  21.042  0.00  0.00    -0.336 OA
ATOM      5  N   UNL     1      16.172   8.450  20.297  0.00  0.00    -0.190 NA
ATOM      6  N   UNL     1      15.720   6.208  20.287  0.00  0.00    -0.056 NA
ATOM     18  C   UNL     1      17.068   7.802  20.997  0.00  0.00    +0.245 A 
ATOM     20  C   UNL     1      15.367   7.431  19.881  0.00  0.00    +0.205 A 
ENDROOT
BRANCH  20  21
ATOM      7  N   UNL     1      12.764   6.619  20.680  0.00  0.00    -0.326 N 
ATOM      8  N   UNL     1      11.832   7.489  18.687  0.00  0.00    -0.240 NA
ATOM     21  C   UNL     1      14.213   7.667  19.062  0.00  0.00    +0.062 A 
ATOM     22  C   UNL     1      12.937   7.278  19.437  0.00  0.00    +0.130 A 
ATOM     23  C   UNL     1      14.365   8.313  17.841  0.00  0.00    +0.016 A 
ATOM     24  C   UNL     1      13.251   8.548  17.041  0.00  0.00    +0.020 A 
ATOM     26  C   UNL     1      12.018   8.119  17.505  0.00  0.00    +0.113 A 
ATOM     29  H   UNL     1      13.580   6.139  21.046  0.00  0.00    +0.148 HD
BRANCH   7  25
ATOM     25  C   UNL     1      11.490   6.182  21.149  0.00  0.00    +0.131 C 
BRANCH  25  27
ATOM     27  C   UNL     1      10.824   7.287  21.949  0.00  0.00    +0.178 C 
BRANCH  27   2
ATOM      2  O   UNL     1      11.804   8.232  22.361  0.00  0.00    -0.381 OA
ATOM     28  C   UNL     1      11.242   9.526  22.534  0.00  0.00    +0.194 C 
ENDBRANCH  27   2
ENDBRANCH  25  27
ENDBRANCH   7  25
ENDBRANCH  20  21
BRANCH  18  10
ATOM      3  N   UNL     1      19.550   7.928  21.133  0.00  0.00    -0.288 NA
ATOM     10  C   UNL     1      18.271   8.335  21.748  0.00  0.00    +0.146 C 
ATOM     11  C   UNL     1      20.512   8.985  21.441  0.00  0.00    +0.085 C 
ATOM     14  C   UNL     1      18.322   9.874  21.772  0.00  0.00    +0.030 C 
ATOM     15  C   UNL     1      19.689  10.236  21.210  0.00  0.00    +0.017 C 
BRANCH   3   9
ATOM      4  N   UNL     1      22.138   4.611  21.738  0.00  0.00    -0.305 NA
ATOM      9  C   UNL     1      20.012   6.616  21.582  0.00  0.00    +0.060 C 
ATOM     12  C   UNL     1      21.213   6.770  22.519  0.00  0.00    +0.034 C 
ATOM     13  C   UNL     1      20.390   5.731  20.390  0.00  0.00    +0.034 C 
ATOM     16  C   UNL     1      21.774   5.403  22.920  0.00  0.00    +0.085 C 
ATOM     17  C   UNL     1      20.978   4.398  20.861  0.00  0.00    +0.085 C 
ATOM     19  C   UNL     1      22.718   3.329  22.138  0.00  0.00    +0.104 C 
ENDBRANCH   3   9
ENDBRANCH  18  10
TORSDOF 6
ENDMDL
MODEL 2
REMARK VINA RESULT:      -6.8      2.493      8.131
REMARK  Name = 45783385
REMARK  8 active torsions:
REMARK  status: ('A' for Active; 'I' for Inactive)
REMARK    1  A    between atoms: O_2  and  C_27
REMARK    2  A    between atoms: O_2  and  C_28
REMARK    3  A    between atoms: N_3  and  C_9
REMARK    4  A    between atoms: N_4  and  C_19
REMARK    5  A    between atoms: N_7  and  C_25
REMARK    6  A    between atoms: C_10  and  C_18
REMARK    7  A    between atoms: C_20  and  C_21
REMARK    8  A    between atoms: C_25  and  C_27
REMARK                            x       y       z     vdW  Elec       q    Type
REMARK                         _______ _______ _______ _____ _____    ______ ____
ROOT
ATOM      1  O   UNL     1      17.209   9.265  21.597  0.00  0.00    -0.336 OA
ATOM      5  N   UNL     1      17.098   7.072  21.159  0.00  0.00    -0.190 NA
ATOM      6  N   UNL     1      18.500   8.762  21.798  0.00  0.00    -0.056 NA
ATOM     18  C   UNL     1      16.446   8.205  21.223  0.00  0.00    +0.245 A 
ATOM     20  C   UNL     1      18.354   7.464  21.520  0.00  0.00    +0.205 A 
ENDROOT
BRANCH  20  21
ATOM      7  N   UNL     1      20.104   7.374  23.756  0.00  0.00    -0.326 N 
ATOM      8  N   UNL     1      21.337   5.607  22.778  0.00  0.00    -0.240 NA
ATOM     21  C   UNL     1      19.442   6.531  21.595  0.00  0.00    +0.062 A 
ATOM     22  C   UNL     1      20.304   6.474  22.679  0.00  0.00    +0.130 A 
ATOM     23  C   UNL     1      19.651   5.642  20.548  0.00  0.00    +0.016 A 
ATOM     24  C   UNL     1      20.704   4.734  20.614  0.00  0.00    +0.020 A 
ATOM     26  C   UNL     1      21.510   4.757  21.741  0.00  0.00    +0.113 A 
ATOM     29  H   UNL     1      19.609   8.232  23.532  0.00  0.00    +0.148 HD
BRANCH   7  25
ATOM     25  C   UNL     1      20.940   7.390  24.911  0.00  0.00    +0.131 C 
BRANCH  25  27
ATOM     27  C   UNL     1      20.094   7.273  26.166  0.00  0.00    +0.178 C 
BRANCH  27   2
ATOM      2  O   UNL     1      20.031   5.910  26.571  0.00  0.00    -0.381 OA
ATOM     28  C   UNL     1      20.526   5.735  27.891  0.00  0.00    +0.194 C 
ENDBRANCH  27   2
ENDBRANCH  25  27
ENDBRANCH   7  25
ENDBRANCH  20  21
BRANCH  18  10
ATOM      3  N   UNL     1      14.495   7.801  19.732  0.00  0.00    -0.288 NA
ATOM     10  C   UNL     1      14.986   8.490  20.941  0.00  0.00    +0.146 C 
ATOM     11  C   UNL     1      13.070   7.555  19.944  0.00  0.00    +0.085 C 
ATOM     14  C   UNL     1      14.057   8.005  22.070  0.00  0.00    +0.030 C 
ATOM     15  C   UNL     1      13.042   7.098  21.389  0.00  0.00    +0.017 C 
BRANCH   3   9
ATOM      4  N   UNL     1      13.758  10.279  16.358  0.00  0.00    -0.305 NA
ATOM      9  C   UNL     1      14.746   8.549  18.502  0.00  0.00    +0.060 C 
ATOM     12  C   UNL     1      14.459  10.038  18.719  0.00  0.00    +0.034 C 
ATOM     13  C   UNL     1      13.889   8.015  17.350  0.00  0.00    +0.034 C 
ATOM     16  C   UNL     1      14.620  10.823  17.415  0.00  0.00    +0.085 C 
ATOM     17  C   UNL     1      14.069   8.867  16.091  0.00  0.00    +0.085 C 
ATOM     19  C   UNL     1      13.887  11.070  15.134  0.00  0.00    +0.104 C 
ENDBRANCH   3   9
ENDBRANCH  18  10
TORSDOF 6
ENDMDL
MODEL 3
REMARK VINA RESULT:      -6.7     16.510     20.247
REMARK  Name = 45783385
REMARK  8 active torsions:
REMARK  status: ('A' for Active; 'I' for Inactive)
REMARK    1  A    between atoms: O_2  and  C_27
REMARK    2  A    between atoms: O_2  and  C_28
REMARK    3  A    between atoms: N_3  and  C_9
REMARK    4  A    between atoms: N_4  and  C_19
REMARK    5  A    between atoms: N_7  and  C_25
REMARK    6  A    between atoms: C_10  and  C_18
REMARK    7  A    between atoms: C_20  and  C_21
REMARK    8  A    between atoms: C_25  and  C_27
REMARK                            x       y       z     vdW  Elec       q    Type
REMARK                         _______ _______ _______ _____ _____    ______ ____
ROOT
ATOM      1  O   UNL     1      11.287   3.386   3.140  0.00  0.00    -0.336 OA
ATOM      5  N   UNL     1      11.436   5.426   2.226  0.00  0.00    -0.190 NA
ATOM      6  N   UNL     1      10.486   4.225   3.924  0.00  0.00    -0.056 NA
ATOM     18  C   UNL     1      11.810   4.173   2.162  0.00  0.00    +0.245 A 
ATOM     20  C   UNL     1      10.625   5.409   3.322  0.00  0.00    +0.205 A 
ENDROOT
BRANCH  20  21
ATOM      7  N   UNL     1      10.725   6.201   6.048  0.00  0.00    -0.326 N 
ATOM      8  N   UNL     1       9.401   8.108   5.590  0.00  0.00    -0.240 NA
ATOM     21  C   UNL     1       9.969   6.595   3.792  0.00  0.00    +0.062 A 
ATOM     22  C   UNL     1      10.008   6.996   5.119  0.00  0.00    +0.130 A 
ATOM     23  C   UNL     1       9.263   7.386   2.894  0.00  0.00    +0.016 A 
ATOM     24  C   UNL     1       8.624   8.538   3.342  0.00  0.00    +0.020 A 
ATOM     26  C   UNL     1       8.723   8.852   4.688  0.00  0.00    +0.113 A 
ATOM     29  H   UNL     1      10.846   5.224   5.799  0.00  0.00    +0.148 HD
BRANCH   7  25
ATOM     25  C   UNL     1      10.820   6.533   7.432  0.00  0.00    +0.131 C 
BRANCH  25  27
ATOM     27  C   UNL     1       9.761   5.782   8.220  0.00  0.00    +0.178 C 
BRANCH  27   2
ATOM      2  O   UNL     1      10.353   5.199   9.375  0.00  0.00    -0.381 OA
ATOM     28  C   UNL     1       9.377   4.588  10.208  0.00  0.00    +0.194 C 
ENDBRANCH  27   2
ENDBRANCH  25  27
ENDBRANCH   7  25
ENDBRANCH  20  21
BRANCH  18  10
ATOM      3  N   UNL     1      12.722   4.155  -0.153  0.00  0.00    -0.288 NA
ATOM     10  C   UNL     1      12.726   3.493   1.166  0.00  0.00    +0.146 C 
ATOM     11  C   UNL     1      14.041   3.919  -0.738  0.00  0.00    +0.085 C 
ATOM     14  C   UNL     1      14.201   3.510   1.608  0.00  0.00    +0.030 C 
ATOM     15  C   UNL     1      14.956   4.144   0.449  0.00  0.00    +0.017 C 
BRANCH   3   9
ATOM      4  N   UNL     1      10.615   3.213  -3.722  0.00  0.00    -0.305 NA
ATOM      9  C   UNL     1      11.644   3.695  -1.025  0.00  0.00    +0.060 C 
ATOM     12  C   UNL     1      12.122   2.521  -1.885  0.00  0.00    +0.034 C 
ATOM     13  C   UNL     1      11.143   4.830  -1.923  0.00  0.00    +0.034 C 
ATOM     16  C   UNL     1      11.038   2.090  -2.875  0.00  0.00    +0.085 C 
ATOM     17  C   UNL     1      10.091   4.322  -2.913  0.00  0.00    +0.085 C 
ATOM     19  C   UNL     1       9.615   2.774  -4.696  0.00  0.00    +0.104 C 
ENDBRANCH   3   9
ENDBRANCH  18  10
TORSDOF 6
ENDMDL
MODEL 4
REMARK VINA RESULT:      -6.5     26.984     29.521
REMARK  Name = 45783385
REMARK  8 active torsions:
REMARK  status: ('A' for Active; 'I' for Inactive)
REMARK    1  A    between atoms: O_2  and  C_27
REMARK    2  A    between atoms: O_2  and  C_28
REMARK    3  A    between atoms: N_3  and  C_9
REMARK    4  A    between atoms: N_4  and  C_19
REMARK    5  A    between atoms: N_7  and  C_25
REMARK    6  A    between atoms: C_10  and  C_18
REMARK    7  A    between atoms: C_20  and  C_21
REMARK    8  A    between atoms: C_25  and  C_27
REMARK                            x       y       z     vdW  Elec       q    Type
REMARK                         _______ _______ _______ _____ _____    ______ ____
ROOT
ATOM      1  O   UNL     1      -2.045 -10.303  14.545  0.00  0.00    -0.336 OA
ATOM      5  N   UNL     1      -4.150 -11.036  14.763  0.00  0.00    -0.190 NA
ATOM      6  N   UNL     1      -2.301 -10.350  15.921  0.00  0.00    -0.056 NA
ATOM     18  C   UNL     1      -3.186 -10.723  13.936  0.00  0.00    +0.245 A 
ATOM     20  C   UNL     1      -3.561 -10.792  15.969  0.00  0.00    +0.205 A 
ENDROOT
BRANCH  20  21
ATOM      7  N   UNL     1      -6.169  -9.756  16.411  0.00  0.00    -0.326 N 
ATOM      8  N   UNL     1      -6.214 -10.677  18.590  0.00  0.00    -0.240 NA
ATOM     21  C   UNL     1      -4.259 -10.997  17.205  0.00  0.00    +0.062 A 
ATOM     22  C   UNL     1      -5.532 -10.499  17.437  0.00  0.00    +0.130 A 
ATOM     23  C   UNL     1      -3.650 -11.723  18.220  0.00  0.00    +0.016 A 
ATOM     24  C   UNL     1      -4.321 -11.928  19.422  0.00  0.00    +0.020 A 
ATOM     26  C   UNL     1      -5.590 -11.388  19.555  0.00  0.00    +0.113 A 
ATOM     29  H   UNL     1      -5.554  -9.312  15.736  0.00  0.00    +0.148 HD
BRANCH   7  25
ATOM     25  C   UNL     1      -7.476  -9.204  16.558  0.00  0.00    +0.131 C 
BRANCH  25  27
ATOM     27  C   UNL     1      -8.466  -9.982  15.710  0.00  0.00    +0.178 C 
BRANCH  27   2
ATOM      2  O   UNL     1      -9.693 -10.117  16.418  0.00  0.00    -0.381 OA
ATOM     28  C   UNL     1      -9.598  -9.585  17.732  0.00  0.00    +0.194 C 
ENDBRANCH  27   2
ENDBRANCH  25  27
ENDBRANCH   7  25
ENDBRANCH  20  21
BRANCH  18  10
ATOM      3  N   UNL     1      -4.061  -9.760  11.815  0.00  0.00    -0.288 NA
ATOM     10  C   UNL     1      -3.166 -10.765  12.422  0.00  0.00    +0.146 C 
ATOM     11  C   UNL     1      -3.472  -9.408  10.523  0.00  0.00    +0.085 C 
ATOM     14  C   UNL     1      -1.776 -10.454  11.837  0.00  0.00    +0.030 C 
ATOM     15  C   UNL     1      -2.001  -9.302  10.868  0.00  0.00    +0.017 C 
BRANCH   3   9
ATOM      4  N   UNL     1      -8.144  -9.824  10.635  0.00  0.00    -0.305 NA
ATOM      9  C   UNL     1      -5.441 -10.224  11.682  0.00  0.00    +0.060 C 
ATOM     12  C   UNL     1      -5.786 -10.442  10.206  0.00  0.00    +0.034 C 
ATOM     13  C   UNL     1      -6.418  -9.222  12.304  0.00  0.00    +0.034 C 
ATOM     16  C   UNL     1      -7.257 -10.832  10.040  0.00  0.00    +0.085 C 
ATOM     17  C   UNL     1      -7.868  -9.651  12.068  0.00  0.00    +0.085 C 
ATOM     19  C   UNL     1      -9.546 -10.185  10.424  0.00  0.00    +0.104 C 
ENDBRANCH   3   9
ENDBRANCH  18  10
TORSDOF 6
ENDMDL
MODEL 5
REMARK VINA RESULT:      -6.4     16.476     20.379
REMARK  Name = 45783385
REMARK  8 active torsions:
REMARK  status: ('A' for Active; 'I' for Inactive)
REMARK    1  A    between atoms: O_2  and  C_27
REMARK    2  A    between atoms: O_2  and  C_28
REMARK    3  A    between atoms: N_3  and  C_9
REMARK    4  A    between atoms: N_4  and  C_19
REMARK    5  A    between atoms: N_7  and  C_25
REMARK    6  A    between atoms: C_10  and  C_18
REMARK    7  A    between atoms: C_20  and  C_21
REMARK    8  A    between atoms: C_25  and  C_27
REMARK                            x       y       z     vdW  Elec       q    Type
REMARK                         _______ _______ _______ _____ _____    ______ ____
ROOT
ATOM      1  O   UNL     1      11.612   5.992   1.468  0.00  0.00    -0.336 OA
ATOM      5  N   UNL     1      11.477   4.678   3.277  0.00  0.00    -0.190 NA
ATOM      6  N   UNL     1      10.894   6.719   2.426  0.00  0.00    -0.056 NA
ATOM     18  C   UNL     1      11.917   4.802   2.050  0.00  0.00    +0.245 A 
ATOM     20  C   UNL     1      10.857   5.879   3.463  0.00  0.00    +0.205 A 
ENDROOT
BRANCH  20  21
ATOM      7  N   UNL     1      12.323   6.428   5.834  0.00  0.00    -0.326 N 
ATOM      8  N   UNL     1      10.321   6.791   7.042  0.00  0.00    -0.240 NA
ATOM     21  C   UNL     1      10.206   6.207   4.699  0.00  0.00    +0.062 A 
ATOM     22  C   UNL     1      10.906   6.478   5.864  0.00  0.00    +0.130 A 
ATOM     23  C   UNL     1       8.819   6.262   4.745  0.00  0.00    +0.016 A 
ATOM     24  C   UNL     1       8.180   6.581   5.939  0.00  0.00    +0.020 A 
ATOM     26  C   UNL     1       8.970   6.834   7.049  0.00  0.00    +0.113 A 
ATOM     29  H   UNL     1      12.732   5.850   5.106  0.00  0.00    +0.148 HD
BRANCH   7  25
ATOM     25  C   UNL     1      13.127   6.690   6.982  0.00  0.00    +0.131 C 
BRANCH  25  27
ATOM     27  C   UNL     1      14.354   7.492   6.585  0.00  0.00    +0.178 C 
BRANCH  27   2
ATOM      2  O   UNL     1      14.421   7.584   5.167  0.00  0.00    -0.381 OA
ATOM     28  C   UNL     1      15.765   7.551   4.706  0.00  0.00    +0.194 C 
ENDBRANCH  27   2
ENDBRANCH  25  27
ENDBRANCH   7  25
ENDBRANCH  20  21
BRANCH  18  10
ATOM      3  N   UNL     1      12.797   4.233  -0.207  0.00  0.00    -0.288 NA
ATOM     10  C   UNL     1      12.704   3.821   1.208  0.00  0.00    +0.146 C 
ATOM     11  C   UNL     1      14.057   3.692  -0.714  0.00  0.00    +0.085 C 
ATOM     14  C   UNL     1      14.167   3.681   1.670  0.00  0.00    +0.030 C 
ATOM     15  C   UNL     1      15.005   3.974   0.434  0.00  0.00    +0.017 C 
BRANCH   3   9
ATOM      4  N   UNL     1      10.426   3.387  -3.632  0.00  0.00    -0.305 NA
ATOM      9  C   UNL     1      11.652   3.804  -1.007  0.00  0.00    +0.060 C 
ATOM     12  C   UNL     1      12.050   2.641  -1.921  0.00  0.00    +0.034 C 
ATOM     13  C   UNL     1      11.104   4.962  -1.846  0.00  0.00    +0.034 C 
ATOM     16  C   UNL     1      10.892   2.243  -2.838  0.00  0.00    +0.085 C 
ATOM     17  C   UNL     1       9.977   4.488  -2.767  0.00  0.00    +0.085 C 
ATOM     19  C   UNL     1       9.353   2.980  -4.538  0.00  0.00    +0.104 C 
ENDBRANCH   3   9
ENDBRANCH  18  10
TORSDOF 6
ENDMDL
MODEL 6
REMARK VINA RESULT:      -6.3     26.576     30.415
REMARK  Name = 45783385
REMARK  8 active torsions:
REMARK  status: ('A' for Active; 'I' for Inactive)
REMARK    1  A    between atoms: O_2  and  C_27
REMARK    2  A    between atoms: O_2  and  C_28
REMARK    3  A    between atoms: N_3  and  C_9
REMARK    4  A    between atoms: N_4  and  C_19
REMARK    5  A    between atoms: N_7  and  C_25
REMARK    6  A    between atoms: C_10  and  C_18
REMARK    7  A    between atoms: C_20  and  C_21
REMARK    8  A    between atoms: C_25  and  C_27
REMARK                            x       y       z     vdW  Elec       q    Type
REMARK                         _______ _______ _______ _____ _____    ______ ____
ROOT
ATOM      1  O   UNL     1      -6.675 -12.050  17.066  0.00  0.00    -0.336 OA
ATOM      5  N   UNL     1      -5.685 -10.052  16.858  0.00  0.00    -0.190 NA
ATOM      6  N   UNL     1      -5.522 -12.264  16.302  0.00  0.00    -0.056 NA
ATOM     18  C   UNL     1      -6.696 -10.721  17.351  0.00  0.00    +0.245 A 
ATOM     20  C   UNL     1      -4.992 -11.041  16.223  0.00  0.00    +0.205 A 
ENDROOT
BRANCH  20  21
ATOM      7  N   UNL     1      -4.947 -10.612  13.415  0.00  0.00    -0.326 N 
ATOM      8  N   UNL     1      -2.602 -10.305  13.453  0.00  0.00    -0.240 NA
ATOM     21  C   UNL     1      -3.773 -10.773  15.515  0.00  0.00    +0.062 A 
ATOM     22  C   UNL     1      -3.734 -10.561  14.146  0.00  0.00    +0.130 A 
ATOM     23  C   UNL     1      -2.575 -10.718  16.217  0.00  0.00    +0.016 A 
ATOM     24  C   UNL     1      -1.389 -10.458  15.538  0.00  0.00    +0.020 A 
ATOM     26  C   UNL     1      -1.456 -10.260  14.168  0.00  0.00    +0.113 A 
ATOM     29  H   UNL     1      -5.697 -11.154  13.834  0.00  0.00    +0.148 HD
BRANCH   7  25
ATOM     25  C   UNL     1      -5.006 -10.408  12.005  0.00  0.00    +0.131 C 
BRANCH  25  27
ATOM     27  C   UNL     1      -5.602  -9.044  11.702  0.00  0.00    +0.178 C 
BRANCH  27   2
ATOM      2  O   UNL     1      -4.843  -8.412  10.678  0.00  0.00    -0.381 OA
ATOM     28  C   UNL     1      -3.731  -9.205  10.288  0.00  0.00    +0.194 C 
ENDBRANCH  27   2
ENDBRANCH  25  27
ENDBRANCH   7  25
ENDBRANCH  20  21
BRANCH  18  10
ATOM      3  N   UNL     1      -9.155 -10.362  17.483  0.00  0.00    -0.288 NA
ATOM     10  C   UNL     1      -7.861 -10.226  18.182  0.00  0.00    +0.146 C 
ATOM     11  C   UNL     1     -10.168 -10.548  18.520  0.00  0.00    +0.085 C 
ATOM     14  C   UNL     1      -8.039 -11.021  19.489  0.00  0.00    +0.030 C 
ATOM     15  C   UNL     1      -9.479 -11.513  19.463  0.00  0.00    +0.017 C 
BRANCH   3   9
ATOM      4  N   UNL     1     -11.432  -7.414  15.435  0.00  0.00    -0.305 NA
ATOM      9  C   UNL     1      -9.460  -9.228  16.613  0.00  0.00    +0.060 C 
ATOM     12  C   UNL     1     -10.121  -8.106  17.418  0.00  0.00    +0.034 C 
ATOM     13  C   UNL     1     -10.375  -9.653  15.460  0.00  0.00    +0.034 C 
ATOM     16  C   UNL     1     -10.539  -6.950  16.505  0.00  0.00    +0.085 C 
ATOM     17  C   UNL     1     -10.785  -8.446  14.612  0.00  0.00    +0.085 C 
ATOM     19  C   UNL     1     -11.861  -6.291  14.603  0.00  0.00    +0.104 C 
ENDBRANCH   3   9
ENDBRANCH  18  10
TORSDOF 6
ENDMDL
MODEL 7
REMARK VINA RESULT:      -6.0     15.869     20.074
REMARK  Name = 45783385
REMARK  8 active torsions:
REMARK  status: ('A' for Active; 'I' for Inactive)
REMARK    1  A    between atoms: O_2  and  C_27
REMARK    2  A    between atoms: O_2  and  C_28
REMARK    3  A    between atoms: N_3  and  C_9
REMARK    4  A    between atoms: N_4  and  C_19
REMARK    5  A    between atoms: N_7  and  C_25
REMARK    6  A    between atoms: C_10  and  C_18
REMARK    7  A    between atoms: C_20  and  C_21
REMARK    8  A    between atoms: C_25  and  C_27
REMARK                            x       y       z     vdW  Elec       q    Type
REMARK                         _______ _______ _______ _____ _____    ______ ____
ROOT
ATOM      1  O   UNL     1      12.027   6.036   3.253  0.00  0.00    -0.336 OA
ATOM      5  N   UNL     1      10.329   4.853   4.109  0.00  0.00    -0.190 NA
ATOM      6  N   UNL     1      11.710   6.638   4.477  0.00  0.00    -0.056 NA
ATOM     18  C   UNL     1      11.166   4.993   3.113  0.00  0.00    +0.245 A 
ATOM     20  C   UNL     1      10.701   5.884   4.921  0.00  0.00    +0.205 A 
ENDROOT
BRANCH  20  21
ATOM      7  N   UNL     1       8.885   8.042   5.254  0.00  0.00    -0.326 N 
ATOM      8  N   UNL     1       8.517   7.444   7.513  0.00  0.00    -0.240 NA
ATOM     21  C   UNL     1      10.042   6.135   6.171  0.00  0.00    +0.062 A 
ATOM     22  C   UNL     1       9.154   7.183   6.349  0.00  0.00    +0.130 A 
ATOM     23  C   UNL     1      10.294   5.303   7.254  0.00  0.00    +0.016 A 
ATOM     24  C   UNL     1       9.658   5.539   8.469  0.00  0.00    +0.020 A 
ATOM     26  C   UNL     1       8.787   6.614   8.546  0.00  0.00    +0.113 A 
ATOM     29  H   UNL     1       9.604   8.090   4.539  0.00  0.00    +0.148 HD
BRANCH   7  25
ATOM     25  C   UNL     1       7.986   9.146   5.344  0.00  0.00    +0.131 C 
BRANCH  25  27
ATOM     27  C   UNL     1       7.367   9.423   3.985  0.00  0.00    +0.178 C 
BRANCH  27   2
ATOM      2  O   UNL     1       6.309  10.364   4.129  0.00  0.00    -0.381 OA
ATOM     28  C   UNL     1       5.312  10.182   3.133  0.00  0.00    +0.194 C 
ENDBRANCH  27   2
ENDBRANCH  25  27
ENDBRANCH   7  25
ENDBRANCH  20  21
BRANCH  18  10
ATOM      3  N   UNL     1      11.609   4.992   0.664  0.00  0.00    -0.288 NA
ATOM     10  C   UNL     1      11.305   4.168   1.851  0.00  0.00    +0.146 C 
ATOM     11  C   UNL     1      12.382   4.143  -0.242  0.00  0.00    +0.085 C 
ATOM     14  C   UNL     1      12.462   3.154   1.929  0.00  0.00    +0.030 C 
ATOM     15  C   UNL     1      13.330   3.446   0.713  0.00  0.00    +0.017 C 
BRANCH   3   9
ATOM      4  N   UNL     1       9.193   6.994  -2.203  0.00  0.00    -0.305 NA
ATOM      9  C   UNL     1      10.415   5.538   0.022  0.00  0.00    +0.060 C 
ATOM     12  C   UNL     1      10.222   4.906  -1.360  0.00  0.00    +0.034 C 
ATOM     13  C   UNL     1      10.511   7.061  -0.109  0.00  0.00    +0.034 C 
ATOM     16  C   UNL     1       9.034   5.538  -2.089  0.00  0.00    +0.085 C 
ATOM     17  C   UNL     1       9.313   7.621  -0.880  0.00  0.00    +0.085 C 
ATOM     19  C   UNL     1       8.075   7.575  -2.945  0.00  0.00    +0.104 C 
ENDBRANCH   3   9
ENDBRANCH  18  10
TORSDOF 6
ENDMDL
MODEL 8
REMARK VINA RESULT:      -6.0     26.893     29.706
REMARK  Name = 45783385
REMARK  8 active torsions:
REMARK  status: ('A' for Active; 'I' for Inactive)
REMARK    1  A    between atoms: O_2  and  C_27
REMARK    2  A    between atoms: O_2  and  C_28
REMARK    3  A    between atoms: N_3  and  C_9
REMARK    4  A    between atoms: N_4  and  C_19
REMARK    5  A    between atoms: N_7  and  C_25
REMARK    6  A    between atoms: C_10  and  C_18
REMARK    7  A    between atoms: C_20  and  C_21
REMARK    8  A    between atoms: C_25  and  C_27
REMARK                            x       y       z     vdW  Elec       q    Type
REMARK                         _______ _______ _______ _____ _____    ______ ____
ROOT
ATOM      1  O   UNL     1      -8.858 -10.002  12.665  0.00  0.00    -0.336 OA
ATOM      5  N   UNL     1      -6.796  -9.634  13.459  0.00  0.00    -0.190 NA
ATOM      6  N   UNL     1      -8.018  -9.924  11.547  0.00  0.00    -0.056 NA
ATOM     18  C   UNL     1      -8.059  -9.820  13.749  0.00  0.00    +0.245 A 
ATOM     20  C   UNL     1      -6.820  -9.707  12.097  0.00  0.00    +0.205 A 
ENDROOT
BRANCH  20  21
ATOM      7  N   UNL     1      -4.481 -11.238  12.604  0.00  0.00    -0.326 N 
ATOM      8  N   UNL     1      -3.343 -10.173  10.824  0.00  0.00    -0.240 NA
ATOM     21  C   UNL     1      -5.628  -9.555  11.313  0.00  0.00    +0.062 A 
ATOM     22  C   UNL     1      -4.479 -10.294  11.547  0.00  0.00    +0.130 A 
ATOM     23  C   UNL     1      -5.609  -8.634  10.272  0.00  0.00    +0.016 A 
ATOM     24  C   UNL     1      -4.458  -8.481   9.506  0.00  0.00    +0.020 A 
ATOM     26  C   UNL     1      -3.361  -9.268   9.821  0.00  0.00    +0.113 A 
ATOM     29  H   UNL     1      -5.150 -11.069  13.350  0.00  0.00    +0.148 HD
BRANCH   7  25
ATOM     25  C   UNL     1      -3.347 -12.043  12.920  0.00  0.00    +0.131 C 
BRANCH  25  27
ATOM     27  C   UNL     1      -2.996 -11.891  14.390  0.00  0.00    +0.178 C 
BRANCH  27   2
ATOM      2  O   UNL     1      -1.582 -11.856  14.539  0.00  0.00    -0.381 OA
ATOM     28  C   UNL     1      -1.188 -10.944  15.555  0.00  0.00    +0.194 C 
ENDBRANCH  27   2
ENDBRANCH  25  27
ENDBRANCH   7  25
ENDBRANCH  20  21
BRANCH  18  10
ATOM      3  N   UNL     1      -7.882  -9.334  16.183  0.00  0.00    -0.288 NA
ATOM     10  C   UNL     1      -8.737  -9.862  15.102  0.00  0.00    +0.146 C 
ATOM     11  C   UNL     1      -8.784  -8.776  17.190  0.00  0.00    +0.085 C 
ATOM     14  C   UNL     1     -10.011  -8.997  15.155  0.00  0.00    +0.030 C 
ATOM     15  C   UNL     1      -9.805  -8.056  16.333  0.00  0.00    +0.017 C 
BRANCH   3   9
ATOM      4  N   UNL     1      -4.963 -11.083  18.730  0.00  0.00    -0.305 NA
ATOM      9  C   UNL     1      -6.982 -10.338  16.747  0.00  0.00    +0.060 C 
ATOM     12  C   UNL     1      -7.335 -10.602  18.213  0.00  0.00    +0.034 C 
ATOM     13  C   UNL     1      -5.521  -9.889  16.634  0.00  0.00    +0.034 C 
ATOM     16  C   UNL     1      -6.341 -11.576  18.850  0.00  0.00    +0.085 C 
ATOM     17  C   UNL     1      -4.587 -10.888  17.323  0.00  0.00    +0.085 C 
ATOM     19  C   UNL     1      -4.031 -12.000  19.386  0.00  0.00    +0.104 C 
ENDBRANCH   3   9
ENDBRANCH  18  10
TORSDOF 6
ENDMDL
MODEL 9
REMARK VINA RESULT:      -5.9     14.358     18.393
REMARK  Name = 45783385
REMARK  8 active torsions:
REMARK  status: ('A' for Active; 'I' for Inactive)
REMARK    1  A    between atoms: O_2  and  C_27
REMARK    2  A    between atoms: O_2  and  C_28
REMARK    3  A    between atoms: N_3  and  C_9
REMARK    4  A    between atoms: N_4  and  C_19
REMARK    5  A    between atoms: N_7  and  C_25
REMARK    6  A    between atoms: C_10  and  C_18
REMARK    7  A    between atoms: C_20  and  C_21
REMARK    8  A    between atoms: C_25  and  C_27
REMARK                            x       y       z     vdW  Elec       q    Type
REMARK                         _______ _______ _______ _____ _____    ______ ____
ROOT
ATOM      1  O   UNL     1       9.893   4.976   4.032  0.00  0.00    -0.336 OA
ATOM      5  N   UNL     1      11.101   6.372   2.764  0.00  0.00    -0.190 NA
ATOM      6  N   UNL     1      10.843   4.184   3.376  0.00  0.00    -0.056 NA
ATOM     18  C   UNL     1      10.114   6.251   3.615  0.00  0.00    +0.245 A 
ATOM     20  C   UNL     1      11.518   5.078   2.648  0.00  0.00    +0.205 A 
ENDROOT
BRANCH  20  21
ATOM      7  N   UNL     1      14.074   6.298   2.869  0.00  0.00    -0.326 N 
ATOM      8  N   UNL     1      14.911   4.970   1.099  0.00  0.00    -0.240 NA
ATOM     21  C   UNL     1      12.610   4.711   1.794  0.00  0.00    +0.062 A 
ATOM     22  C   UNL     1      13.863   5.296   1.889  0.00  0.00    +0.130 A 
ATOM     23  C   UNL     1      12.421   3.730   0.828  0.00  0.00    +0.016 A 
ATOM     24  C   UNL     1      13.475   3.367  -0.004  0.00  0.00    +0.020 A 
ATOM     26  C   UNL     1      14.689   4.012   0.171  0.00  0.00    +0.113 A 
ATOM     29  H   UNL     1      13.245   6.794   3.183  0.00  0.00    +0.148 HD
BRANCH   7  25
ATOM     25  C   UNL     1      15.327   6.956   3.041  0.00  0.00    +0.131 C 
BRANCH  25  27
ATOM     27  C   UNL     1      15.283   7.847   4.269  0.00  0.00    +0.178 C 
BRANCH  27   2
ATOM      2  O   UNL     1      14.211   7.440   5.112  0.00  0.00    -0.381 OA
ATOM     28  C   UNL     1      14.651   7.221   6.445  0.00  0.00    +0.194 C 
ENDBRANCH  27   2
ENDBRANCH  25  27
ENDBRANCH   7  25
ENDBRANCH  20  21
BRANCH  18  10
ATOM      3  N   UNL     1       9.909   8.232   5.107  0.00  0.00    -0.288 NA
ATOM     10  C   UNL     1       9.204   7.317   4.189  0.00  0.00    +0.146 C 
ATOM     11  C   UNL     1       9.218   9.517   5.023  0.00  0.00    +0.085 C 
ATOM     14  C   UNL     1       8.607   8.235   3.106  0.00  0.00    +0.030 C 
ATOM     15  C   UNL     1       8.977   9.648   3.533  0.00  0.00    +0.017 C 
BRANCH   3   9
ATOM      4  N   UNL     1       9.704   5.514   8.369  0.00  0.00    -0.305 NA
ATOM      9  C   UNL     1       9.976   7.732   6.479  0.00  0.00    +0.060 C 
ATOM     12  C   UNL     1      11.020   6.616   6.586  0.00  0.00    +0.034 C 
ATOM     13  C   UNL     1       8.610   7.215   6.940  0.00  0.00    +0.034 C 
ATOM     16  C   UNL     1      11.033   6.011   7.992  0.00  0.00    +0.085 C 
ATOM     17  C   UNL     1       8.703   6.590   8.335  0.00  0.00    +0.085 C 
ATOM     19  C   UNL     1       9.745   4.895   9.693  0.00  0.00    +0.104 C 
ENDBRANCH   3   9
ENDBRANCH  18  10
TORSDOF 6
ENDMDL
MODEL 10
REMARK VINA RESULT:      -5.9     14.759     18.499
REMARK  Name = 45783385
REMARK  8 active torsions:
REMARK  status: ('A' for Active; 'I' for Inactive)
REMARK    1  A    between atoms: O_2  and  C_27
REMARK    2  A    between atoms: O_2  and  C_28
REMARK    3  A    between atoms: N_3  and  C_9
REMARK    4  A    between atoms: N_4  and  C_19
REMARK    5  A    between atoms: N_7  and  C_25
REMARK    6  A    between atoms: C_10  and  C_18
REMARK    7  A    between atoms: C_20  and  C_21
REMARK    8  A    between atoms: C_25  and  C_27
REMARK                            x       y       z     vdW  Elec       q    Type
REMARK                         _______ _______ _______ _____ _____    ______ ____
ROOT
ATOM      1  O   UNL     1      11.212   3.946   2.736  0.00  0.00    -0.336 OA
ATOM      5  N   UNL     1      11.212   6.169   3.014  0.00  0.00    -0.190 NA
ATOM      6  N   UNL     1      10.654   4.181   3.999  0.00  0.00    -0.056 NA
ATOM     18  C   UNL     1      11.513   5.169   2.225  0.00  0.00    +0.245 A 
ATOM     20  C   UNL     1      10.688   5.513   4.090  0.00  0.00    +0.205 A 
ENDROOT
BRANCH  20  21
ATOM      7  N   UNL     1      12.430   6.352   6.171  0.00  0.00    -0.326 N 
ATOM      8  N   UNL     1      10.622   7.303   7.364  0.00  0.00    -0.240 NA
ATOM     21  C   UNL     1      10.208   6.219   5.243  0.00  0.00    +0.062 A 
ATOM     22  C   UNL     1      11.045   6.636   6.267  0.00  0.00    +0.130 A 
ATOM     23  C   UNL     1       8.853   6.507   5.352  0.00  0.00    +0.016 A 
ATOM     24  C   UNL     1       8.380   7.192   6.467  0.00  0.00    +0.020 A 
ATOM     26  C   UNL     1       9.298   7.564   7.436  0.00  0.00    +0.113 A 
ATOM     29  H   UNL     1      12.683   5.563   5.584  0.00  0.00    +0.148 HD
BRANCH   7  25
ATOM     25  C   UNL     1      13.367   6.739   7.174  0.00  0.00    +0.131 C 
BRANCH  25  27
ATOM     27  C   UNL     1      14.496   7.541   6.550  0.00  0.00    +0.178 C 
BRANCH  27   2
ATOM      2  O   UNL     1      14.040   8.857   6.261  0.00  0.00    -0.381 OA
ATOM     28  C   UNL     1      15.086   9.810   6.389  0.00  0.00    +0.194 C 
ENDBRANCH  27   2
ENDBRANCH  25  27
ENDBRANCH   7  25
ENDBRANCH  20  21
BRANCH  18  10
ATOM      3  N   UNL     1      13.594   4.962   0.877  0.00  0.00    -0.288 NA
ATOM     10  C   UNL     1      12.136   5.189   0.845  0.00  0.00    +0.146 C 
ATOM     11  C   UNL     1      13.942   4.319  -0.389  0.00  0.00    +0.085 C 
ATOM     14  C   UNL     1      11.588   4.078  -0.071  0.00  0.00    +0.030 C 
ATOM     15  C   UNL     1      12.816   3.318  -0.552  0.00  0.00    +0.017 C 
BRANCH   3   9
ATOM      4  N   UNL     1      14.628   8.790   2.409  0.00  0.00    -0.305 NA
ATOM      9  C   UNL     1      14.362   6.185   1.101  0.00  0.00    +0.060 C 
ATOM     12  C   UNL     1      14.718   6.323   2.585  0.00  0.00    +0.034 C 
ATOM     13  C   UNL     1      13.580   7.416   0.635  0.00  0.00    +0.034 C 
ATOM     16  C   UNL     1      15.436   7.647   2.855  0.00  0.00    +0.085 C 
ATOM     17  C   UNL     1      14.336   8.705   0.971  0.00  0.00    +0.085 C 
ATOM     19  C   UNL     1      15.306  10.049   2.719  0.00  0.00    +0.104 C 
ENDBRANCH   3   9
ENDBRANCH  18  10
TORSDOF 6
ENDMDL
