MODEL 1
REMARK VINA RESULT:      -7.6      0.000      0.000
REMARK  Name = 7050299
REMARK  5 active torsions:
REMARK  status: ('A' for Active; 'I' for Inactive)
REMARK    1  A    between atoms: N_6  and  C_9
REMARK    2  A    between atoms: N_7  and  C_22
REMARK    3  A    between atoms: C_14  and  C_19
REMARK    4  A    between atoms: C_23  and  C_26
REMARK    5  A    between atoms: C_29  and  C_30
REMARK                            x       y       z     vdW  Elec       q    Type
REMARK                         _______ _______ _______ _____ _____    ______ ____
ROOT
ATOM      1  O   UNL     1     -16.097   5.792  30.839  0.00  0.00    -0.273 OA
ATOM      2  O   UNL     1     -12.853   2.772  32.225  0.00  0.00    -0.252 OA
ATOM      5  N   UNL     1     -14.363   2.831  30.464  0.00  0.00    -0.273 N 
ATOM      7  N   UNL     1     -14.333   4.585  31.857  0.00  0.00    -0.193 N 
ATOM      9  C   UNL     1     -16.641   1.566  29.282  0.00  0.00    +0.077 C 
ATOM     10  C   UNL     1     -15.404   3.678  29.947  0.00  0.00    +0.166 C 
ATOM     11  C   UNL     1     -16.746   2.952  29.943  0.00  0.00    +0.054 C 
ATOM     12  C   UNL     1     -15.483   0.744  29.877  0.00  0.00    +0.041 C 
ATOM     13  C   UNL     1     -14.163   1.516  29.881  0.00  0.00    +0.112 C 
ATOM     15  C   UNL     1     -15.349   4.828  30.938  0.00  0.00    +0.248 C 
ATOM     16  C   UNL     1     -13.729   3.352  31.592  0.00  0.00    +0.316 C 
ENDROOT
BRANCH   7  22
ATOM     22  C   UNL     1     -13.973   5.458  32.933  0.00  0.00    +0.045 A 
ATOM     24  C   UNL     1     -14.154   5.050  34.257  0.00  0.00    +0.024 A 
ATOM     25  C   UNL     1     -13.439   6.720  32.665  0.00  0.00    +0.024 A 
ATOM     27  C   UNL     1     -13.804   5.900  35.307  0.00  0.00    +0.005 A 
ATOM     28  C   UNL     1     -13.087   7.569  33.714  0.00  0.00    +0.005 A 
ATOM     29  C   UNL     1     -13.270   7.160  35.035  0.00  0.00    -0.050 A 
ATOM     30  C   UNL     1     -12.894   8.068  36.155  0.00  0.00    +0.044 C 
ENDBRANCH   7  22
BRANCH   9   6
ATOM      3  O   UNL     1     -18.048   0.036  27.256  0.00  0.00    -0.276 OA
ATOM      6  N   UNL     1     -16.509   1.679  27.847  0.00  0.00    -0.312 N 
ATOM     19  C   UNL     1     -17.228   0.900  26.958  0.00  0.00    +0.216 C 
ATOM     31  H   UNL     1     -15.910   2.413  27.483  0.00  0.00    +0.149 HD
BRANCH  19  14
ATOM      4  O   UNL     1     -19.055   3.683  21.782  0.00  0.00    -0.276 OA
ATOM      8  N   UNL     1     -17.402   2.893  23.209  0.00  0.00    -0.302 N 
ATOM     14  C   UNL     1     -16.920   1.238  25.532  0.00  0.00    +0.078 C 
ATOM     17  C   UNL     1     -18.188   1.085  24.687  0.00  0.00    +0.032 C 
ATOM     18  C   UNL     1     -16.370   2.662  25.437  0.00  0.00    +0.032 C 
ATOM     20  C   UNL     1     -17.948   1.535  23.249  0.00  0.00    +0.108 C 
ATOM     21  C   UNL     1     -16.166   3.081  23.981  0.00  0.00    +0.108 C 
ATOM     23  C   UNL     1     -18.035   3.875  22.448  0.00  0.00    +0.212 C 
ATOM     26  C   UNL     1     -17.411   5.247  22.463  0.00  0.00    +0.109 C 
ENDBRANCH  19  14
ENDBRANCH   9   6
TORSDOF 3
ENDMDL
MODEL 2
REMARK VINA RESULT:      -7.2     31.755     33.468
REMARK  Name = 7050299
REMARK  5 active torsions:
REMARK  status: ('A' for Active; 'I' for Inactive)
REMARK    1  A    between atoms: N_6  and  C_9
REMARK    2  A    between atoms: N_7  and  C_22
REMARK    3  A    between atoms: C_14  and  C_19
REMARK    4  A    between atoms: C_23  and  C_26
REMARK    5  A    between atoms: C_29  and  C_30
REMARK                            x       y       z     vdW  Elec       q    Type
REMARK                         _______ _______ _______ _____ _____    ______ ____
ROOT
ATOM      1  O   UNL     1      16.533   6.147  21.020  0.00  0.00    -0.273 OA
ATOM      2  O   UNL     1      19.490   9.715  21.309  0.00  0.00    -0.252 OA
ATOM      5  N   UNL     1      17.196   9.535  21.013  0.00  0.00    -0.273 N 
ATOM      7  N   UNL     1      18.355   7.636  21.273  0.00  0.00    -0.193 N 
ATOM      9  C   UNL     1      15.013  10.029  19.232  0.00  0.00    +0.077 C 
ATOM     10  C   UNL     1      16.188   8.516  20.893  0.00  0.00    +0.166 C 
ATOM     11  C   UNL     1      15.488   8.599  19.540  0.00  0.00    +0.054 C 
ATOM     12  C   UNL     1      16.148  11.053  19.416  0.00  0.00    +0.041 C 
ATOM     13  C   UNL     1      16.835  10.921  20.776  0.00  0.00    +0.112 C 
ATOM     15  C   UNL     1      17.033   7.264  21.054  0.00  0.00    +0.248 C 
ATOM     16  C   UNL     1      18.478   9.028  21.232  0.00  0.00    +0.316 C 
ENDROOT
BRANCH   7  22
ATOM     22  C   UNL     1      19.441   6.726  21.484  0.00  0.00    +0.045 A 
ATOM     24  C   UNL     1      19.843   5.864  20.461  0.00  0.00    +0.024 A 
ATOM     25  C   UNL     1      20.102   6.697  22.714  0.00  0.00    +0.024 A 
ATOM     27  C   UNL     1      20.900   4.978  20.667  0.00  0.00    +0.005 A 
ATOM     28  C   UNL     1      21.159   5.811  22.920  0.00  0.00    +0.005 A 
ATOM     29  C   UNL     1      21.559   4.951  21.897  0.00  0.00    -0.050 A 
ATOM     30  C   UNL     1      22.689   4.005  22.118  0.00  0.00    +0.044 C 
ENDBRANCH   7  22
BRANCH   9   6
ATOM      3  O   UNL     1      12.300   9.030  18.967  0.00  0.00    -0.276 OA
ATOM      6  N   UNL     1      13.864  10.383  20.034  0.00  0.00    -0.312 N 
ATOM     19  C   UNL     1      12.604   9.849  19.830  0.00  0.00    +0.216 C 
ATOM     31  H   UNL     1      14.012  11.001  20.826  0.00  0.00    +0.149 HD
BRANCH  19  14
ATOM      4  O   UNL     1      11.285  11.079  25.714  0.00  0.00    -0.276 OA
ATOM      8  N   UNL     1      11.021  11.446  23.435  0.00  0.00    -0.302 N 
ATOM     14  C   UNL     1      11.602  10.366  20.815  0.00  0.00    +0.078 C 
ATOM     17  C   UNL     1      11.620   9.485  22.068  0.00  0.00    +0.032 C 
ATOM     18  C   UNL     1      11.915  11.822  21.168  0.00  0.00    +0.032 C 
ATOM     20  C   UNL     1      10.699  10.046  23.148  0.00  0.00    +0.108 C 
ATOM     21  C   UNL     1      10.987  12.336  22.267  0.00  0.00    +0.108 C 
ATOM     23  C   UNL     1      11.294  11.841  24.744  0.00  0.00    +0.212 C 
ATOM     26  C   UNL     1      11.619  13.298  24.955  0.00  0.00    +0.109 C 
ENDBRANCH  19  14
ENDBRANCH   9   6
TORSDOF 3
ENDMDL
MODEL 3
REMARK VINA RESULT:      -6.9     18.468     19.865
REMARK  Name = 7050299
REMARK  5 active torsions:
REMARK  status: ('A' for Active; 'I' for Inactive)
REMARK    1  A    between atoms: N_6  and  C_9
REMARK    2  A    between atoms: N_7  and  C_22
REMARK    3  A    between atoms: C_14  and  C_19
REMARK    4  A    between atoms: C_23  and  C_26
REMARK    5  A    between atoms: C_29  and  C_30
REMARK                            x       y       z     vdW  Elec       q    Type
REMARK                         _______ _______ _______ _____ _____    ______ ____
ROOT
ATOM      1  O   UNL     1      -9.211  -7.949  17.507  0.00  0.00    -0.273 OA
ATOM      2  O   UNL     1      -8.304 -10.890  14.030  0.00  0.00    -0.252 OA
ATOM      5  N   UNL     1      -9.834  -9.173  14.340  0.00  0.00    -0.273 N 
ATOM      7  N   UNL     1      -8.385  -9.576  16.000  0.00  0.00    -0.193 N 
ATOM      9  C   UNL     1     -12.609  -8.511  14.554  0.00  0.00    +0.077 C 
ATOM     10  C   UNL     1     -10.218  -8.223  15.349  0.00  0.00    +0.166 C 
ATOM     11  C   UNL     1     -11.669  -8.432  15.770  0.00  0.00    +0.054 C 
ATOM     12  C   UNL     1     -12.103  -9.529  13.516  0.00  0.00    +0.041 C 
ATOM     13  C   UNL     1     -10.639  -9.295  13.138  0.00  0.00    +0.112 C 
ATOM     15  C   UNL     1      -9.222  -8.559  16.446  0.00  0.00    +0.248 C 
ATOM     16  C   UNL     1      -8.758  -9.979  14.714  0.00  0.00    +0.316 C 
ENDROOT
BRANCH   7  22
ATOM     22  C   UNL     1      -7.310 -10.147  16.755  0.00  0.00    +0.045 A 
ATOM     24  C   UNL     1      -5.990  -9.780  16.484  0.00  0.00    +0.024 A 
ATOM     25  C   UNL     1      -7.578 -11.073  17.765  0.00  0.00    +0.024 A 
ATOM     27  C   UNL     1      -4.943 -10.336  17.220  0.00  0.00    +0.005 A 
ATOM     28  C   UNL     1      -6.531 -11.629  18.502  0.00  0.00    +0.005 A 
ATOM     29  C   UNL     1      -5.214 -11.261  18.229  0.00  0.00    -0.050 A 
ATOM     30  C   UNL     1      -4.095 -11.855  19.016  0.00  0.00    +0.044 C 
ENDBRANCH   7  22
BRANCH   9   6
ATOM      3  O   UNL     1     -14.523  -6.470  15.326  0.00  0.00    -0.276 OA
ATOM      6  N   UNL     1     -12.796  -7.210  13.952  0.00  0.00    -0.312 N 
ATOM     19  C   UNL     1     -13.742  -6.301  14.395  0.00  0.00    +0.216 C 
ATOM     31  H   UNL     1     -12.156  -6.932  13.217  0.00  0.00    +0.149 HD
BRANCH  19  14
ATOM      4  O   UNL     1     -11.675  -3.322   9.422  0.00  0.00    -0.276 OA
ATOM      8  N   UNL     1     -13.234  -3.651  11.112  0.00  0.00    -0.302 N 
ATOM     14  C   UNL     1     -13.708  -5.024  13.614  0.00  0.00    +0.078 C 
ATOM     17  C   UNL     1     -12.291  -4.788  13.085  0.00  0.00    +0.032 C 
ATOM     18  C   UNL     1     -14.716  -5.084  12.464  0.00  0.00    +0.032 C 
ATOM     20  C   UNL     1     -12.238  -3.558  12.182  0.00  0.00    +0.108 C 
ATOM     21  C   UNL     1     -14.615  -3.847  11.574  0.00  0.00    +0.108 C 
ATOM     23  C   UNL     1     -12.838  -3.518   9.782  0.00  0.00    +0.212 C 
ATOM     26  C   UNL     1     -13.923  -3.629   8.741  0.00  0.00    +0.109 C 
ENDBRANCH  19  14
ENDBRANCH   9   6
TORSDOF 3
ENDMDL
MODEL 4
REMARK VINA RESULT:      -6.9     22.713     27.171
REMARK  Name = 7050299
REMARK  5 active torsions:
REMARK  status: ('A' for Active; 'I' for Inactive)
REMARK    1  A    between atoms: N_6  and  C_9
REMARK    2  A    between atoms: N_7  and  C_22
REMARK    3  A    between atoms: C_14  and  C_19
REMARK    4  A    between atoms: C_23  and  C_26
REMARK    5  A    between atoms: C_29  and  C_30
REMARK                            x       y       z     vdW  Elec       q    Type
REMARK                         _______ _______ _______ _____ _____    ______ ____
ROOT
ATOM      1  O   UNL     1      -4.355  -9.633   9.059  0.00  0.00    -0.273 OA
ATOM      2  O   UNL     1      -4.135 -14.264   9.310  0.00  0.00    -0.252 OA
ATOM      5  N   UNL     1      -3.980 -12.550  10.866  0.00  0.00    -0.273 N 
ATOM      7  N   UNL     1      -4.363 -11.977   8.735  0.00  0.00    -0.193 N 
ATOM      9  C   UNL     1      -2.277 -11.243  12.757  0.00  0.00    +0.077 C 
ATOM     10  C   UNL     1      -4.015 -11.113  10.914  0.00  0.00    +0.166 C 
ATOM     11  C   UNL     1      -2.699 -10.554  11.447  0.00  0.00    +0.054 C 
ATOM     12  C   UNL     1      -2.300 -12.776  12.621  0.00  0.00    +0.041 C 
ATOM     13  C   UNL     1      -3.628 -13.291  12.064  0.00  0.00    +0.112 C 
ATOM     15  C   UNL     1      -4.252 -10.789   9.449  0.00  0.00    +0.248 C 
ATOM     16  C   UNL     1      -4.180 -13.071   9.587  0.00  0.00    +0.316 C 
ENDROOT
BRANCH   7  22
ATOM     22  C   UNL     1      -4.605 -12.071   7.327  0.00  0.00    +0.045 A 
ATOM     24  C   UNL     1      -5.834 -11.666   6.798  0.00  0.00    +0.024 A 
ATOM     25  C   UNL     1      -3.616 -12.567   6.476  0.00  0.00    +0.024 A 
ATOM     27  C   UNL     1      -6.071 -11.757   5.426  0.00  0.00    +0.005 A 
ATOM     28  C   UNL     1      -3.852 -12.657   5.104  0.00  0.00    +0.005 A 
ATOM     29  C   UNL     1      -5.079 -12.253   4.579  0.00  0.00    -0.050 A 
ATOM     30  C   UNL     1      -5.331 -12.350   3.113  0.00  0.00    +0.044 C 
ENDBRANCH   7  22
BRANCH   9   6
ATOM      3  O   UNL     1      -1.604 -11.289  15.580  0.00  0.00    -0.276 OA
ATOM      6  N   UNL     1      -3.101 -10.811  13.863  0.00  0.00    -0.312 N 
ATOM     19  C   UNL     1      -2.689 -10.873  15.183  0.00  0.00    +0.216 C 
ATOM     31  H   UNL     1      -3.995 -10.380  13.649  0.00  0.00    +0.149 HD
BRANCH  19  14
ATOM      4  O   UNL     1      -8.487 -11.179  17.225  0.00  0.00    -0.276 OA
ATOM      8  N   UNL     1      -6.234 -10.690  17.517  0.00  0.00    -0.302 N 
ATOM     14  C   UNL     1      -3.723 -10.340  16.125  0.00  0.00    +0.078 C 
ATOM     17  C   UNL     1      -5.066 -10.229  15.398  0.00  0.00    +0.032 C 
ATOM     18  C   UNL     1      -3.840 -11.252  17.348  0.00  0.00    +0.032 C 
ATOM     20  C   UNL     1      -6.176  -9.802  16.354  0.00  0.00    +0.108 C 
ATOM     21  C   UNL     1      -4.976 -10.804  18.266  0.00  0.00    +0.108 C 
ATOM     23  C   UNL     1      -7.434 -11.317  17.853  0.00  0.00    +0.212 C 
ATOM     26  C   UNL     1      -7.409 -12.216  19.063  0.00  0.00    +0.109 C 
ENDBRANCH  19  14
ENDBRANCH   9   6
TORSDOF 3
ENDMDL
MODEL 5
REMARK VINA RESULT:      -6.9     33.300     35.717
REMARK  Name = 7050299
REMARK  5 active torsions:
REMARK  status: ('A' for Active; 'I' for Inactive)
REMARK    1  A    between atoms: N_6  and  C_9
REMARK    2  A    between atoms: N_7  and  C_22
REMARK    3  A    between atoms: C_14  and  C_19
REMARK    4  A    between atoms: C_23  and  C_26
REMARK    5  A    between atoms: C_29  and  C_30
REMARK                            x       y       z     vdW  Elec       q    Type
REMARK                         _______ _______ _______ _____ _____    ______ ____
ROOT
ATOM      1  O   UNL     1      15.160   9.580  21.275  0.00  0.00    -0.273 OA
ATOM      2  O   UNL     1      16.351   5.977  18.599  0.00  0.00    -0.252 OA
ATOM      5  N   UNL     1      17.194   6.883  20.562  0.00  0.00    -0.273 N 
ATOM      7  N   UNL     1      15.372   7.844  19.680  0.00  0.00    -0.193 N 
ATOM      9  C   UNL     1      19.443   8.168  21.777  0.00  0.00    +0.077 C 
ATOM     10  C   UNL     1      16.934   7.977  21.458  0.00  0.00    +0.166 C 
ATOM     11  C   UNL     1      18.127   8.925  21.521  0.00  0.00    +0.054 C 
ATOM     12  C   UNL     1      19.620   6.999  20.792  0.00  0.00    +0.041 C 
ATOM     13  C   UNL     1      18.394   6.086  20.745  0.00  0.00    +0.112 C 
ATOM     15  C   UNL     1      15.713   8.596  20.800  0.00  0.00    +0.248 C 
ATOM     16  C   UNL     1      16.283   6.797  19.507  0.00  0.00    +0.316 C 
ENDROOT
BRANCH   7  22
ATOM     22  C   UNL     1      14.264   8.114  18.814  0.00  0.00    +0.045 A 
ATOM     24  C   UNL     1      13.081   7.382  18.941  0.00  0.00    +0.024 A 
ATOM     25  C   UNL     1      14.362   9.109  17.840  0.00  0.00    +0.024 A 
ATOM     27  C   UNL     1      12.001   7.644  18.097  0.00  0.00    +0.005 A 
ATOM     28  C   UNL     1      13.282   9.372  16.997  0.00  0.00    +0.005 A 
ATOM     29  C   UNL     1      12.102   8.640  17.125  0.00  0.00    -0.050 A 
ATOM     30  C   UNL     1      10.948   8.922  16.223  0.00  0.00    +0.044 C 
ENDBRANCH   7  22
BRANCH   9   6
ATOM      3  O   UNL     1      21.814   7.997  23.442  0.00  0.00    -0.276 OA
ATOM      6  N   UNL     1      19.524   7.707  23.144  0.00  0.00    -0.312 N 
ATOM     19  C   UNL     1      20.708   7.663  23.859  0.00  0.00    +0.216 C 
ATOM     31  H   UNL     1      18.657   7.472  23.617  0.00  0.00    +0.149 HD
BRANCH  19  14
ATOM      4  O   UNL     1      23.207   6.574  29.377  0.00  0.00    -0.276 OA
ATOM      8  N   UNL     1      21.395   7.068  28.009  0.00  0.00    -0.302 N 
ATOM     14  C   UNL     1      20.507   7.170  25.258  0.00  0.00    +0.078 C 
ATOM     17  C   UNL     1      21.715   6.330  25.681  0.00  0.00    +0.032 C 
ATOM     18  C   UNL     1      20.308   8.353  26.208  0.00  0.00    +0.032 C 
ATOM     20  C   UNL     1      21.607   5.906  27.143  0.00  0.00    +0.108 C 
ATOM     21  C   UNL     1      20.228   7.889  27.662  0.00  0.00    +0.108 C 
ATOM     23  C   UNL     1      22.251   7.297  29.086  0.00  0.00    +0.212 C 
ATOM     26  C   UNL     1      21.966   8.515  29.927  0.00  0.00    +0.109 C 
ENDBRANCH  19  14
ENDBRANCH   9   6
TORSDOF 3
ENDMDL
MODEL 6
REMARK VINA RESULT:      -6.8     17.867     20.867
REMARK  Name = 7050299
REMARK  5 active torsions:
REMARK  status: ('A' for Active; 'I' for Inactive)
REMARK    1  A    between atoms: N_6  and  C_9
REMARK    2  A    between atoms: N_7  and  C_22
REMARK    3  A    between atoms: C_14  and  C_19
REMARK    4  A    between atoms: C_23  and  C_26
REMARK    5  A    between atoms: C_29  and  C_30
REMARK                            x       y       z     vdW  Elec       q    Type
REMARK                         _______ _______ _______ _____ _____    ______ ____
ROOT
ATOM      1  O   UNL     1     -11.931  -8.662  13.099  0.00  0.00    -0.273 OA
ATOM      2  O   UNL     1     -11.167  -5.641  16.541  0.00  0.00    -0.252 OA
ATOM      5  N   UNL     1     -10.429  -7.792  16.083  0.00  0.00    -0.273 N 
ATOM      7  N   UNL     1     -11.786  -6.826  14.586  0.00  0.00    -0.193 N 
ATOM      9  C   UNL     1     -10.439 -10.514  16.963  0.00  0.00    +0.077 C 
ATOM     10  C   UNL     1     -10.599  -8.815  15.087  0.00  0.00    +0.166 C 
ATOM     11  C   UNL     1     -11.201 -10.077  15.699  0.00  0.00    +0.054 C 
ATOM     12  C   UNL     1     -10.279  -9.349  17.956  0.00  0.00    +0.041 C 
ATOM     13  C   UNL     1      -9.693  -8.100  17.296  0.00  0.00    +0.112 C 
ATOM     15  C   UNL     1     -11.538  -8.113  14.121  0.00  0.00    +0.248 C 
ATOM     16  C   UNL     1     -11.127  -6.617  15.801  0.00  0.00    +0.316 C 
ENDROOT
BRANCH   7  22
ATOM     22  C   UNL     1     -12.615  -5.860  13.930  0.00  0.00    +0.045 A 
ATOM     24  C   UNL     1     -12.037  -4.838  13.173  0.00  0.00    +0.024 A 
ATOM     25  C   UNL     1     -14.005  -5.936  14.043  0.00  0.00    +0.024 A 
ATOM     27  C   UNL     1     -12.844  -3.897  12.534  0.00  0.00    +0.005 A 
ATOM     28  C   UNL     1     -14.813  -4.996  13.404  0.00  0.00    +0.005 A 
ATOM     29  C   UNL     1     -14.233  -3.975  12.649  0.00  0.00    -0.050 A 
ATOM     30  C   UNL     1     -15.096  -2.971  11.966  0.00  0.00    +0.044 C 
ENDBRANCH   7  22
BRANCH   9   6
ATOM      3  O   UNL     1      -8.815 -12.277  18.599  0.00  0.00    -0.276 OA
ATOM      6  N   UNL     1      -9.156 -11.088  16.628  0.00  0.00    -0.312 N 
ATOM     19  C   UNL     1      -8.454 -11.922  17.481  0.00  0.00    +0.216 C 
ATOM     31  H   UNL     1      -8.791 -10.921  15.696  0.00  0.00    +0.149 HD
BRANCH  19  14
ATOM      4  O   UNL     1      -3.497 -10.540  14.106  0.00  0.00    -0.276 OA
ATOM      8  N   UNL     1      -4.578 -11.779  15.747  0.00  0.00    -0.302 N 
ATOM     14  C   UNL     1      -7.167 -12.395  16.879  0.00  0.00    +0.078 C 
ATOM     17  C   UNL     1      -7.025 -11.822  15.466  0.00  0.00    +0.032 C 
ATOM     18  C   UNL     1      -5.989 -11.974  17.759  0.00  0.00    +0.032 C 
ATOM     20  C   UNL     1      -5.672 -12.182  14.860  0.00  0.00    +0.108 C 
ATOM     21  C   UNL     1      -4.655 -12.331  17.106  0.00  0.00    +0.108 C 
ATOM     23  C   UNL     1      -3.555 -10.964  15.263  0.00  0.00    +0.212 C 
ATOM     26  C   UNL     1      -2.468 -10.594  16.240  0.00  0.00    +0.109 C 
ENDBRANCH  19  14
ENDBRANCH   9   6
TORSDOF 3
ENDMDL
MODEL 7
REMARK VINA RESULT:      -6.7     19.685     22.705
REMARK  Name = 7050299
REMARK  5 active torsions:
REMARK  status: ('A' for Active; 'I' for Inactive)
REMARK    1  A    between atoms: N_6  and  C_9
REMARK    2  A    between atoms: N_7  and  C_22
REMARK    3  A    between atoms: C_14  and  C_19
REMARK    4  A    between atoms: C_23  and  C_26
REMARK    5  A    between atoms: C_29  and  C_30
REMARK                            x       y       z     vdW  Elec       q    Type
REMARK                         _______ _______ _______ _____ _____    ______ ____
ROOT
ATOM      1  O   UNL     1      -8.571 -13.068  16.501  0.00  0.00    -0.273 OA
ATOM      2  O   UNL     1      -6.567 -10.799  20.023  0.00  0.00    -0.252 OA
ATOM      5  N   UNL     1      -6.095 -11.020  17.761  0.00  0.00    -0.273 N 
ATOM      7  N   UNL     1      -7.926 -12.049  18.538  0.00  0.00    -0.193 N 
ATOM      9  C   UNL     1      -4.212 -11.997  15.841  0.00  0.00    +0.077 C 
ATOM     10  C   UNL     1      -6.613 -11.689  16.599  0.00  0.00    +0.166 C 
ATOM     11  C   UNL     1      -5.587 -12.663  16.028  0.00  0.00    +0.054 C 
ATOM     12  C   UNL     1      -3.754 -11.282  17.125  0.00  0.00    +0.041 C 
ATOM     13  C   UNL     1      -4.819 -10.332  17.674  0.00  0.00    +0.112 C 
ATOM     15  C   UNL     1      -7.829 -12.380  17.191  0.00  0.00    +0.248 C 
ATOM     16  C   UNL     1      -6.857 -11.229  18.912  0.00  0.00    +0.316 C 
ENDROOT
BRANCH   7  22
ATOM     22  C   UNL     1      -8.956 -12.502  19.424  0.00  0.00    +0.045 A 
ATOM     24  C   UNL     1     -10.099 -11.724  19.625  0.00  0.00    +0.024 A 
ATOM     25  C   UNL     1      -8.823 -13.723  20.089  0.00  0.00    +0.024 A 
ATOM     27  C   UNL     1     -11.103 -12.165  20.488  0.00  0.00    +0.005 A 
ATOM     28  C   UNL     1      -9.827 -14.164  20.951  0.00  0.00    +0.005 A 
ATOM     29  C   UNL     1     -10.967 -13.385  21.152  0.00  0.00    -0.050 A 
ATOM     30  C   UNL     1     -12.040 -13.857  22.073  0.00  0.00    +0.044 C 
ENDBRANCH   7  22
BRANCH   9   6
ATOM      3  O   UNL     1      -3.017 -12.410  13.228  0.00  0.00    -0.276 OA
ATOM      6  N   UNL     1      -4.220 -11.087  14.719  0.00  0.00    -0.312 N 
ATOM     19  C   UNL     1      -3.619 -11.376  13.506  0.00  0.00    +0.216 C 
ATOM     31  H   UNL     1      -4.751 -10.227  14.809  0.00  0.00    +0.149 HD
BRANCH  19  14
ATOM      4  O   UNL     1      -4.999  -9.797   7.720  0.00  0.00    -0.276 OA
ATOM      8  N   UNL     1      -4.890  -9.346   9.996  0.00  0.00    -0.302 N 
ATOM     14  C   UNL     1      -3.796 -10.274  12.508  0.00  0.00    +0.078 C 
ATOM     17  C   UNL     1      -3.196 -10.700  11.166  0.00  0.00    +0.032 C 
ATOM     18  C   UNL     1      -5.281  -9.935  12.358  0.00  0.00    +0.032 C 
ATOM     20  C   UNL     1      -3.460  -9.653  10.088  0.00  0.00    +0.108 C 
ATOM     21  C   UNL     1      -5.504  -8.903  11.254  0.00  0.00    +0.108 C 
ATOM     23  C   UNL     1      -5.546  -9.453   8.770  0.00  0.00    +0.212 C 
ATOM     26  C   UNL     1      -7.017  -9.122   8.762  0.00  0.00    +0.109 C 
ENDBRANCH  19  14
ENDBRANCH   9   6
TORSDOF 3
ENDMDL
MODEL 8
REMARK VINA RESULT:      -6.6     19.778     22.824
REMARK  Name = 7050299
REMARK  5 active torsions:
REMARK  status: ('A' for Active; 'I' for Inactive)
REMARK    1  A    between atoms: N_6  and  C_9
REMARK    2  A    between atoms: N_7  and  C_22
REMARK    3  A    between atoms: C_14  and  C_19
REMARK    4  A    between atoms: C_23  and  C_26
REMARK    5  A    between atoms: C_29  and  C_30
REMARK                            x       y       z     vdW  Elec       q    Type
REMARK                         _______ _______ _______ _____ _____    ______ ____
ROOT
ATOM      1  O   UNL     1      -8.954 -12.177  15.727  0.00  0.00    -0.273 OA
ATOM      2  O   UNL     1      -6.584  -9.570  18.752  0.00  0.00    -0.252 OA
ATOM      5  N   UNL     1      -6.027 -10.694  16.800  0.00  0.00    -0.273 N 
ATOM      7  N   UNL     1      -8.166 -10.770  17.460  0.00  0.00    -0.193 N 
ATOM      9  C   UNL     1      -4.461 -12.807  15.673  0.00  0.00    +0.077 C 
ATOM     10  C   UNL     1      -6.647 -11.528  15.806  0.00  0.00    +0.166 C 
ATOM     11  C   UNL     1      -5.994 -12.906  15.766  0.00  0.00    +0.054 C 
ATOM     12  C   UNL     1      -3.890 -11.872  16.754  0.00  0.00    +0.041 C 
ATOM     13  C   UNL     1      -4.587 -10.510  16.773  0.00  0.00    +0.112 C 
ATOM     15  C   UNL     1      -8.077 -11.559  16.318  0.00  0.00    +0.248 C 
ATOM     16  C   UNL     1      -6.911 -10.245  17.783  0.00  0.00    +0.316 C 
ENDROOT
BRANCH   7  22
ATOM     22  C   UNL     1      -9.363 -10.546  18.213  0.00  0.00    +0.045 A 
ATOM     24  C   UNL     1      -9.568 -11.217  19.420  0.00  0.00    +0.024 A 
ATOM     25  C   UNL     1     -10.331  -9.654  17.744  0.00  0.00    +0.024 A 
ATOM     27  C   UNL     1     -10.734 -10.999  20.154  0.00  0.00    +0.005 A 
ATOM     28  C   UNL     1     -11.496  -9.435  18.478  0.00  0.00    +0.005 A 
ATOM     29  C   UNL     1     -11.699 -10.108  19.683  0.00  0.00    -0.050 A 
ATOM     30  C   UNL     1     -12.945  -9.874  20.467  0.00  0.00    +0.044 C 
ENDBRANCH   7  22
BRANCH   9   6
ATOM      3  O   UNL     1      -2.163 -13.746  14.169  0.00  0.00    -0.276 OA
ATOM      6  N   UNL     1      -4.043 -12.387  14.355  0.00  0.00    -0.312 N 
ATOM     19  C   UNL     1      -2.926 -12.896  13.717  0.00  0.00    +0.216 C 
ATOM     31  H   UNL     1      -4.641 -11.738  13.853  0.00  0.00    +0.149 HD
BRANCH  19  14
ATOM      4  O   UNL     1      -5.556 -10.532   8.680  0.00  0.00    -0.276 OA
ATOM      8  N   UNL     1      -3.772 -10.743  10.153  0.00  0.00    -0.302 N 
ATOM     14  C   UNL     1      -2.735 -12.310  12.353  0.00  0.00    +0.078 C 
ATOM     17  C   UNL     1      -3.802 -12.865  11.406  0.00  0.00    +0.032 C 
ATOM     18  C   UNL     1      -2.809 -10.783  12.423  0.00  0.00    +0.032 C 
ATOM     20  C   UNL     1      -3.719 -12.202  10.034  0.00  0.00    +0.108 C 
ATOM     21  C   UNL     1      -2.746 -10.161  11.028  0.00  0.00    +0.108 C 
ATOM     23  C   UNL     1      -4.724 -10.021   9.435  0.00  0.00    +0.212 C 
ATOM     26  C   UNL     1      -4.713  -8.525   9.615  0.00  0.00    +0.109 C 
ENDBRANCH  19  14
ENDBRANCH   9   6
TORSDOF 3
ENDMDL
MODEL 9
REMARK VINA RESULT:      -6.5      6.368      8.451
REMARK  Name = 7050299
REMARK  5 active torsions:
REMARK  status: ('A' for Active; 'I' for Inactive)
REMARK    1  A    between atoms: N_6  and  C_9
REMARK    2  A    between atoms: N_7  and  C_22
REMARK    3  A    between atoms: C_14  and  C_19
REMARK    4  A    between atoms: C_23  and  C_26
REMARK    5  A    between atoms: C_29  and  C_30
REMARK                            x       y       z     vdW  Elec       q    Type
REMARK                         _______ _______ _______ _____ _____    ______ ____
ROOT
ATOM      1  O   UNL     1     -10.451   9.493  27.226  0.00  0.00    -0.273 OA
ATOM      2  O   UNL     1     -14.031  12.036  28.734  0.00  0.00    -0.252 OA
ATOM      5  N   UNL     1     -13.435  11.139  26.679  0.00  0.00    -0.273 N 
ATOM      7  N   UNL     1     -12.086  10.722  28.418  0.00  0.00    -0.193 N 
ATOM      9  C   UNL     1     -12.690  11.740  23.983  0.00  0.00    +0.077 C 
ATOM     10  C   UNL     1     -12.373  10.368  26.092  0.00  0.00    +0.166 C 
ATOM     11  C   UNL     1     -11.679  11.152  24.983  0.00  0.00    +0.054 C 
ATOM     12  C   UNL     1     -13.805  12.522  24.702  0.00  0.00    +0.041 C 
ATOM     13  C   UNL     1     -14.459  11.706  25.819  0.00  0.00    +0.112 C 
ATOM     15  C   UNL     1     -11.489  10.138  27.305  0.00  0.00    +0.248 C 
ATOM     16  C   UNL     1     -13.275  11.359  28.048  0.00  0.00    +0.316 C 
ENDROOT
BRANCH   7  22
ATOM     22  C   UNL     1     -11.551  10.697  29.745  0.00  0.00    +0.045 A 
ATOM     24  C   UNL     1     -10.835  11.793  30.233  0.00  0.00    +0.024 A 
ATOM     25  C   UNL     1     -11.744   9.578  30.559  0.00  0.00    +0.024 A 
ATOM     27  C   UNL     1     -10.314  11.769  31.527  0.00  0.00    +0.005 A 
ATOM     28  C   UNL     1     -11.223   9.554  31.853  0.00  0.00    +0.005 A 
ATOM     29  C   UNL     1     -10.508  10.649  32.337  0.00  0.00    -0.050 A 
ATOM     30  C   UNL     1      -9.952  10.624  33.720  0.00  0.00    +0.044 C 
ENDBRANCH   7  22
BRANCH   9   6
ATOM      3  O   UNL     1     -11.904  11.075  21.269  0.00  0.00    -0.276 OA
ATOM      6  N   UNL     1     -13.247  10.711  23.135  0.00  0.00    -0.312 N 
ATOM     19  C   UNL     1     -12.802  10.469  21.847  0.00  0.00    +0.216 C 
ATOM     31  H   UNL     1     -13.950  10.097  23.534  0.00  0.00    +0.149 HD
BRANCH  19  14
ATOM      4  O   UNL     1     -14.206   4.478  21.964  0.00  0.00    -0.276 OA
ATOM      8  N   UNL     1     -14.671   6.680  21.389  0.00  0.00    -0.302 N 
ATOM     14  C   UNL     1     -13.531   9.332  21.200  0.00  0.00    +0.078 C 
ATOM     17  C   UNL     1     -12.650   8.081  21.227  0.00  0.00    +0.032 C 
ATOM     18  C   UNL     1     -14.857   9.081  21.921  0.00  0.00    +0.032 C 
ATOM     20  C   UNL     1     -13.400   6.867  20.685  0.00  0.00    +0.108 C 
ATOM     21  C   UNL     1     -15.564   7.846  21.364  0.00  0.00    +0.108 C 
ATOM     23  C   UNL     1     -14.961   5.453  21.984  0.00  0.00    +0.212 C 
ATOM     26  C   UNL     1     -16.288   5.343  22.691  0.00  0.00    +0.109 C 
ENDBRANCH  19  14
ENDBRANCH   9   6
TORSDOF 3
ENDMDL
MODEL 10
REMARK VINA RESULT:      -6.4     24.406     26.494
REMARK  Name = 7050299
REMARK  5 active torsions:
REMARK  status: ('A' for Active; 'I' for Inactive)
REMARK    1  A    between atoms: N_6  and  C_9
REMARK    2  A    between atoms: N_7  and  C_22
REMARK    3  A    between atoms: C_14  and  C_19
REMARK    4  A    between atoms: C_23  and  C_26
REMARK    5  A    between atoms: C_29  and  C_30
REMARK                            x       y       z     vdW  Elec       q    Type
REMARK                         _______ _______ _______ _____ _____    ______ ____
ROOT
ATOM      1  O   UNL     1      -5.032  -7.738  10.670  0.00  0.00    -0.273 OA
ATOM      2  O   UNL     1      -5.545 -12.326  10.171  0.00  0.00    -0.252 OA
ATOM      5  N   UNL     1      -6.358 -10.473   9.034  0.00  0.00    -0.273 N 
ATOM      7  N   UNL     1      -4.969 -10.102  10.752  0.00  0.00    -0.193 N 
ATOM      9  C   UNL     1      -8.705  -8.999   8.324  0.00  0.00    +0.077 C 
ATOM     10  C   UNL     1      -6.289  -9.038   9.097  0.00  0.00    +0.166 C 
ATOM     11  C   UNL     1      -7.674  -8.436   9.318  0.00  0.00    +0.054 C 
ATOM     12  C   UNL     1      -8.685 -10.539   8.303  0.00  0.00    +0.041 C 
ATOM     13  C   UNL     1      -7.277 -11.100   8.100  0.00  0.00    +0.112 C 
ATOM     15  C   UNL     1      -5.360  -8.853  10.284  0.00  0.00    +0.248 C 
ATOM     16  C   UNL     1      -5.588 -11.112  10.008  0.00  0.00    +0.316 C 
ENDROOT
BRANCH   7  22
ATOM     22  C   UNL     1      -4.081 -10.327  11.853  0.00  0.00    +0.045 A 
ATOM     24  C   UNL     1      -4.593 -10.540  13.135  0.00  0.00    +0.024 A 
ATOM     25  C   UNL     1      -2.700 -10.335  11.649  0.00  0.00    +0.024 A 
ATOM     27  C   UNL     1      -3.729 -10.758  14.208  0.00  0.00    +0.005 A 
ATOM     28  C   UNL     1      -1.835 -10.554  12.721  0.00  0.00    +0.005 A 
ATOM     29  C   UNL     1      -2.348 -10.765  14.001  0.00  0.00    -0.050 A 
ATOM     30  C   UNL     1      -1.424 -11.000  15.146  0.00  0.00    +0.044 C 
ENDBRANCH   7  22
BRANCH   9   6
ATOM      3  O   UNL     1     -10.637  -7.600   6.670  0.00  0.00    -0.276 OA
ATOM      6  N   UNL     1      -8.500  -8.463   6.997  0.00  0.00    -0.312 N 
ATOM     19  C   UNL     1      -9.489  -7.808   6.285  0.00  0.00    +0.216 C 
ATOM     31  H   UNL     1      -7.566  -8.514   6.605  0.00  0.00    +0.149 HD
BRANCH  19  14
ATOM      4  O   UNL     1      -8.155  -9.231   0.448  0.00  0.00    -0.276 OA
ATOM      8  N   UNL     1      -8.810  -7.725   2.092  0.00  0.00    -0.302 N 
ATOM     14  C   UNL     1      -9.006  -7.332   4.951  0.00  0.00    +0.078 C 
ATOM     17  C   UNL     1      -8.064  -8.377   4.348  0.00  0.00    +0.032 C 
ATOM     18  C   UNL     1     -10.194  -7.070   4.024  0.00  0.00    +0.032 C 
ATOM     20  C   UNL     1      -7.640  -7.987   2.934  0.00  0.00    +0.108 C 
ATOM     21  C   UNL     1      -9.728  -6.706   2.615  0.00  0.00    +0.108 C 
ATOM     23  C   UNL     1      -8.958  -8.401   0.881  0.00  0.00    +0.212 C 
ATOM     26  C   UNL     1     -10.190  -8.077   0.075  0.00  0.00    +0.109 C 
ENDBRANCH  19  14
ENDBRANCH   9   6
TORSDOF 3
ENDMDL
