MODEL 1
REMARK VINA RESULT:      -6.2      0.000      0.000
REMARK  Name = 26742338
REMARK  5 active torsions:
REMARK  status: ('A' for Active; 'I' for Inactive)
REMARK    1  A    between atoms: O_3  and  C_14
REMARK    2  A    between atoms: O_3  and  C_17
REMARK    3  A    between atoms: N_6  and  C_18
REMARK    4  A    between atoms: C_8  and  C_14
REMARK    5  A    between atoms: C_10  and  C_15
REMARK                            x       y       z     vdW  Elec       q    Type
REMARK                         _______ _______ _______ _____ _____    ______ ____
ROOT
ATOM      3  O   UNL     1      -5.993  -9.303  13.028  0.00  0.00    -0.449 OA
ENDROOT
BRANCH   3  17
ATOM      4  O   UNL     1      -6.036 -11.387  13.968  0.00  0.00    -0.226 OA
ATOM      6  N   UNL     1      -5.881  -9.448  15.272  0.00  0.00    -0.248 N 
ATOM     17  C   UNL     1      -5.975 -10.170  14.098  0.00  0.00    +0.405 C 
ATOM     24  H   UNL     1      -5.840  -8.436  15.178  0.00  0.00    +0.158 HD
BRANCH   6  18
ATOM      1  F   UNL     1      -3.556 -10.562  16.329  0.00  0.00    -0.203 F 
ATOM      2  F   UNL     1      -5.706 -11.381  20.464  0.00  0.00    -0.205 F 
ATOM     18  C   UNL     1      -5.833  -9.941  16.595  0.00  0.00    +0.072 A 
ATOM     19  C   UNL     1      -4.654 -10.494  17.095  0.00  0.00    +0.147 A 
ATOM     20  C   UNL     1      -6.969  -9.876  17.402  0.00  0.00    +0.029 A 
ATOM     21  C   UNL     1      -4.610 -10.980  18.402  0.00  0.00    +0.078 A 
ATOM     22  C   UNL     1      -6.926 -10.362  18.709  0.00  0.00    +0.040 A 
ATOM     23  C   UNL     1      -5.746 -10.914  19.208  0.00  0.00    +0.126 A 
ENDBRANCH   6  18
ENDBRANCH   3  17
BRANCH   3  14
ATOM     14  C   UNL     1      -6.977  -9.534  12.038  0.00  0.00    +0.252 C 
BRANCH  14   8
ATOM      5  N   UNL     1      -6.099 -10.668   9.982  0.00  0.00    -0.295 NA
ATOM      7  C   UNL     1      -3.952  -9.206   9.843  0.00  0.00    +0.008 C 
ATOM      8  C   UNL     1      -6.327  -9.367  10.663  0.00  0.00    +0.095 C 
ATOM      9  C   UNL     1      -5.018  -8.548  10.742  0.00  0.00    +0.027 C 
ATOM     10  C   UNL     1      -3.627 -10.612  10.393  0.00  0.00    +0.081 C 
ATOM     11  C   UNL     1      -4.581  -9.404   8.451  0.00  0.00    +0.020 C 
ATOM     12  C   UNL     1      -4.952 -11.379  10.600  0.00  0.00    +0.101 C 
ATOM     13  C   UNL     1      -5.759 -10.388   8.565  0.00  0.00    +0.085 C 
BRANCH  10  15
ATOM     15  C   UNL     1      -2.838 -10.552  11.633  0.00  0.00    -0.101 C 
ATOM     16  C   UNL     1      -2.194 -10.503  12.645  0.00  0.00    +0.004 C 
ENDBRANCH  10  15
ENDBRANCH  14   8
ENDBRANCH   3  14
TORSDOF 5
ENDMDL
MODEL 2
REMARK VINA RESULT:      -6.1     22.661     24.674
REMARK  Name = 26742338
REMARK  5 active torsions:
REMARK  status: ('A' for Active; 'I' for Inactive)
REMARK    1  A    between atoms: O_3  and  C_14
REMARK    2  A    between atoms: O_3  and  C_17
REMARK    3  A    between atoms: N_6  and  C_18
REMARK    4  A    between atoms: C_8  and  C_14
REMARK    5  A    between atoms: C_10  and  C_15
REMARK                            x       y       z     vdW  Elec       q    Type
REMARK                         _______ _______ _______ _____ _____    ______ ____
ROOT
ATOM      3  O   UNL     1      10.838   6.701   3.221  0.00  0.00    -0.449 OA
ENDROOT
BRANCH   3  17
ATOM      4  O   UNL     1      12.169   6.626   5.078  0.00  0.00    -0.226 OA
ATOM      6  N   UNL     1       9.905   6.035   5.159  0.00  0.00    -0.248 N 
ATOM     17  C   UNL     1      11.072   6.464   4.557  0.00  0.00    +0.405 C 
ATOM     24  H   UNL     1       9.087   5.962   4.558  0.00  0.00    +0.158 HD
BRANCH   6  18
ATOM      1  F   UNL     1      10.106   3.395   6.024  0.00  0.00    -0.203 F 
ATOM      2  F   UNL     1       9.106   4.667  10.471  0.00  0.00    -0.205 F 
ATOM     18  C   UNL     1       9.702   5.684   6.512  0.00  0.00    +0.072 A 
ATOM     19  C   UNL     1       9.810   4.353   6.914  0.00  0.00    +0.147 A 
ATOM     20  C   UNL     1       9.392   6.671   7.448  0.00  0.00    +0.029 A 
ATOM     21  C   UNL     1       9.609   4.009   8.251  0.00  0.00    +0.078 A 
ATOM     22  C   UNL     1       9.191   6.328   8.784  0.00  0.00    +0.040 A 
ATOM     23  C   UNL     1       9.300   4.996   9.186  0.00  0.00    +0.126 A 
ENDBRANCH   6  18
ENDBRANCH   3  17
BRANCH   3  14
ATOM     14  C   UNL     1      10.826   5.573   2.367  0.00  0.00    +0.252 C 
BRANCH  14   8
ATOM      5  N   UNL     1      13.189   5.748   1.550  0.00  0.00    -0.295 NA
ATOM      7  C   UNL     1      13.385   3.225   0.949  0.00  0.00    +0.008 C 
ATOM      8  C   UNL     1      12.226   4.957   2.360  0.00  0.00    +0.095 C 
ATOM      9  C   UNL     1      12.203   3.481   1.905  0.00  0.00    +0.027 C 
ATOM     10  C   UNL     1      13.199   4.082  -0.322  0.00  0.00    +0.081 C 
ATOM     11  C   UNL     1      14.661   3.731   1.647  0.00  0.00    +0.020 C 
ATOM     12  C   UNL     1      12.934   5.543   0.102  0.00  0.00    +0.101 C 
ATOM     13  C   UNL     1      14.554   5.253   1.852  0.00  0.00    +0.085 C 
BRANCH  10  15
ATOM     15  C   UNL     1      12.124   3.566  -1.185  0.00  0.00    -0.101 C 
ATOM     16  C   UNL     1      11.247   3.146  -1.889  0.00  0.00    +0.004 C 
ENDBRANCH  10  15
ENDBRANCH  14   8
ENDBRANCH   3  14
TORSDOF 5
ENDMDL
MODEL 3
REMARK VINA RESULT:      -6.1     23.153     25.708
REMARK  Name = 26742338
REMARK  5 active torsions:
REMARK  status: ('A' for Active; 'I' for Inactive)
REMARK    1  A    between atoms: O_3  and  C_14
REMARK    2  A    between atoms: O_3  and  C_17
REMARK    3  A    between atoms: N_6  and  C_18
REMARK    4  A    between atoms: C_8  and  C_14
REMARK    5  A    between atoms: C_10  and  C_15
REMARK                            x       y       z     vdW  Elec       q    Type
REMARK                         _______ _______ _______ _____ _____    ______ ____
ROOT
ATOM      3  O   UNL     1       9.104   7.184   3.092  0.00  0.00    -0.449 OA
ENDROOT
BRANCH   3  17
ATOM      4  O   UNL     1       9.890   6.665   1.008  0.00  0.00    -0.226 OA
ATOM      6  N   UNL     1      11.032   6.030   2.951  0.00  0.00    -0.248 N 
ATOM     17  C   UNL     1      10.015   6.620   2.226  0.00  0.00    +0.405 C 
ATOM     24  H   UNL     1      10.963   6.096   3.964  0.00  0.00    +0.158 HD
BRANCH   6  18
ATOM      1  F   UNL     1      10.920   3.325   2.290  0.00  0.00    -0.203 F 
ATOM      2  F   UNL     1      15.479   3.339   1.025  0.00  0.00    -0.205 F 
ATOM     18  C   UNL     1      12.164   5.341   2.460  0.00  0.00    +0.072 A 
ATOM     19  C   UNL     1      12.075   3.987   2.138  0.00  0.00    +0.147 A 
ATOM     20  C   UNL     1      13.373   6.019   2.297  0.00  0.00    +0.029 A 
ATOM     21  C   UNL     1      13.195   3.310   1.653  0.00  0.00    +0.078 A 
ATOM     22  C   UNL     1      14.492   5.342   1.813  0.00  0.00    +0.040 A 
ATOM     23  C   UNL     1      14.403   3.988   1.490  0.00  0.00    +0.126 A 
ENDBRANCH   6  18
ENDBRANCH   3  17
BRANCH   3  14
ATOM     14  C   UNL     1       8.962   6.568   4.357  0.00  0.00    +0.252 C 
BRANCH  14   8
ATOM      5  N   UNL     1      10.544   7.863   5.808  0.00  0.00    -0.295 NA
ATOM      7  C   UNL     1       9.093   7.627   7.954  0.00  0.00    +0.008 C 
ATOM      8  C   UNL     1       9.122   7.641   5.437  0.00  0.00    +0.095 C 
ATOM      9  C   UNL     1       8.267   7.330   6.686  0.00  0.00    +0.027 C 
ATOM     10  C   UNL     1      10.305   6.673   8.000  0.00  0.00    +0.081 C 
ATOM     11  C   UNL     1       9.652   9.055   7.815  0.00  0.00    +0.020 C 
ATOM     12  C   UNL     1      11.040   6.741   6.643  0.00  0.00    +0.101 C 
ATOM     13  C   UNL     1      10.615   9.106   6.615  0.00  0.00    +0.085 C 
BRANCH  10  15
ATOM     15  C   UNL     1       9.911   5.294   8.333  0.00  0.00    -0.101 C 
ATOM     16  C   UNL     1       9.590   4.169   8.603  0.00  0.00    +0.004 C 
ENDBRANCH  10  15
ENDBRANCH  14   8
ENDBRANCH   3  14
TORSDOF 5
ENDMDL
MODEL 4
REMARK VINA RESULT:      -6.0     27.420     29.028
REMARK  Name = 26742338
REMARK  5 active torsions:
REMARK  status: ('A' for Active; 'I' for Inactive)
REMARK    1  A    between atoms: O_3  and  C_14
REMARK    2  A    between atoms: O_3  and  C_17
REMARK    3  A    between atoms: N_6  and  C_18
REMARK    4  A    between atoms: C_8  and  C_14
REMARK    5  A    between atoms: C_10  and  C_15
REMARK                            x       y       z     vdW  Elec       q    Type
REMARK                         _______ _______ _______ _____ _____    ______ ____
ROOT
ATOM      3  O   UNL     1      15.846   8.542  21.586  0.00  0.00    -0.449 OA
ENDROOT
BRANCH   3  17
ATOM      4  O   UNL     1      17.925   9.338  21.065  0.00  0.00    -0.226 OA
ATOM      6  N   UNL     1      17.578   7.106  21.682  0.00  0.00    -0.248 N 
ATOM     17  C   UNL     1      17.205   8.409  21.410  0.00  0.00    +0.405 C 
ATOM     24  H   UNL     1      16.833   6.471  21.957  0.00  0.00    +0.158 HD
BRANCH   6  18
ATOM      1  F   UNL     1      18.408   5.582  19.502  0.00  0.00    -0.203 F 
ATOM      2  F   UNL     1      22.656   4.896  21.468  0.00  0.00    -0.205 F 
ATOM     18  C   UNL     1      18.872   6.542  21.624  0.00  0.00    +0.072 A 
ATOM     19  C   UNL     1      19.257   5.783  20.519  0.00  0.00    +0.147 A 
ATOM     20  C   UNL     1      19.765   6.744  22.677  0.00  0.00    +0.029 A 
ATOM     21  C   UNL     1      20.536   5.227  20.466  0.00  0.00    +0.078 A 
ATOM     22  C   UNL     1      21.043   6.188  22.624  0.00  0.00    +0.040 A 
ATOM     23  C   UNL     1      21.428   5.430  21.518  0.00  0.00    +0.126 A 
ENDBRANCH   6  18
ENDBRANCH   3  17
BRANCH   3  14
ATOM     14  C   UNL     1      15.030   7.526  21.035  0.00  0.00    +0.252 C 
BRANCH  14   8
ATOM      5  N   UNL     1      12.637   6.799  20.873  0.00  0.00    -0.295 NA
ATOM      7  C   UNL     1      11.726   9.193  20.416  0.00  0.00    +0.008 C 
ATOM      8  C   UNL     1      13.577   7.812  21.419  0.00  0.00    +0.095 C 
ATOM      9  C   UNL     1      13.146   9.240  21.015  0.00  0.00    +0.027 C 
ATOM     10  C   UNL     1      11.755   8.356  19.119  0.00  0.00    +0.081 C 
ATOM     11  C   UNL     1      10.830   8.438  21.415  0.00  0.00    +0.020 C 
ATOM     12  C   UNL     1      12.445   7.007  19.416  0.00  0.00    +0.101 C 
ATOM     13  C   UNL     1      11.326   6.986  21.542  0.00  0.00    +0.085 C 
BRANCH  10  15
ATOM     15  C   UNL     1      12.417   9.070  18.015  0.00  0.00    -0.101 C 
ATOM     16  C   UNL     1      12.958   9.651  17.115  0.00  0.00    +0.004 C 
ENDBRANCH  10  15
ENDBRANCH  14   8
ENDBRANCH   3  14
TORSDOF 5
ENDMDL
MODEL 5
REMARK VINA RESULT:      -5.9     23.423     25.802
REMARK  Name = 26742338
REMARK  5 active torsions:
REMARK  status: ('A' for Active; 'I' for Inactive)
REMARK    1  A    between atoms: O_3  and  C_14
REMARK    2  A    between atoms: O_3  and  C_17
REMARK    3  A    between atoms: N_6  and  C_18
REMARK    4  A    between atoms: C_8  and  C_14
REMARK    5  A    between atoms: C_10  and  C_15
REMARK                            x       y       z     vdW  Elec       q    Type
REMARK                         _______ _______ _______ _____ _____    ______ ____
ROOT
ATOM      3  O   UNL     1      11.997   7.669   4.851  0.00  0.00    -0.449 OA
ENDROOT
BRANCH   3  17
ATOM      4  O   UNL     1      11.978   8.107   2.606  0.00  0.00    -0.226 OA
ATOM      6  N   UNL     1      12.133   5.923   3.436  0.00  0.00    -0.248 N 
ATOM     17  C   UNL     1      12.032   7.297   3.525  0.00  0.00    +0.405 C 
ATOM     24  H   UNL     1      12.165   5.414   4.316  0.00  0.00    +0.158 HD
BRANCH   6  18
ATOM      1  F   UNL     1       9.896   5.513   1.827  0.00  0.00    -0.203 F 
ATOM      2  F   UNL     1      12.396   2.805  -1.140  0.00  0.00    -0.205 F 
ATOM     18  C   UNL     1      12.197   5.129   2.269  0.00  0.00    +0.072 A 
ATOM     19  C   UNL     1      11.059   4.942   1.484  0.00  0.00    +0.147 A 
ATOM     20  C   UNL     1      13.403   4.529   1.901  0.00  0.00    +0.029 A 
ATOM     21  C   UNL     1      11.126   4.158   0.332  0.00  0.00    +0.078 A 
ATOM     22  C   UNL     1      13.469   3.745   0.750  0.00  0.00    +0.040 A 
ATOM     23  C   UNL     1      12.331   3.560  -0.034  0.00  0.00    +0.126 A 
ENDBRANCH   6  18
ENDBRANCH   3  17
BRANCH   3  14
ATOM     14  C   UNL     1      12.283   6.662   5.802  0.00  0.00    +0.252 C 
BRANCH  14   8
ATOM      5  N   UNL     1      10.348   5.504   6.895  0.00  0.00    -0.295 NA
ATOM      7  C   UNL     1       8.880   7.647   7.036  0.00  0.00    +0.008 C 
ATOM      8  C   UNL     1      11.213   6.712   6.894  0.00  0.00    +0.095 C 
ATOM      9  C   UNL     1      10.364   8.000   6.808  0.00  0.00    +0.027 C 
ATOM     10  C   UNL     1       8.401   6.724   5.895  0.00  0.00    +0.081 C 
ATOM     11  C   UNL     1       8.797   6.829   8.339  0.00  0.00    +0.020 C 
ATOM     12  C   UNL     1       9.396   5.551   5.758  0.00  0.00    +0.101 C 
ATOM     13  C   UNL     1       9.562   5.506   8.154  0.00  0.00    +0.085 C 
BRANCH  10  15
ATOM     15  C   UNL     1       8.243   7.451   4.625  0.00  0.00    -0.101 C 
ATOM     16  C   UNL     1       8.115   8.044   3.589  0.00  0.00    +0.004 C 
ENDBRANCH  10  15
ENDBRANCH  14   8
ENDBRANCH   3  14
TORSDOF 5
ENDMDL
MODEL 6
REMARK VINA RESULT:      -5.8     27.088     28.707
REMARK  Name = 26742338
REMARK  5 active torsions:
REMARK  status: ('A' for Active; 'I' for Inactive)
REMARK    1  A    between atoms: O_3  and  C_14
REMARK    2  A    between atoms: O_3  and  C_17
REMARK    3  A    between atoms: N_6  and  C_18
REMARK    4  A    between atoms: C_8  and  C_14
REMARK    5  A    between atoms: C_10  and  C_15
REMARK                            x       y       z     vdW  Elec       q    Type
REMARK                         _______ _______ _______ _____ _____    ______ ____
ROOT
ATOM      3  O   UNL     1      15.803   7.847  19.525  0.00  0.00    -0.449 OA
ENDROOT
BRANCH   3  17
ATOM      4  O   UNL     1      16.021   6.099  20.983  0.00  0.00    -0.226 OA
ATOM      6  N   UNL     1      17.881   7.268  20.171  0.00  0.00    -0.248 N 
ATOM     17  C   UNL     1      16.536   6.977  20.301  0.00  0.00    +0.405 C 
ATOM     24  H   UNL     1      18.119   8.040  19.554  0.00  0.00    +0.158 HD
BRANCH   6  18
ATOM      1  F   UNL     1      18.841   4.819  19.254  0.00  0.00    -0.203 F 
ATOM      2  F   UNL     1      22.169   4.746  22.616  0.00  0.00    -0.205 F 
ATOM     18  C   UNL     1      18.974   6.623  20.793  0.00  0.00    +0.072 A 
ATOM     19  C   UNL     1      19.431   5.397  20.309  0.00  0.00    +0.147 A 
ATOM     20  C   UNL     1      19.596   7.214  21.892  0.00  0.00    +0.029 A 
ATOM     21  C   UNL     1      20.511   4.762  20.925  0.00  0.00    +0.078 A 
ATOM     22  C   UNL     1      20.675   6.581  22.508  0.00  0.00    +0.040 A 
ATOM     23  C   UNL     1      21.132   5.355  22.023  0.00  0.00    +0.126 A 
ENDBRANCH   6  18
ENDBRANCH   3  17
BRANCH   3  14
ATOM     14  C   UNL     1      14.501   7.432  19.159  0.00  0.00    +0.252 C 
BRANCH  14   8
ATOM      5  N   UNL     1      13.680   8.888  21.027  0.00  0.00    -0.295 NA
ATOM      7  C   UNL     1      11.162   8.482  20.509  0.00  0.00    +0.008 C 
ATOM      8  C   UNL     1      13.509   8.510  19.599  0.00  0.00    +0.095 C 
ATOM      9  C   UNL     1      12.048   8.101  19.306  0.00  0.00    +0.027 C 
ATOM     10  C   UNL     1      11.611   7.668  21.742  0.00  0.00    +0.081 C 
ATOM     11  C   UNL     1      11.433   9.964  20.829  0.00  0.00    +0.020 C 
ATOM     12  C   UNL     1      13.138   7.824  21.909  0.00  0.00    +0.101 C 
ATOM     13  C   UNL     1      12.900  10.127  21.266  0.00  0.00    +0.085 C 
BRANCH  10  15
ATOM     15  C   UNL     1      11.220   6.253  21.643  0.00  0.00    -0.101 C 
ATOM     16  C   UNL     1      10.900   5.098  21.562  0.00  0.00    +0.004 C 
ENDBRANCH  10  15
ENDBRANCH  14   8
ENDBRANCH   3  14
TORSDOF 5
ENDMDL
MODEL 7
REMARK VINA RESULT:      -5.8     23.122     25.386
REMARK  Name = 26742338
REMARK  5 active torsions:
REMARK  status: ('A' for Active; 'I' for Inactive)
REMARK    1  A    between atoms: O_3  and  C_14
REMARK    2  A    between atoms: O_3  and  C_17
REMARK    3  A    between atoms: N_6  and  C_18
REMARK    4  A    between atoms: C_8  and  C_14
REMARK    5  A    between atoms: C_10  and  C_15
REMARK                            x       y       z     vdW  Elec       q    Type
REMARK                         _______ _______ _______ _____ _____    ______ ____
ROOT
ATOM      3  O   UNL     1       2.291   2.041  -5.741  0.00  0.00    -0.449 OA
ENDROOT
BRANCH   3  17
ATOM      4  O   UNL     1       0.342   1.796  -4.572  0.00  0.00    -0.226 OA
ATOM      6  N   UNL     1       0.525   1.148  -6.814  0.00  0.00    -0.248 N 
ATOM     17  C   UNL     1       0.972   1.666  -5.614  0.00  0.00    +0.405 C 
ATOM     24  H   UNL     1       1.200   1.121  -7.575  0.00  0.00    +0.158 HD
BRANCH   6  18
ATOM      1  F   UNL     1      -0.375  -1.281  -5.787  0.00  0.00    -0.203 F 
ATOM      2  F   UNL     1      -4.519  -0.810  -8.021  0.00  0.00    -0.205 F 
ATOM     18  C   UNL     1      -0.760   0.647  -7.120  0.00  0.00    +0.072 A 
ATOM     19  C   UNL     1      -1.181  -0.573  -6.590  0.00  0.00    +0.147 A 
ATOM     20  C   UNL     1      -1.609   1.374  -7.955  0.00  0.00    +0.029 A 
ATOM     21  C   UNL     1      -2.451  -1.065  -6.894  0.00  0.00    +0.078 A 
ATOM     22  C   UNL     1      -2.878   0.882  -8.259  0.00  0.00    +0.040 A 
ATOM     23  C   UNL     1      -3.299  -0.338  -7.728  0.00  0.00    +0.126 A 
ENDBRANCH   6  18
ENDBRANCH   3  17
BRANCH   3  14
ATOM     14  C   UNL     1       2.651   3.299  -5.202  0.00  0.00    +0.252 C 
BRANCH  14   8
ATOM      5  N   UNL     1       2.544   4.990  -7.049  0.00  0.00    -0.295 NA
ATOM      7  C   UNL     1       1.500   6.852  -5.561  0.00  0.00    +0.008 C 
ATOM      8  C   UNL     1       1.823   4.378  -5.902  0.00  0.00    +0.095 C 
ATOM      9  C   UNL     1       1.337   5.462  -4.913  0.00  0.00    +0.027 C 
ATOM     10  C   UNL     1       3.000   7.119  -5.808  0.00  0.00    +0.081 C 
ATOM     11  C   UNL     1       0.822   6.798  -6.942  0.00  0.00    +0.020 C 
ATOM     12  C   UNL     1       3.601   5.911  -6.560  0.00  0.00    +0.101 C 
ATOM     13  C   UNL     1       1.566   5.785  -7.832  0.00  0.00    +0.085 C 
BRANCH  10  15
ATOM     15  C   UNL     1       3.727   7.392  -4.557  0.00  0.00    -0.101 C 
ATOM     16  C   UNL     1       4.319   7.614  -3.537  0.00  0.00    +0.004 C 
ENDBRANCH  10  15
ENDBRANCH  14   8
ENDBRANCH   3  14
TORSDOF 5
ENDMDL
MODEL 8
REMARK VINA RESULT:      -5.7      2.637      6.929
REMARK  Name = 26742338
REMARK  5 active torsions:
REMARK  status: ('A' for Active; 'I' for Inactive)
REMARK    1  A    between atoms: O_3  and  C_14
REMARK    2  A    between atoms: O_3  and  C_17
REMARK    3  A    between atoms: N_6  and  C_18
REMARK    4  A    between atoms: C_8  and  C_14
REMARK    5  A    between atoms: C_10  and  C_15
REMARK                            x       y       z     vdW  Elec       q    Type
REMARK                         _______ _______ _______ _____ _____    ______ ____
ROOT
ATOM      3  O   UNL     1      -5.478 -13.000  14.781  0.00  0.00    -0.449 OA
ENDROOT
BRANCH   3  17
ATOM      4  O   UNL     1      -5.163 -13.524  12.578  0.00  0.00    -0.226 OA
ATOM      6  N   UNL     1      -4.947 -11.331  13.368  0.00  0.00    -0.248 N 
ATOM     17  C   UNL     1      -5.188 -12.687  13.472  0.00  0.00    +0.405 C 
ATOM     24  H   UNL     1      -5.015 -10.792  14.227  0.00  0.00    +0.158 HD
BRANCH   6  18
ATOM      1  F   UNL     1      -2.352 -11.300  12.354  0.00  0.00    -0.203 F 
ATOM      2  F   UNL     1      -3.653  -8.433   8.823  0.00  0.00    -0.205 F 
ATOM     18  C   UNL     1      -4.614 -10.593  12.209  0.00  0.00    +0.072 A 
ATOM     19  C   UNL     1      -3.306 -10.598  11.727  0.00  0.00    +0.147 A 
ATOM     20  C   UNL     1      -5.598  -9.858  11.547  0.00  0.00    +0.029 A 
ATOM     21  C   UNL     1      -2.980  -9.868  10.583  0.00  0.00    +0.078 A 
ATOM     22  C   UNL     1      -5.273  -9.129  10.404  0.00  0.00    +0.040 A 
ATOM     23  C   UNL     1      -3.964  -9.134   9.922  0.00  0.00    +0.126 A 
ENDBRANCH   6  18
ENDBRANCH   3  17
BRANCH   3  14
ATOM     14  C   UNL     1      -6.713 -12.534  15.290  0.00  0.00    +0.252 C 
BRANCH  14   8
ATOM      5  N   UNL     1      -6.645 -10.661  16.955  0.00  0.00    -0.295 NA
ATOM      7  C   UNL     1      -4.508 -11.533  18.156  0.00  0.00    +0.008 C 
ATOM      8  C   UNL     1      -6.511 -12.128  16.751  0.00  0.00    +0.095 C 
ATOM      9  C   UNL     1      -5.166 -12.643  17.310  0.00  0.00    +0.027 C 
ATOM     10  C   UNL     1      -4.177 -10.333  17.242  0.00  0.00    +0.081 C 
ATOM     11  C   UNL     1      -5.558 -11.046  19.172  0.00  0.00    +0.020 C 
ATOM     12  C   UNL     1      -5.443  -9.958  16.441  0.00  0.00    +0.101 C 
ATOM     13  C   UNL     1      -6.738 -10.410  18.414  0.00  0.00    +0.085 C 
BRANCH  10  15
ATOM     15  C   UNL     1      -3.038 -10.613  16.353  0.00  0.00    -0.101 C 
ATOM     16  C   UNL     1      -2.109 -10.841  15.628  0.00  0.00    +0.004 C 
ENDBRANCH  10  15
ENDBRANCH  14   8
ENDBRANCH   3  14
TORSDOF 5
ENDMDL
MODEL 9
REMARK VINA RESULT:      -5.6      2.960      7.767
REMARK  Name = 26742338
REMARK  5 active torsions:
REMARK  status: ('A' for Active; 'I' for Inactive)
REMARK    1  A    between atoms: O_3  and  C_14
REMARK    2  A    between atoms: O_3  and  C_17
REMARK    3  A    between atoms: N_6  and  C_18
REMARK    4  A    between atoms: C_8  and  C_14
REMARK    5  A    between atoms: C_10  and  C_15
REMARK                            x       y       z     vdW  Elec       q    Type
REMARK                         _______ _______ _______ _____ _____    ______ ____
ROOT
ATOM      3  O   UNL     1      -3.022 -10.763  14.345  0.00  0.00    -0.449 OA
ENDROOT
BRANCH   3  17
ATOM      4  O   UNL     1      -1.785 -10.205  12.505  0.00  0.00    -0.226 OA
ATOM      6  N   UNL     1      -4.098 -10.548  12.379  0.00  0.00    -0.248 N 
ATOM     17  C   UNL     1      -2.870 -10.476  13.006  0.00  0.00    +0.405 C 
ATOM     24  H   UNL     1      -4.893 -10.789  12.966  0.00  0.00    +0.158 HD
BRANCH   6  18
ATOM      1  F   UNL     1      -5.282  -8.181  11.509  0.00  0.00    -0.203 F 
ATOM      2  F   UNL     1      -5.248  -9.690   7.025  0.00  0.00    -0.205 F 
ATOM     18  C   UNL     1      -4.392 -10.326  11.014  0.00  0.00    +0.072 A 
ATOM     19  C   UNL     1      -4.986  -9.130  10.611  0.00  0.00    +0.147 A 
ATOM     20  C   UNL     1      -4.088 -11.307  10.070  0.00  0.00    +0.029 A 
ATOM     21  C   UNL     1      -5.275  -8.915   9.263  0.00  0.00    +0.078 A 
ATOM     22  C   UNL     1      -4.377 -11.092   8.723  0.00  0.00    +0.040 A 
ATOM     23  C   UNL     1      -4.970  -9.895   8.320  0.00  0.00    +0.126 A 
ENDBRANCH   6  18
ENDBRANCH   3  17
BRANCH   3  14
ATOM     14  C   UNL     1      -4.335 -11.042  14.791  0.00  0.00    +0.252 C 
BRANCH  14   8
ATOM      5  N   UNL     1      -5.188 -12.580  16.577  0.00  0.00    -0.295 NA
ATOM      7  C   UNL     1      -5.436 -10.703  18.361  0.00  0.00    +0.008 C 
ATOM      8  C   UNL     1      -4.268 -11.455  16.262  0.00  0.00    +0.095 C 
ATOM      9  C   UNL     1      -4.515 -10.258  17.208  0.00  0.00    +0.027 C 
ATOM     10  C   UNL     1      -6.812 -11.100  17.783  0.00  0.00    +0.081 C 
ATOM     11  C   UNL     1      -4.824 -11.975  18.975  0.00  0.00    +0.020 C 
ATOM     12  C   UNL     1      -6.591 -12.099  16.626  0.00  0.00    +0.101 C 
ATOM     13  C   UNL     1      -4.831 -13.098  17.921  0.00  0.00    +0.085 C 
BRANCH  10  15
ATOM     15  C   UNL     1      -7.586  -9.928  17.344  0.00  0.00    -0.101 C 
ATOM     16  C   UNL     1      -8.218  -8.971  16.985  0.00  0.00    +0.004 C 
ENDBRANCH  10  15
ENDBRANCH  14   8
ENDBRANCH   3  14
TORSDOF 5
ENDMDL
MODEL 10
REMARK VINA RESULT:      -5.6     30.099     32.046
REMARK  Name = 26742338
REMARK  5 active torsions:
REMARK  status: ('A' for Active; 'I' for Inactive)
REMARK    1  A    between atoms: O_3  and  C_14
REMARK    2  A    between atoms: O_3  and  C_17
REMARK    3  A    between atoms: N_6  and  C_18
REMARK    4  A    between atoms: C_8  and  C_14
REMARK    5  A    between atoms: C_10  and  C_15
REMARK                            x       y       z     vdW  Elec       q    Type
REMARK                         _______ _______ _______ _____ _____    ______ ____
ROOT
ATOM      3  O   UNL     1      22.510   5.011  20.826  0.00  0.00    -0.449 OA
ENDROOT
BRANCH   3  17
ATOM      4  O   UNL     1      21.741   7.043  20.112  0.00  0.00    -0.226 OA
ATOM      6  N   UNL     1      20.285   5.278  20.610  0.00  0.00    -0.248 N 
ATOM     17  C   UNL     1      21.513   5.896  20.477  0.00  0.00    +0.405 C 
ATOM     24  H   UNL     1      20.297   4.312  20.929  0.00  0.00    +0.158 HD
BRANCH   6  18
ATOM      1  F   UNL     1      19.132   7.145  22.327  0.00  0.00    -0.203 F 
ATOM      2  F   UNL     1      15.265   7.407  19.612  0.00  0.00    -0.205 F 
ATOM     18  C   UNL     1      19.006   5.822  20.358  0.00  0.00    +0.072 A 
ATOM     19  C   UNL     1      18.456   6.755  21.237  0.00  0.00    +0.147 A 
ATOM     20  C   UNL     1      18.291   5.424  19.228  0.00  0.00    +0.029 A 
ATOM     21  C   UNL     1      17.192   7.291  20.986  0.00  0.00    +0.078 A 
ATOM     22  C   UNL     1      17.029   5.960  18.976  0.00  0.00    +0.040 A 
ATOM     23  C   UNL     1      16.479   6.893  19.855  0.00  0.00    +0.126 A 
ENDBRANCH   6  18
ENDBRANCH   3  17
BRANCH   3  14
ATOM     14  C   UNL     1      22.578   4.633  22.187  0.00  0.00    +0.252 C 
BRANCH  14   8
ATOM      5  N   UNL     1      24.250   2.995  23.086  0.00  0.00    -0.295 NA
ATOM      7  C   UNL     1      24.502   1.707  20.840  0.00  0.00    +0.008 C 
ATOM      8  C   UNL     1      23.027   3.172  22.259  0.00  0.00    +0.095 C 
ATOM      9  C   UNL     1      23.217   2.558  20.854  0.00  0.00    +0.027 C 
ATOM     10  C   UNL     1      25.718   2.626  21.088  0.00  0.00    +0.081 C 
ATOM     11  C   UNL     1      24.424   0.736  22.032  0.00  0.00    +0.020 C 
ATOM     12  C   UNL     1      25.444   3.477  22.348  0.00  0.00    +0.101 C 
ATOM     13  C   UNL     1      24.421   1.544  23.343  0.00  0.00    +0.085 C 
BRANCH  10  15
ATOM     15  C   UNL     1      26.020   3.471  19.921  0.00  0.00    -0.101 C 
ATOM     16  C   UNL     1      26.267   4.160  18.970  0.00  0.00    +0.004 C 
ENDBRANCH  10  15
ENDBRANCH  14   8
ENDBRANCH   3  14
TORSDOF 5
ENDMDL
