MODEL 1
REMARK VINA RESULT:      -6.6      0.000      0.000
REMARK  Name = 11941709
REMARK  4 active torsions:
REMARK  status: ('A' for Active; 'I' for Inactive)
REMARK    1  A    between atoms: S_1  and  N_5
REMARK    2  A    between atoms: S_1  and  C_18
REMARK    3  A    between atoms: C_16  and  C_19
REMARK    4  A    between atoms: C_20  and  C_23
REMARK                            x       y       z     vdW  Elec       q    Type
REMARK                         _______ _______ _______ _____ _____    ______ ____
ROOT
ATOM      4  O   UNL     1      12.459   7.268   3.707  0.00  0.00    -0.267 OA
ATOM      5  N   UNL     1      13.198   5.133  -0.736  0.00  0.00    -0.180 NA
ATOM      6  N   UNL     1      12.937   5.396   2.401  0.00  0.00    -0.311 N 
ATOM      7  C   UNL     1      15.039   5.229   0.947  0.00  0.00    +0.025 C 
ATOM      8  C   UNL     1      13.439   3.366   0.997  0.00  0.00    +0.052 C 
ATOM      9  C   UNL     1      14.911   3.729   1.181  0.00  0.00    +0.017 C 
ATOM     10  C   UNL     1      14.592   5.595  -0.477  0.00  0.00    +0.114 C 
ATOM     11  C   UNL     1      13.009   3.680  -0.447  0.00  0.00    +0.118 C 
ATOM     12  C   UNL     1      14.236   5.971   2.023  0.00  0.00    +0.130 C 
ATOM     13  C   UNL     1      12.565   4.117   1.983  0.00  0.00    +0.026 A 
ATOM     14  C   UNL     1      11.428   3.565   2.436  0.00  0.00    +0.022 A 
ATOM     15  C   UNL     1      12.146   6.152   3.289  0.00  0.00    +0.259 A 
ATOM     16  C   UNL     1      10.859   5.522   3.751  0.00  0.00    +0.047 A 
ATOM     17  C   UNL     1      10.562   4.284   3.328  0.00  0.00    +0.015 A 
ENDROOT
BRANCH  16  19
ATOM     19  C   UNL     1       9.933   6.242   4.641  0.00  0.00    -0.010 A 
ATOM     20  C   UNL     1       9.043   7.199   4.147  0.00  0.00    -0.043 A 
ATOM     21  C   UNL     1       9.952   5.955   6.008  0.00  0.00    +0.009 A 
ATOM     22  C   UNL     1       8.178   7.864   5.015  0.00  0.00    +0.004 A 
ATOM     23  C   UNL     1       8.991   7.534   2.691  0.00  0.00    +0.044 C 
ATOM     24  C   UNL     1       9.088   6.621   6.875  0.00  0.00    +0.001 A 
ATOM     25  C   UNL     1       8.200   7.576   6.379  0.00  0.00    +0.000 A 
ENDBRANCH  16  19
BRANCH   5   1
ATOM      1  S   UNL     1      12.488   5.698  -2.187  0.00  0.00    +0.029 S 
ATOM      2  O   UNL     1      13.209   5.137  -3.307  0.00  0.00    -0.158 OA
ATOM      3  O   UNL     1      12.253   7.121  -2.068  0.00  0.00    -0.158 OA
ATOM     18  C   UNL     1      10.920   4.873  -2.076  0.00  0.00    +0.215 C 
ENDBRANCH   5   1
TORSDOF 2
ENDMDL
MODEL 2
REMARK VINA RESULT:      -6.2     17.060     20.385
REMARK  Name = 11941709
REMARK  4 active torsions:
REMARK  status: ('A' for Active; 'I' for Inactive)
REMARK    1  A    between atoms: S_1  and  N_5
REMARK    2  A    between atoms: S_1  and  C_18
REMARK    3  A    between atoms: C_16  and  C_19
REMARK    4  A    between atoms: C_20  and  C_23
REMARK                            x       y       z     vdW  Elec       q    Type
REMARK                         _______ _______ _______ _____ _____    ______ ____
ROOT
ATOM      4  O   UNL     1      11.997  13.634  21.180  0.00  0.00    -0.267 OA
ATOM      5  N   UNL     1      13.022   9.308  18.927  0.00  0.00    -0.180 NA
ATOM      6  N   UNL     1      13.521  12.014  20.478  0.00  0.00    -0.311 N 
ATOM      7  C   UNL     1      13.900  11.456  18.007  0.00  0.00    +0.025 C 
ATOM      8  C   UNL     1      15.171  10.262  19.737  0.00  0.00    +0.052 C 
ATOM      9  C   UNL     1      15.306  11.078  18.454  0.00  0.00    +0.017 C 
ATOM     10  C   UNL     1      13.064  10.196  17.731  0.00  0.00    +0.114 C 
ATOM     11  C   UNL     1      14.383   8.972  19.445  0.00  0.00    +0.118 C 
ATOM     12  C   UNL     1      13.265  12.359  19.073  0.00  0.00    +0.130 C 
ATOM     13  C   UNL     1      14.484  11.065  20.825  0.00  0.00    +0.026 A 
ATOM     14  C   UNL     1      14.785  10.851  22.116  0.00  0.00    +0.022 A 
ATOM     15  C   UNL     1      12.827  12.764  21.448  0.00  0.00    +0.259 A 
ATOM     16  C   UNL     1      13.158  12.476  22.889  0.00  0.00    +0.047 A 
ATOM     17  C   UNL     1      14.105  11.565  23.160  0.00  0.00    +0.015 A 
ENDROOT
BRANCH  16  19
ATOM     19  C   UNL     1      12.460  13.167  23.985  0.00  0.00    -0.010 A 
ATOM     20  C   UNL     1      11.303  12.637  24.561  0.00  0.00    -0.043 A 
ATOM     21  C   UNL     1      12.975  14.378  24.455  0.00  0.00    +0.009 A 
ATOM     22  C   UNL     1      10.664  13.315  25.598  0.00  0.00    +0.004 A 
ATOM     23  C   UNL     1      10.721  11.344  24.087  0.00  0.00    +0.044 C 
ATOM     24  C   UNL     1      12.335  15.056  25.492  0.00  0.00    +0.001 A 
ATOM     25  C   UNL     1      11.179  14.524  26.064  0.00  0.00    +0.000 A 
ENDBRANCH  16  19
BRANCH   5   1
ATOM      1  S   UNL     1      11.921   8.001  18.842  0.00  0.00    +0.029 S 
ATOM      2  O   UNL     1      12.081   7.339  17.566  0.00  0.00    -0.158 OA
ATOM      3  O   UNL     1      10.626   8.450  19.309  0.00  0.00    -0.158 OA
ATOM     18  C   UNL     1      12.622   6.955  20.093  0.00  0.00    +0.215 C 
ENDBRANCH   5   1
TORSDOF 2
ENDMDL
MODEL 3
REMARK VINA RESULT:      -6.2     28.648     32.852
REMARK  Name = 11941709
REMARK  4 active torsions:
REMARK  status: ('A' for Active; 'I' for Inactive)
REMARK    1  A    between atoms: S_1  and  N_5
REMARK    2  A    between atoms: S_1  and  C_18
REMARK    3  A    between atoms: C_16  and  C_19
REMARK    4  A    between atoms: C_20  and  C_23
REMARK                            x       y       z     vdW  Elec       q    Type
REMARK                         _______ _______ _______ _____ _____    ______ ____
ROOT
ATOM      4  O   UNL     1     -14.491   8.352  18.525  0.00  0.00    -0.267 OA
ATOM      5  N   UNL     1     -16.532   7.430  22.978  0.00  0.00    -0.180 NA
ATOM      6  N   UNL     1     -14.914   6.917  20.314  0.00  0.00    -0.311 N 
ATOM      7  C   UNL     1     -17.279   6.171  20.956  0.00  0.00    +0.025 C 
ATOM      8  C   UNL     1     -15.353   5.366  22.249  0.00  0.00    +0.052 C 
ATOM      9  C   UNL     1     -16.590   4.916  21.476  0.00  0.00    +0.017 C 
ATOM     10  C   UNL     1     -17.701   7.080  22.122  0.00  0.00    +0.114 C 
ATOM     11  C   UNL     1     -15.782   6.228  23.450  0.00  0.00    +0.118 C 
ATOM     12  C   UNL     1     -16.342   6.880  19.969  0.00  0.00    +0.130 C 
ATOM     13  C   UNL     1     -14.402   6.141  21.356  0.00  0.00    +0.026 A 
ATOM     14  C   UNL     1     -13.079   6.099  21.578  0.00  0.00    +0.022 A 
ATOM     15  C   UNL     1     -14.081   7.683  19.475  0.00  0.00    +0.259 A 
ATOM     16  C   UNL     1     -12.605   7.646  19.771  0.00  0.00    +0.047 A 
ATOM     17  C   UNL     1     -12.171   6.868  20.775  0.00  0.00    +0.015 A 
ENDROOT
BRANCH  16  19
ATOM     19  C   UNL     1     -11.649   8.446  18.987  0.00  0.00    -0.010 A 
ATOM     20  C   UNL     1     -11.265   9.726  19.394  0.00  0.00    -0.043 A 
ATOM     21  C   UNL     1     -11.119   7.903  17.814  0.00  0.00    +0.009 A 
ATOM     22  C   UNL     1     -10.357  10.459  18.631  0.00  0.00    +0.004 A 
ATOM     23  C   UNL     1     -11.809  10.340  20.643  0.00  0.00    +0.044 C 
ATOM     24  C   UNL     1     -10.212   8.638  17.051  0.00  0.00    +0.001 A 
ATOM     25  C   UNL     1      -9.831   9.916  17.459  0.00  0.00    +0.000 A 
ENDBRANCH  16  19
BRANCH   5   1
ATOM      1  S   UNL     1     -16.813   8.637  24.158  0.00  0.00    +0.029 S 
ATOM      2  O   UNL     1     -15.612   9.427  24.313  0.00  0.00    -0.158 OA
ATOM      3  O   UNL     1     -17.479   8.034  25.293  0.00  0.00    -0.158 OA
ATOM     18  C   UNL     1     -18.005   9.619  23.282  0.00  0.00    +0.215 C 
ENDBRANCH   5   1
TORSDOF 2
ENDMDL
MODEL 4
REMARK VINA RESULT:      -6.2     26.916     30.370
REMARK  Name = 11941709
REMARK  4 active torsions:
REMARK  status: ('A' for Active; 'I' for Inactive)
REMARK    1  A    between atoms: S_1  and  N_5
REMARK    2  A    between atoms: S_1  and  C_18
REMARK    3  A    between atoms: C_16  and  C_19
REMARK    4  A    between atoms: C_20  and  C_23
REMARK                            x       y       z     vdW  Elec       q    Type
REMARK                         _______ _______ _______ _____ _____    ______ ____
ROOT
ATOM      4  O   UNL     1     -14.931   9.569  19.990  0.00  0.00    -0.267 OA
ATOM      5  N   UNL     1     -11.492   9.329  16.390  0.00  0.00    -0.180 NA
ATOM      6  N   UNL     1     -12.703   9.538  19.300  0.00  0.00    -0.311 N 
ATOM      7  C   UNL     1     -11.693  11.367  17.818  0.00  0.00    +0.025 C 
ATOM      8  C   UNL     1     -10.296   9.490  18.563  0.00  0.00    +0.052 C 
ATOM      9  C   UNL     1     -10.386  11.013  18.515  0.00  0.00    +0.017 C 
ATOM     10  C   UNL     1     -11.713  10.803  16.387  0.00  0.00    +0.114 C 
ATOM     11  C   UNL     1     -10.257   8.932  17.130  0.00  0.00    +0.118 C 
ATOM     12  C   UNL     1     -12.865  10.854  18.666  0.00  0.00    +0.130 C 
ATOM     13  C   UNL     1     -11.463   8.898  19.329  0.00  0.00    +0.026 A 
ATOM     14  C   UNL     1     -11.313   7.754  20.015  0.00  0.00    +0.022 A 
ATOM     15  C   UNL     1     -13.831   9.016  19.963  0.00  0.00    +0.259 A 
ATOM     16  C   UNL     1     -13.641   7.712  20.693  0.00  0.00    +0.047 A 
ATOM     17  C   UNL     1     -12.422   7.152  20.700  0.00  0.00    +0.015 A 
ENDROOT
BRANCH  16  19
ATOM     19  C   UNL     1     -14.763   7.052  21.381  0.00  0.00    -0.010 A 
ATOM     20  C   UNL     1     -15.200   7.478  22.637  0.00  0.00    -0.043 A 
ATOM     21  C   UNL     1     -15.399   5.977  20.754  0.00  0.00    +0.009 A 
ATOM     22  C   UNL     1     -16.266   6.833  23.263  0.00  0.00    +0.004 A 
ATOM     23  C   UNL     1     -14.547   8.625  23.339  0.00  0.00    +0.044 C 
ATOM     24  C   UNL     1     -16.464   5.331  21.382  0.00  0.00    +0.001 A 
ATOM     25  C   UNL     1     -16.898   5.759  22.637  0.00  0.00    +0.000 A 
ENDBRANCH  16  19
BRANCH   5   1
ATOM      1  S   UNL     1     -11.743   8.540  14.892  0.00  0.00    +0.029 S 
ATOM      2  O   UNL     1     -13.056   7.935  14.899  0.00  0.00    -0.158 OA
ATOM      3  O   UNL     1     -10.557   7.780  14.560  0.00  0.00    -0.158 OA
ATOM     18  C   UNL     1     -11.799   9.960  13.829  0.00  0.00    +0.215 C 
ENDBRANCH   5   1
TORSDOF 2
ENDMDL
MODEL 5
REMARK VINA RESULT:      -6.2     27.409     31.166
REMARK  Name = 11941709
REMARK  4 active torsions:
REMARK  status: ('A' for Active; 'I' for Inactive)
REMARK    1  A    between atoms: S_1  and  N_5
REMARK    2  A    between atoms: S_1  and  C_18
REMARK    3  A    between atoms: C_16  and  C_19
REMARK    4  A    between atoms: C_20  and  C_23
REMARK                            x       y       z     vdW  Elec       q    Type
REMARK                         _______ _______ _______ _____ _____    ______ ____
ROOT
ATOM      4  O   UNL     1     -15.109   8.643  21.558  0.00  0.00    -0.267 OA
ATOM      5  N   UNL     1     -12.235   9.452  17.568  0.00  0.00    -0.180 NA
ATOM      6  N   UNL     1     -13.006   8.827  20.566  0.00  0.00    -0.311 N 
ATOM      7  C   UNL     1     -12.161  11.007  19.519  0.00  0.00    +0.025 C 
ATOM      8  C   UNL     1     -10.732   9.010  19.499  0.00  0.00    +0.052 C 
ATOM      9  C   UNL     1     -10.780  10.485  19.890  0.00  0.00    +0.017 C 
ATOM     10  C   UNL     1     -12.406  10.866  18.007  0.00  0.00    +0.114 C 
ATOM     11  C   UNL     1     -10.919   8.875  17.977  0.00  0.00    +0.118 C 
ATOM     12  C   UNL     1     -13.214  10.267  20.354  0.00  0.00    +0.130 C 
ATOM     13  C   UNL     1     -11.796   8.216  20.233  0.00  0.00    +0.026 A 
ATOM     14  C   UNL     1     -11.585   6.927  20.544  0.00  0.00    +0.022 A 
ATOM     15  C   UNL     1     -14.042   8.130  21.217  0.00  0.00    +0.259 A 
ATOM     16  C   UNL     1     -13.792   6.676  21.520  0.00  0.00    +0.047 A 
ATOM     17  C   UNL     1     -12.603   6.148  21.191  0.00  0.00    +0.015 A 
ENDROOT
BRANCH  16  19
ATOM     19  C   UNL     1     -14.823   5.839  22.154  0.00  0.00    -0.010 A 
ATOM     20  C   UNL     1     -15.955   5.418  21.452  0.00  0.00    -0.043 A 
ATOM     21  C   UNL     1     -14.657   5.461  23.490  0.00  0.00    +0.009 A 
ATOM     22  C   UNL     1     -16.914   4.626  22.080  0.00  0.00    +0.004 A 
ATOM     23  C   UNL     1     -16.168   5.800  20.022  0.00  0.00    +0.044 C 
ATOM     24  C   UNL     1     -15.618   4.670  24.118  0.00  0.00    +0.001 A 
ATOM     25  C   UNL     1     -16.747   4.252  23.413  0.00  0.00    +0.000 A 
ENDBRANCH  16  19
BRANCH   5   1
ATOM      1  S   UNL     1     -12.725   9.111  15.964  0.00  0.00    +0.029 S 
ATOM      2  O   UNL     1     -13.002  10.358  15.286  0.00  0.00    -0.158 OA
ATOM      3  O   UNL     1     -13.686   8.029  15.989  0.00  0.00    -0.158 OA
ATOM     18  C   UNL     1     -11.196   8.471  15.329  0.00  0.00    +0.215 C 
ENDBRANCH   5   1
TORSDOF 2
ENDMDL
MODEL 6
REMARK VINA RESULT:      -6.2      2.832      7.023
REMARK  Name = 11941709
REMARK  4 active torsions:
REMARK  status: ('A' for Active; 'I' for Inactive)
REMARK    1  A    between atoms: S_1  and  N_5
REMARK    2  A    between atoms: S_1  and  C_18
REMARK    3  A    between atoms: C_16  and  C_19
REMARK    4  A    between atoms: C_20  and  C_23
REMARK                            x       y       z     vdW  Elec       q    Type
REMARK                         _______ _______ _______ _____ _____    ______ ____
ROOT
ATOM      4  O   UNL     1      10.544   6.752   0.984  0.00  0.00    -0.267 OA
ATOM      5  N   UNL     1      10.984   7.376   5.910  0.00  0.00    -0.180 NA
ATOM      6  N   UNL     1      10.022   6.131   3.171  0.00  0.00    -0.311 N 
ATOM      7  C   UNL     1       8.776   7.681   4.785  0.00  0.00    +0.025 C 
ATOM      8  C   UNL     1       9.465   5.444   5.529  0.00  0.00    +0.052 C 
ATOM      9  C   UNL     1       8.272   6.389   5.414  0.00  0.00    +0.017 C 
ATOM     10  C   UNL     1       9.860   8.325   5.666  0.00  0.00    +0.114 C 
ATOM     11  C   UNL     1      10.524   6.065   6.458  0.00  0.00    +0.118 C 
ATOM     12  C   UNL     1       9.276   7.382   3.366  0.00  0.00    +0.130 C 
ATOM     13  C   UNL     1      10.064   5.153   4.167  0.00  0.00    +0.026 A 
ATOM     14  C   UNL     1      10.651   3.970   3.924  0.00  0.00    +0.022 A 
ATOM     15  C   UNL     1      10.592   5.928   1.899  0.00  0.00    +0.259 A 
ATOM     16  C   UNL     1      11.276   4.606   1.668  0.00  0.00    +0.047 A 
ATOM     17  C   UNL     1      11.270   3.699   2.657  0.00  0.00    +0.015 A 
ENDROOT
BRANCH  16  19
ATOM     19  C   UNL     1      11.947   4.306   0.392  0.00  0.00    -0.010 A 
ATOM     20  C   UNL     1      13.334   4.394   0.260  0.00  0.00    -0.043 A 
ATOM     21  C   UNL     1      11.169   3.923  -0.704  0.00  0.00    +0.009 A 
ATOM     22  C   UNL     1      13.940   4.104  -0.961  0.00  0.00    +0.004 A 
ATOM     23  C   UNL     1      14.200   4.800   1.409  0.00  0.00    +0.044 C 
ATOM     24  C   UNL     1      11.776   3.633  -1.925  0.00  0.00    +0.001 A 
ATOM     25  C   UNL     1      13.162   3.724  -2.055  0.00  0.00    +0.000 A 
ENDBRANCH  16  19
BRANCH   5   1
ATOM      1  S   UNL     1      12.370   8.046   6.659  0.00  0.00    +0.029 S 
ATOM      2  O   UNL     1      13.091   6.990   7.333  0.00  0.00    -0.158 OA
ATOM      3  O   UNL     1      11.988   9.264   7.342  0.00  0.00    -0.158 OA
ATOM     18  C   UNL     1      13.287   8.497   5.207  0.00  0.00    +0.215 C 
ENDBRANCH   5   1
TORSDOF 2
ENDMDL
MODEL 7
REMARK VINA RESULT:      -6.2     24.758     26.555
REMARK  Name = 11941709
REMARK  4 active torsions:
REMARK  status: ('A' for Active; 'I' for Inactive)
REMARK    1  A    between atoms: S_1  and  N_5
REMARK    2  A    between atoms: S_1  and  C_18
REMARK    3  A    between atoms: C_16  and  C_19
REMARK    4  A    between atoms: C_20  and  C_23
REMARK                            x       y       z     vdW  Elec       q    Type
REMARK                         _______ _______ _______ _____ _____    ______ ____
ROOT
ATOM      4  O   UNL     1      -3.159 -10.233  16.019  0.00  0.00    -0.267 OA
ATOM      5  N   UNL     1      -4.721 -10.186  11.286  0.00  0.00    -0.180 NA
ATOM      6  N   UNL     1      -3.666 -11.341  14.030  0.00  0.00    -0.311 N 
ATOM      7  C   UNL     1      -2.398 -10.906  11.847  0.00  0.00    +0.025 C 
ATOM      8  C   UNL     1      -4.225 -12.546  11.890  0.00  0.00    +0.052 C 
ATOM      9  C   UNL     1      -2.759 -12.348  11.515  0.00  0.00    +0.017 C 
ATOM     10  C   UNL     1      -3.273  -9.930  11.043  0.00  0.00    +0.114 C 
ATOM     11  C   UNL     1      -5.104 -11.609  11.043  0.00  0.00    +0.118 C 
ATOM     12  C   UNL     1      -2.526 -10.697  13.362  0.00  0.00    +0.130 C 
ATOM     13  C   UNL     1      -4.450 -12.288  13.368  0.00  0.00    +0.026 A 
ATOM     14  C   UNL     1      -5.411 -12.949  14.033  0.00  0.00    +0.022 A 
ATOM     15  C   UNL     1      -3.853 -11.035  15.392  0.00  0.00    +0.259 A 
ATOM     16  C   UNL     1      -4.963 -11.766  16.102  0.00  0.00    +0.047 A 
ATOM     17  C   UNL     1      -5.671 -12.677  15.418  0.00  0.00    +0.015 A 
ENDROOT
BRANCH  16  19
ATOM     19  C   UNL     1      -5.277 -11.490  17.513  0.00  0.00    -0.010 A 
ATOM     20  C   UNL     1      -6.214 -10.519  17.875  0.00  0.00    -0.043 A 
ATOM     21  C   UNL     1      -4.621 -12.222  18.506  0.00  0.00    +0.009 A 
ATOM     22  C   UNL     1      -6.491 -10.280  19.220  0.00  0.00    +0.004 A 
ATOM     23  C   UNL     1      -6.938  -9.715  16.843  0.00  0.00    +0.044 C 
ATOM     24  C   UNL     1      -4.898 -11.982  19.851  0.00  0.00    +0.001 A 
ATOM     25  C   UNL     1      -5.833 -11.011  20.209  0.00  0.00    +0.000 A 
ENDBRANCH  16  19
BRANCH   5   1
ATOM      1  S   UNL     1      -5.796  -9.013  10.655  0.00  0.00    +0.029 S 
ATOM      2  O   UNL     1      -5.025  -7.901  10.146  0.00  0.00    -0.158 OA
ATOM      3  O   UNL     1      -6.880  -8.821  11.595  0.00  0.00    -0.158 OA
ATOM     18  C   UNL     1      -6.429  -9.923   9.269  0.00  0.00    +0.215 C 
ENDBRANCH   5   1
TORSDOF 2
ENDMDL
MODEL 8
REMARK VINA RESULT:      -6.1     27.421     29.477
REMARK  Name = 11941709
REMARK  4 active torsions:
REMARK  status: ('A' for Active; 'I' for Inactive)
REMARK    1  A    between atoms: S_1  and  N_5
REMARK    2  A    between atoms: S_1  and  C_18
REMARK    3  A    between atoms: C_16  and  C_19
REMARK    4  A    between atoms: C_20  and  C_23
REMARK                            x       y       z     vdW  Elec       q    Type
REMARK                         _______ _______ _______ _____ _____    ______ ____
ROOT
ATOM      4  O   UNL     1     -12.449  10.100  20.593  0.00  0.00    -0.267 OA
ATOM      5  N   UNL     1     -12.195  12.058  16.017  0.00  0.00    -0.180 NA
ATOM      6  N   UNL     1     -11.311  10.450  18.588  0.00  0.00    -0.311 N 
ATOM      7  C   UNL     1     -10.598  12.779  17.795  0.00  0.00    +0.025 C 
ATOM      8  C   UNL     1     -10.082  10.811  16.419  0.00  0.00    +0.052 C 
ATOM      9  C   UNL     1      -9.470  12.039  17.089  0.00  0.00    +0.017 C 
ATOM     10  C   UNL     1     -11.670  13.223  16.785  0.00  0.00    +0.114 C 
ATOM     11  C   UNL     1     -11.113  11.259  15.368  0.00  0.00    +0.118 C 
ATOM     12  C   UNL     1     -11.170  11.880  18.899  0.00  0.00    +0.130 C 
ATOM     13  C   UNL     1     -10.734   9.900  17.442  0.00  0.00    +0.026 A 
ATOM     14  C   UNL     1     -10.775   8.573  17.238  0.00  0.00    +0.022 A 
ATOM     15  C   UNL     1     -11.959   9.656  19.554  0.00  0.00    +0.259 A 
ATOM     16  C   UNL     1     -12.022   8.176  19.280  0.00  0.00    +0.047 A 
ATOM     17  C   UNL     1     -11.434   7.703  18.171  0.00  0.00    +0.015 A 
ENDROOT
BRANCH  16  19
ATOM     19  C   UNL     1     -12.717   7.259  20.199  0.00  0.00    -0.010 A 
ATOM     20  C   UNL     1     -14.109   7.146  20.202  0.00  0.00    -0.043 A 
ATOM     21  C   UNL     1     -11.957   6.486  21.082  0.00  0.00    +0.009 A 
ATOM     22  C   UNL     1     -14.738   6.269  21.084  0.00  0.00    +0.004 A 
ATOM     23  C   UNL     1     -14.956   7.955  19.273  0.00  0.00    +0.044 C 
ATOM     24  C   UNL     1     -12.588   5.609  21.964  0.00  0.00    +0.001 A 
ATOM     25  C   UNL     1     -13.978   5.500  21.965  0.00  0.00    +0.000 A 
ENDBRANCH  16  19
BRANCH   5   1
ATOM      1  S   UNL     1     -13.568  12.372  15.044  0.00  0.00    +0.029 S 
ATOM      2  O   UNL     1     -13.281  13.495  14.181  0.00  0.00    -0.158 OA
ATOM      3  O   UNL     1     -14.750  12.336  15.879  0.00  0.00    -0.158 OA
ATOM     18  C   UNL     1     -13.555  10.900  14.051  0.00  0.00    +0.215 C 
ENDBRANCH   5   1
TORSDOF 2
ENDMDL
MODEL 9
REMARK VINA RESULT:      -6.1     25.813     27.741
REMARK  Name = 11941709
REMARK  4 active torsions:
REMARK  status: ('A' for Active; 'I' for Inactive)
REMARK    1  A    between atoms: S_1  and  N_5
REMARK    2  A    between atoms: S_1  and  C_18
REMARK    3  A    between atoms: C_16  and  C_19
REMARK    4  A    between atoms: C_20  and  C_23
REMARK                            x       y       z     vdW  Elec       q    Type
REMARK                         _______ _______ _______ _____ _____    ______ ____
ROOT
ATOM      4  O   UNL     1      -6.900 -11.713  14.962  0.00  0.00    -0.267 OA
ATOM      5  N   UNL     1      -2.374 -13.229  13.526  0.00  0.00    -0.180 NA
ATOM      6  N   UNL     1      -4.630 -11.305  14.617  0.00  0.00    -0.311 N 
ATOM      7  C   UNL     1      -3.548 -11.401  12.297  0.00  0.00    +0.025 C 
ATOM      8  C   UNL     1      -2.176 -10.862  14.261  0.00  0.00    +0.052 C 
ATOM      9  C   UNL     1      -2.570 -10.383  12.866  0.00  0.00    +0.017 C 
ATOM     10  C   UNL     1      -2.891 -12.788  12.199  0.00  0.00    +0.114 C 
ATOM     11  C   UNL     1      -1.467 -12.224  14.156  0.00  0.00    +0.118 C 
ATOM     12  C   UNL     1      -4.815 -11.413  13.163  0.00  0.00    +0.130 C 
ATOM     13  C   UNL     1      -3.391 -10.968  15.164  0.00  0.00    +0.026 A 
ATOM     14  C   UNL     1      -3.272 -10.760  16.485  0.00  0.00    +0.022 A 
ATOM     15  C   UNL     1      -5.784 -11.451  15.412  0.00  0.00    +0.259 A 
ATOM     16  C   UNL     1      -5.613 -11.249  16.894  0.00  0.00    +0.047 A 
ATOM     17  C   UNL     1      -4.401 -10.909  17.360  0.00  0.00    +0.015 A 
ENDROOT
BRANCH  16  19
ATOM     19  C   UNL     1      -6.741 -11.423  17.824  0.00  0.00    -0.010 A 
ATOM     20  C   UNL     1      -7.717 -10.436  17.979  0.00  0.00    -0.043 A 
ATOM     21  C   UNL     1      -6.829 -12.606  18.562  0.00  0.00    +0.009 A 
ATOM     22  C   UNL     1      -8.774 -10.630  18.867  0.00  0.00    +0.004 A 
ATOM     23  C   UNL     1      -7.659  -9.157  17.206  0.00  0.00    +0.044 C 
ATOM     24  C   UNL     1      -7.886 -12.799  19.451  0.00  0.00    +0.001 A 
ATOM     25  C   UNL     1      -8.859 -11.811  19.604  0.00  0.00    +0.000 A 
ENDBRANCH  16  19
BRANCH   5   1
ATOM      1  S   UNL     1      -1.850 -14.856  13.613  0.00  0.00    +0.029 S 
ATOM      2  O   UNL     1      -2.484 -15.490  14.747  0.00  0.00    -0.158 OA
ATOM      3  O   UNL     1      -0.415 -14.895  13.424  0.00  0.00    -0.158 OA
ATOM     18  C   UNL     1      -2.614 -15.480  12.138  0.00  0.00    +0.215 C 
ENDBRANCH   5   1
TORSDOF 2
ENDMDL
MODEL 10
REMARK VINA RESULT:      -6.1     24.004     25.725
REMARK  Name = 11941709
REMARK  4 active torsions:
REMARK  status: ('A' for Active; 'I' for Inactive)
REMARK    1  A    between atoms: S_1  and  N_5
REMARK    2  A    between atoms: S_1  and  C_18
REMARK    3  A    between atoms: C_16  and  C_19
REMARK    4  A    between atoms: C_20  and  C_23
REMARK                            x       y       z     vdW  Elec       q    Type
REMARK                         _______ _______ _______ _____ _____    ______ ____
ROOT
ATOM      4  O   UNL     1      -5.405 -12.575   9.831  0.00  0.00    -0.267 OA
ATOM      5  N   UNL     1      -3.882 -11.284  14.398  0.00  0.00    -0.180 NA
ATOM      6  N   UNL     1      -3.731 -11.884  11.300  0.00  0.00    -0.311 N 
ATOM      7  C   UNL     1      -2.956 -13.315  13.279  0.00  0.00    +0.025 C 
ATOM      8  C   UNL     1      -1.921 -11.124  12.878  0.00  0.00    +0.052 C 
ATOM      9  C   UNL     1      -1.622 -12.607  13.087  0.00  0.00    +0.017 C 
ATOM     10  C   UNL     1      -3.692 -12.758  14.509  0.00  0.00    +0.114 C 
ATOM     11  C   UNL     1      -2.605 -10.555  14.134  0.00  0.00    +0.118 C 
ATOM     12  C   UNL     1      -3.781 -13.180  11.992  0.00  0.00    +0.130 C 
ATOM     13  C   UNL     1      -2.796 -10.911  11.657  0.00  0.00    +0.026 A 
ATOM     14  C   UNL     1      -2.689  -9.784  10.936  0.00  0.00    +0.022 A 
ATOM     15  C   UNL     1      -4.593 -11.724  10.198  0.00  0.00    +0.259 A 
ATOM     16  C   UNL     1      -4.476 -10.434   9.430  0.00  0.00    +0.047 A 
ATOM     17  C   UNL     1      -3.548  -9.543   9.810  0.00  0.00    +0.015 A 
ENDROOT
BRANCH  16  19
ATOM     19  C   UNL     1      -5.360 -10.141   8.290  0.00  0.00    -0.010 A 
ATOM     20  C   UNL     1      -6.526  -9.389   8.446  0.00  0.00    -0.043 A 
ATOM     21  C   UNL     1      -5.015 -10.630   7.027  0.00  0.00    +0.009 A 
ATOM     22  C   UNL     1      -7.343  -9.128   7.347  0.00  0.00    +0.004 A 
ATOM     23  C   UNL     1      -6.930  -8.849   9.781  0.00  0.00    +0.044 C 
ATOM     24  C   UNL     1      -5.833 -10.369   5.928  0.00  0.00    +0.001 A 
ATOM     25  C   UNL     1      -6.998  -9.618   6.088  0.00  0.00    +0.000 A 
ENDBRANCH  16  19
BRANCH   5   1
ATOM      1  S   UNL     1      -4.907 -10.578  15.573  0.00  0.00    +0.029 S 
ATOM      2  O   UNL     1      -5.815  -9.667  14.912  0.00  0.00    -0.158 OA
ATOM      3  O   UNL     1      -4.104 -10.166  16.705  0.00  0.00    -0.158 OA
ATOM     18  C   UNL     1      -5.827 -12.019  16.050  0.00  0.00    +0.215 C 
ENDBRANCH   5   1
TORSDOF 2
ENDMDL
