MODEL 1
REMARK VINA RESULT:      -6.3      0.000      0.000
REMARK  Name = 51136653
REMARK  9 active torsions:
REMARK  status: ('A' for Active; 'I' for Inactive)
REMARK    1  A    between atoms: O_2  and  C_18
REMARK    2  A    between atoms: O_4  and  C_26
REMARK    3  A    between atoms: O_4  and  C_32
REMARK    4  A    between atoms: C_8  and  C_13
REMARK    5  A    between atoms: C_9  and  C_14
REMARK    6  A    between atoms: C_13  and  C_15
REMARK    7  A    between atoms: C_14  and  C_18
REMARK    8  A    between atoms: C_16  and  C_22
REMARK    9  A    between atoms: C_31  and  C_33
REMARK                            x       y       z     vdW  Elec       q    Type
REMARK                         _______ _______ _______ _____ _____    ______ ____
ROOT
ATOM      1  O   UNL     1      -1.082  -9.428  12.675  0.00  0.00    -0.270 OA
ATOM      5  N   UNL     1      -2.167 -11.068  13.942  0.00  0.00    -0.297 N 
ATOM      8  C   UNL     1      -4.142 -11.816  15.252  0.00  0.00    +0.016 C 
ATOM      9  C   UNL     1      -3.327 -11.571  16.548  0.00  0.00    +0.006 C 
ATOM     10  C   UNL     1      -2.240 -10.502  16.339  0.00  0.00    +0.023 C 
ATOM     11  C   UNL     1      -3.188 -12.116  14.081  0.00  0.00    +0.112 C 
ATOM     12  C   UNL     1      -1.359 -10.836  15.138  0.00  0.00    +0.108 C 
ATOM     16  C   UNL     1      -1.933 -10.309  12.793  0.00  0.00    +0.247 C 
ENDROOT
BRANCH  16  22
ATOM     22  C   UNL     1      -2.763 -10.570  11.613  0.00  0.00    +0.037 A 
ATOM     27  C   UNL     1      -3.297 -11.841  11.403  0.00  0.00    +0.014 A 
ATOM     28  C   UNL     1      -3.019  -9.547  10.700  0.00  0.00    +0.014 A 
ATOM     29  C   UNL     1      -4.089 -12.089  10.281  0.00  0.00    +0.019 A 
ATOM     30  C   UNL     1      -3.809  -9.794   9.578  0.00  0.00    +0.019 A 
ATOM     31  C   UNL     1      -4.345 -11.065   9.369  0.00  0.00    +0.052 A 
BRANCH  31  33
ATOM      7  N   UNL     1      -5.810 -11.525   7.284  0.00  0.00    -0.191 NA
ATOM     33  C   UNL     1      -5.154 -11.319   8.218  0.00  0.00    +0.099 C 
ENDBRANCH  31  33
ENDBRANCH  16  22
BRANCH   8  13
ATOM     13  C   UNL     1      -5.089 -10.667  14.887  0.00  0.00    +0.061 C 
BRANCH  13  15
ATOM      6  N   UNL     1      -6.920 -12.210  14.694  0.00  0.00    -0.287 NA
ATOM     15  C   UNL     1      -6.298 -11.210  14.162  0.00  0.00    +0.044 C 
ATOM     17  C   UNL     1      -6.707 -10.579  12.881  0.00  0.00    -0.001 A 
ATOM     19  C   UNL     1      -7.561 -11.322  12.056  0.00  0.00    -0.033 A 
ATOM     20  C   UNL     1      -7.987 -12.688  12.505  0.00  0.00    +0.059 C 
ATOM     21  C   UNL     1      -8.130 -12.697  14.022  0.00  0.00    +0.146 C 
ATOM     23  C   UNL     1      -6.264  -9.314  12.487  0.00  0.00    +0.013 A 
ATOM     24  C   UNL     1      -7.950 -10.801  10.818  0.00  0.00    +0.050 A 
ATOM     25  C   UNL     1      -6.671  -8.797  11.257  0.00  0.00    +0.046 A 
ATOM     26  C   UNL     1      -7.508  -9.539  10.423  0.00  0.00    +0.120 A 
BRANCH  26   4
ATOM      4  O   UNL     1      -7.895  -9.029   9.221  0.00  0.00    -0.495 OA
ATOM     32  C   UNL     1      -7.082  -7.998   8.663  0.00  0.00    +0.277 C 
ENDBRANCH  26   4
ENDBRANCH  13  15
ENDBRANCH   8  13
BRANCH   9  14
ATOM     14  C   UNL     1      -4.200 -11.223  17.752  0.00  0.00    +0.124 C 
BRANCH  14  18
ATOM      3  O   UNL     1      -3.353 -12.172  19.830  0.00  0.00    -0.251 OA
ATOM     18  C   UNL     1      -4.073 -12.246  18.846  0.00  0.00    +0.305 C 
BRANCH  18   2
ATOM      2  O   UNL     1      -4.894 -13.297  18.589  0.00  0.00    -0.481 OA
ATOM     34  H   UNL     1      -4.428 -14.014  18.107  0.00  0.00    +0.295 HD
ENDBRANCH  18   2
ENDBRANCH  14  18
ENDBRANCH   9  14
TORSDOF 8
ENDMDL
MODEL 2
REMARK VINA RESULT:      -6.0     24.529     27.973
REMARK  Name = 51136653
REMARK  9 active torsions:
REMARK  status: ('A' for Active; 'I' for Inactive)
REMARK    1  A    between atoms: O_2  and  C_18
REMARK    2  A    between atoms: O_4  and  C_26
REMARK    3  A    between atoms: O_4  and  C_32
REMARK    4  A    between atoms: C_8  and  C_13
REMARK    5  A    between atoms: C_9  and  C_14
REMARK    6  A    between atoms: C_13  and  C_15
REMARK    7  A    between atoms: C_14  and  C_18
REMARK    8  A    between atoms: C_16  and  C_22
REMARK    9  A    between atoms: C_31  and  C_33
REMARK                            x       y       z     vdW  Elec       q    Type
REMARK                         _______ _______ _______ _____ _____    ______ ____
ROOT
ATOM      1  O   UNL     1      10.427   4.016  -0.205  0.00  0.00    -0.270 OA
ATOM      5  N   UNL     1      12.605   3.827   0.629  0.00  0.00    -0.297 N 
ATOM      8  C   UNL     1      14.774   4.879   1.233  0.00  0.00    +0.016 C 
ATOM      9  C   UNL     1      15.381   4.277  -0.060  0.00  0.00    +0.006 C 
ATOM     10  C   UNL     1      14.306   4.052  -1.138  0.00  0.00    +0.023 C 
ATOM     11  C   UNL     1      13.588   4.018   1.705  0.00  0.00    +0.112 C 
ATOM     12  C   UNL     1      13.140   3.231  -0.593  0.00  0.00    +0.108 C 
ATOM     16  C   UNL     1      11.252   4.170   0.695  0.00  0.00    +0.247 C 
ENDROOT
BRANCH  16  22
ATOM     22  C   UNL     1      10.750   4.765   1.938  0.00  0.00    +0.037 A 
ATOM     27  C   UNL     1      10.160   6.028   1.918  0.00  0.00    +0.014 A 
ATOM     28  C   UNL     1      10.864   4.067   3.141  0.00  0.00    +0.014 A 
ATOM     29  C   UNL     1       9.681   6.593   3.101  0.00  0.00    +0.019 A 
ATOM     30  C   UNL     1      10.387   4.632   4.322  0.00  0.00    +0.019 A 
ATOM     31  C   UNL     1       9.795   5.895   4.303  0.00  0.00    +0.052 A 
BRANCH  31  33
ATOM      7  N   UNL     1       8.909   6.945   6.498  0.00  0.00    -0.191 NA
ATOM     33  C   UNL     1       9.306   6.474   5.514  0.00  0.00    +0.099 C 
ENDBRANCH  31  33
ENDBRANCH  16  22
BRANCH   8  13
ATOM     13  C   UNL     1      14.347   6.345   1.096  0.00  0.00    +0.061 C 
BRANCH  13  15
ATOM      6  N   UNL     1      16.291   7.639   1.658  0.00  0.00    -0.287 NA
ATOM     15  C   UNL     1      15.141   7.202   2.053  0.00  0.00    +0.044 C 
ATOM     17  C   UNL     1      14.571   7.493   3.394  0.00  0.00    -0.001 A 
ATOM     19  C   UNL     1      15.464   7.943   4.375  0.00  0.00    -0.033 A 
ATOM     20  C   UNL     1      16.913   8.084   4.019  0.00  0.00    +0.059 C 
ATOM     21  C   UNL     1      17.034   8.522   2.564  0.00  0.00    +0.146 C 
ATOM     23  C   UNL     1      13.217   7.322   3.692  0.00  0.00    +0.013 A 
ATOM     24  C   UNL     1      14.998   8.196   5.668  0.00  0.00    +0.050 A 
ATOM     25  C   UNL     1      12.759   7.591   4.982  0.00  0.00    +0.046 A 
ATOM     26  C   UNL     1      13.646   8.024   5.968  0.00  0.00    +0.120 A 
BRANCH  26   4
ATOM      4  O   UNL     1      13.192   8.279   7.227  0.00  0.00    -0.495 OA
ATOM     32  C   UNL     1      11.922   8.919   7.340  0.00  0.00    +0.277 C 
ENDBRANCH  26   4
ENDBRANCH  13  15
ENDBRANCH   8  13
BRANCH   9  14
ATOM     14  C   UNL     1      16.540   5.100  -0.621  0.00  0.00    +0.124 C 
BRANCH  14  18
ATOM      3  O   UNL     1      17.336   4.527  -2.851  0.00  0.00    -0.251 OA
ATOM     18  C   UNL     1      17.325   4.329  -1.646  0.00  0.00    +0.305 C 
BRANCH  18   2
ATOM      2  O   UNL     1      18.045   3.354  -1.033  0.00  0.00    -0.481 OA
ATOM     34  H   UNL     1      17.544   2.512  -0.976  0.00  0.00    +0.295 HD
ENDBRANCH  18   2
ENDBRANCH  14  18
ENDBRANCH   9  14
TORSDOF 8
ENDMDL
MODEL 3
REMARK VINA RESULT:      -6.0     23.104     26.340
REMARK  Name = 51136653
REMARK  9 active torsions:
REMARK  status: ('A' for Active; 'I' for Inactive)
REMARK    1  A    between atoms: O_2  and  C_18
REMARK    2  A    between atoms: O_4  and  C_26
REMARK    3  A    between atoms: O_4  and  C_32
REMARK    4  A    between atoms: C_8  and  C_13
REMARK    5  A    between atoms: C_9  and  C_14
REMARK    6  A    between atoms: C_13  and  C_15
REMARK    7  A    between atoms: C_14  and  C_18
REMARK    8  A    between atoms: C_16  and  C_22
REMARK    9  A    between atoms: C_31  and  C_33
REMARK                            x       y       z     vdW  Elec       q    Type
REMARK                         _______ _______ _______ _____ _____    ______ ____
ROOT
ATOM      1  O   UNL     1      15.371   6.686   4.160  0.00  0.00    -0.270 OA
ATOM      5  N   UNL     1      13.579   7.041   2.697  0.00  0.00    -0.297 N 
ATOM      8  C   UNL     1      11.239   6.564   2.009  0.00  0.00    +0.016 C 
ATOM      9  C   UNL     1      11.797   5.677   0.867  0.00  0.00    +0.006 C 
ATOM     10  C   UNL     1      13.185   5.112   1.216  0.00  0.00    +0.023 C 
ATOM     11  C   UNL     1      12.273   7.640   2.389  0.00  0.00    +0.112 C 
ATOM     12  C   UNL     1      14.147   6.223   1.627  0.00  0.00    +0.108 C 
ATOM     16  C   UNL     1      14.280   7.190   3.896  0.00  0.00    +0.247 C 
ENDROOT
BRANCH  16  22
ATOM     22  C   UNL     1      13.679   8.018   4.947  0.00  0.00    +0.037 A 
ATOM     27  C   UNL     1      13.864   9.400   4.939  0.00  0.00    +0.014 A 
ATOM     28  C   UNL     1      12.920   7.423   5.956  0.00  0.00    +0.014 A 
ATOM     29  C   UNL     1      13.291  10.188   5.938  0.00  0.00    +0.019 A 
ATOM     30  C   UNL     1      12.348   8.209   6.954  0.00  0.00    +0.019 A 
ATOM     31  C   UNL     1      12.533   9.592   6.945  0.00  0.00    +0.052 A 
BRANCH  31  33
ATOM      7  N   UNL     1      11.471  11.053   8.801  0.00  0.00    -0.191 NA
ATOM     33  C   UNL     1      11.947  10.398   7.969  0.00  0.00    +0.099 C 
ENDBRANCH  31  33
ENDBRANCH  16  22
BRANCH   8  13
ATOM     13  C   UNL     1      10.806   5.779   3.252  0.00  0.00    +0.061 C 
BRANCH  13  15
ATOM      6  N   UNL     1       9.049   7.414   3.336  0.00  0.00    -0.287 NA
ATOM     15  C   UNL     1       9.741   6.547   3.999  0.00  0.00    +0.044 C 
ATOM     17  C   UNL     1       9.546   6.277   5.446  0.00  0.00    -0.001 A 
ATOM     19  C   UNL     1       8.850   7.246   6.180  0.00  0.00    -0.033 A 
ATOM     20  C   UNL     1       8.368   8.477   5.473  0.00  0.00    +0.059 C 
ATOM     21  C   UNL     1       7.974   8.116   4.046  0.00  0.00    +0.146 C 
ATOM     23  C   UNL     1      10.036   5.129   6.073  0.00  0.00    +0.013 A 
ATOM     24  C   UNL     1       8.668   7.071   7.555  0.00  0.00    +0.050 A 
ATOM     25  C   UNL     1       9.836   4.957   7.443  0.00  0.00    +0.046 A 
ATOM     26  C   UNL     1       9.157   5.926   8.183  0.00  0.00    +0.120 A 
BRANCH  26   4
ATOM      4  O   UNL     1       8.972   5.753   9.521  0.00  0.00    -0.495 OA
ATOM     32  C   UNL     1       9.262   4.461  10.054  0.00  0.00    +0.277 C 
ENDBRANCH  26   4
ENDBRANCH  13  15
ENDBRANCH   8  13
BRANCH   9  14
ATOM     14  C   UNL     1      10.846   4.553   0.460  0.00  0.00    +0.124 C 
BRANCH  14  18
ATOM      3  O   UNL     1      11.555   4.172  -1.840  0.00  0.00    -0.251 OA
ATOM     18  C   UNL     1      10.688   4.472  -1.033  0.00  0.00    +0.305 C 
BRANCH  18   2
ATOM      2  O   UNL     1       9.412   4.783  -1.377  0.00  0.00    -0.481 OA
ATOM     34  H   UNL     1       9.334   5.003  -2.331  0.00  0.00    +0.295 HD
ENDBRANCH  18   2
ENDBRANCH  14  18
ENDBRANCH   9  14
TORSDOF 8
ENDMDL
MODEL 4
REMARK VINA RESULT:      -5.9     23.464     26.441
REMARK  Name = 51136653
REMARK  9 active torsions:
REMARK  status: ('A' for Active; 'I' for Inactive)
REMARK    1  A    between atoms: O_2  and  C_18
REMARK    2  A    between atoms: O_4  and  C_26
REMARK    3  A    between atoms: O_4  and  C_32
REMARK    4  A    between atoms: C_8  and  C_13
REMARK    5  A    between atoms: C_9  and  C_14
REMARK    6  A    between atoms: C_13  and  C_15
REMARK    7  A    between atoms: C_14  and  C_18
REMARK    8  A    between atoms: C_16  and  C_22
REMARK    9  A    between atoms: C_31  and  C_33
REMARK                            x       y       z     vdW  Elec       q    Type
REMARK                         _______ _______ _______ _____ _____    ______ ____
ROOT
ATOM      1  O   UNL     1       6.085   9.584   3.275  0.00  0.00    -0.270 OA
ATOM      5  N   UNL     1       7.873  10.950   3.916  0.00  0.00    -0.297 N 
ATOM      8  C   UNL     1       9.492  11.701   5.646  0.00  0.00    +0.016 C 
ATOM      9  C   UNL     1       8.644  12.986   5.826  0.00  0.00    +0.006 C 
ATOM     10  C   UNL     1       7.172  12.750   5.445  0.00  0.00    +0.023 C 
ATOM     11  C   UNL     1       9.297  11.139   4.225  0.00  0.00    +0.112 C 
ATOM     12  C   UNL     1       7.052  12.153   4.046  0.00  0.00    +0.108 C 
ATOM     16  C   UNL     1       7.278   9.747   3.530  0.00  0.00    +0.247 C 
ENDROOT
BRANCH  16  22
ATOM     22  C   UNL     1       8.134   8.562   3.410  0.00  0.00    +0.037 A 
ATOM     27  C   UNL     1       8.798   8.299   2.212  0.00  0.00    +0.014 A 
ATOM     28  C   UNL     1       8.284   7.697   4.495  0.00  0.00    +0.014 A 
ATOM     29  C   UNL     1       9.614   7.173   2.099  0.00  0.00    +0.019 A 
ATOM     30  C   UNL     1       9.098   6.572   4.382  0.00  0.00    +0.019 A 
ATOM     31  C   UNL     1       9.764   6.309   3.184  0.00  0.00    +0.052 A 
BRANCH  31  33
ATOM      7  N   UNL     1      11.274   4.216   2.974  0.00  0.00    -0.191 NA
ATOM     33  C   UNL     1      10.598   5.155   3.068  0.00  0.00    +0.099 C 
ENDBRANCH  31  33
ENDBRANCH  16  22
BRANCH   8  13
ATOM     13  C   UNL     1       9.208  10.616   6.691  0.00  0.00    +0.061 C 
BRANCH  13  15
ATOM      6  N   UNL     1      11.592  10.327   6.665  0.00  0.00    -0.287 NA
ATOM     15  C   UNL     1      10.447   9.782   6.915  0.00  0.00    +0.044 C 
ATOM     17  C   UNL     1      10.293   8.387   7.401  0.00  0.00    -0.001 A 
ATOM     19  C   UNL     1      11.391   7.535   7.230  0.00  0.00    -0.033 A 
ATOM     20  C   UNL     1      12.623   8.072   6.566  0.00  0.00    +0.059 C 
ATOM     21  C   UNL     1      12.798   9.538   6.941  0.00  0.00    +0.146 C 
ATOM     23  C   UNL     1       9.116   7.919   7.990  0.00  0.00    +0.013 A 
ATOM     24  C   UNL     1      11.295   6.198   7.629  0.00  0.00    +0.050 A 
ATOM     25  C   UNL     1       9.036   6.587   8.399  0.00  0.00    +0.046 A 
ATOM     26  C   UNL     1      10.121   5.728   8.216  0.00  0.00    +0.120 A 
BRANCH  26   4
ATOM      4  O   UNL     1      10.032   4.428   8.612  0.00  0.00    -0.495 OA
ATOM     32  C   UNL     1       9.300   4.164   9.808  0.00  0.00    +0.277 C 
ENDBRANCH  26   4
ENDBRANCH  13  15
ENDBRANCH   8  13
BRANCH   9  14
ATOM     14  C   UNL     1       8.748  13.583   7.229  0.00  0.00    +0.124 C 
BRANCH  14  18
ATOM      3  O   UNL     1      10.890  13.476   8.386  0.00  0.00    -0.251 OA
ATOM     18  C   UNL     1      10.157  13.993   7.556  0.00  0.00    +0.305 C 
BRANCH  18   2
ATOM      2  O   UNL     1      10.521  15.046   6.779  0.00  0.00    -0.481 OA
ATOM     34  H   UNL     1      10.026  15.061   5.931  0.00  0.00    +0.295 HD
ENDBRANCH  18   2
ENDBRANCH  14  18
ENDBRANCH   9  14
TORSDOF 8
ENDMDL
MODEL 5
REMARK VINA RESULT:      -5.8      2.521      5.248
REMARK  Name = 51136653
REMARK  9 active torsions:
REMARK  status: ('A' for Active; 'I' for Inactive)
REMARK    1  A    between atoms: O_2  and  C_18
REMARK    2  A    between atoms: O_4  and  C_26
REMARK    3  A    between atoms: O_4  and  C_32
REMARK    4  A    between atoms: C_8  and  C_13
REMARK    5  A    between atoms: C_9  and  C_14
REMARK    6  A    between atoms: C_13  and  C_15
REMARK    7  A    between atoms: C_14  and  C_18
REMARK    8  A    between atoms: C_16  and  C_22
REMARK    9  A    between atoms: C_31  and  C_33
REMARK                            x       y       z     vdW  Elec       q    Type
REMARK                         _______ _______ _______ _____ _____    ______ ____
ROOT
ATOM      1  O   UNL     1      -8.270 -11.450  18.082  0.00  0.00    -0.270 OA
ATOM      5  N   UNL     1      -6.437 -10.346  17.137  0.00  0.00    -0.297 N 
ATOM      8  C   UNL     1      -4.613 -10.262  15.450  0.00  0.00    +0.016 C 
ATOM      9  C   UNL     1      -3.612 -10.643  16.570  0.00  0.00    +0.006 C 
ATOM     10  C   UNL     1      -4.299 -11.434  17.698  0.00  0.00    +0.023 C 
ATOM     11  C   UNL     1      -5.835  -9.548  16.059  0.00  0.00    +0.112 C 
ATOM     12  C   UNL     1      -5.525 -10.694  18.225  0.00  0.00    +0.108 C 
ATOM     16  C   UNL     1      -7.764 -10.779  17.184  0.00  0.00    +0.247 C 
ENDROOT
BRANCH  16  22
ATOM     22  C   UNL     1      -8.649 -10.410  16.074  0.00  0.00    +0.037 A 
ATOM     27  C   UNL     1      -8.952 -11.343  15.082  0.00  0.00    +0.014 A 
ATOM     28  C   UNL     1      -9.190  -9.125  16.010  0.00  0.00    +0.014 A 
ATOM     29  C   UNL     1      -9.796 -10.992  14.028  0.00  0.00    +0.019 A 
ATOM     30  C   UNL     1     -10.032  -8.774  14.957  0.00  0.00    +0.019 A 
ATOM     31  C   UNL     1     -10.336  -9.708  13.966  0.00  0.00    +0.052 A 
BRANCH  31  33
ATOM      7  N   UNL     1     -11.900  -9.056  12.008  0.00  0.00    -0.191 NA
ATOM     33  C   UNL     1     -11.199  -9.348  12.885  0.00  0.00    +0.099 C 
ENDBRANCH  31  33
ENDBRANCH  16  22
BRANCH   8  13
ATOM     13  C   UNL     1      -5.063 -11.448  14.589  0.00  0.00    +0.061 C 
BRANCH  13  15
ATOM      6  N   UNL     1      -3.438 -11.903  12.880  0.00  0.00    -0.287 NA
ATOM     15  C   UNL     1      -4.535 -11.290  13.182  0.00  0.00    +0.044 C 
ATOM     17  C   UNL     1      -5.289 -10.441  12.226  0.00  0.00    -0.001 A 
ATOM     19  C   UNL     1      -4.598 -10.005  11.088  0.00  0.00    -0.033 A 
ATOM     20  C   UNL     1      -3.162 -10.404  10.921  0.00  0.00    +0.059 C 
ATOM     21  C   UNL     1      -2.957 -11.799  11.498  0.00  0.00    +0.146 C 
ATOM     23  C   UNL     1      -6.620 -10.069  12.433  0.00  0.00    +0.013 A 
ATOM     24  C   UNL     1      -5.240  -9.170  10.169  0.00  0.00    +0.050 A 
ATOM     25  C   UNL     1      -7.256  -9.248  11.501  0.00  0.00    +0.046 A 
ATOM     26  C   UNL     1      -6.568  -8.797  10.374  0.00  0.00    +0.120 A 
BRANCH  26   4
ATOM      4  O   UNL     1      -7.194  -7.990   9.473  0.00  0.00    -0.495 OA
ATOM     32  C   UNL     1      -7.909  -8.630   8.418  0.00  0.00    +0.277 C 
ENDBRANCH  26   4
ENDBRANCH  13  15
ENDBRANCH   8  13
BRANCH   9  14
ATOM     14  C   UNL     1      -2.388 -11.396  16.053  0.00  0.00    +0.124 C 
BRANCH  14  18
ATOM      3  O   UNL     1      -1.425  -9.915  14.374  0.00  0.00    -0.251 OA
ATOM     18  C   UNL     1      -1.367 -10.461  15.465  0.00  0.00    +0.305 C 
BRANCH  18   2
ATOM      2  O   UNL     1      -0.340 -10.297  16.339  0.00  0.00    -0.481 OA
ATOM     34  H   UNL     1      -0.171  -9.349  16.528  0.00  0.00    +0.295 HD
ENDBRANCH  18   2
ENDBRANCH  14  18
ENDBRANCH   9  14
TORSDOF 8
ENDMDL
MODEL 6
REMARK VINA RESULT:      -5.8     24.233     27.541
REMARK  Name = 51136653
REMARK  9 active torsions:
REMARK  status: ('A' for Active; 'I' for Inactive)
REMARK    1  A    between atoms: O_2  and  C_18
REMARK    2  A    between atoms: O_4  and  C_26
REMARK    3  A    between atoms: O_4  and  C_32
REMARK    4  A    between atoms: C_8  and  C_13
REMARK    5  A    between atoms: C_9  and  C_14
REMARK    6  A    between atoms: C_13  and  C_15
REMARK    7  A    between atoms: C_14  and  C_18
REMARK    8  A    between atoms: C_16  and  C_22
REMARK    9  A    between atoms: C_31  and  C_33
REMARK                            x       y       z     vdW  Elec       q    Type
REMARK                         _______ _______ _______ _____ _____    ______ ____
ROOT
ATOM      1  O   UNL     1      10.226   4.298  -0.154  0.00  0.00    -0.270 OA
ATOM      5  N   UNL     1      12.404   3.989   0.645  0.00  0.00    -0.297 N 
ATOM      8  C   UNL     1      14.622   4.927   1.256  0.00  0.00    +0.016 C 
ATOM      9  C   UNL     1      15.188   4.348  -0.065  0.00  0.00    +0.006 C 
ATOM     10  C   UNL     1      14.092   4.207  -1.136  0.00  0.00    +0.023 C 
ATOM     11  C   UNL     1      13.406   4.100   1.714  0.00  0.00    +0.112 C 
ATOM     12  C   UNL     1      12.899   3.417  -0.606  0.00  0.00    +0.108 C 
ATOM     16  C   UNL     1      11.067   4.385   0.740  0.00  0.00    +0.247 C 
ENDROOT
BRANCH  16  22
ATOM     22  C   UNL     1      10.606   4.955   2.011  0.00  0.00    +0.037 A 
ATOM     27  C   UNL     1      10.918   4.323   3.214  0.00  0.00    +0.014 A 
ATOM     28  C   UNL     1       9.855   6.132   2.015  0.00  0.00    +0.014 A 
ATOM     29  C   UNL     1      10.480   4.867   4.422  0.00  0.00    +0.019 A 
ATOM     30  C   UNL     1       9.418   6.675   3.221  0.00  0.00    +0.019 A 
ATOM     31  C   UNL     1       9.731   6.043   4.425  0.00  0.00    +0.052 A 
BRANCH  31  33
ATOM      7  N   UNL     1       8.916   7.051   6.667  0.00  0.00    -0.191 NA
ATOM     33  C   UNL     1       9.281   6.600   5.662  0.00  0.00    +0.099 C 
ENDBRANCH  31  33
ENDBRANCH  16  22
BRANCH   8  13
ATOM     13  C   UNL     1      14.256   6.414   1.178  0.00  0.00    +0.061 C 
BRANCH  13  15
ATOM      6  N   UNL     1      15.109   6.621   3.413  0.00  0.00    -0.287 NA
ATOM     15  C   UNL     1      14.211   7.005   2.567  0.00  0.00    +0.044 C 
ATOM     17  C   UNL     1      13.145   7.987   2.893  0.00  0.00    -0.001 A 
ATOM     19  C   UNL     1      12.892   8.215   4.251  0.00  0.00    -0.033 A 
ATOM     20  C   UNL     1      13.689   7.457   5.270  0.00  0.00    +0.059 C 
ATOM     21  C   UNL     1      15.103   7.241   4.743  0.00  0.00    +0.146 C 
ATOM     23  C   UNL     1      12.406   8.652   1.912  0.00  0.00    +0.013 A 
ATOM     24  C   UNL     1      11.874   9.097   4.625  0.00  0.00    +0.050 A 
ATOM     25  C   UNL     1      11.402   9.542   2.295  0.00  0.00    +0.046 A 
ATOM     26  C   UNL     1      11.134   9.762   3.647  0.00  0.00    +0.120 A 
BRANCH  26   4
ATOM      4  O   UNL     1      10.147  10.627   4.012  0.00  0.00    -0.495 OA
ATOM     32  C   UNL     1       9.546  10.421   5.289  0.00  0.00    +0.277 C 
ENDBRANCH  26   4
ENDBRANCH  13  15
ENDBRANCH   8  13
BRANCH   9  14
ATOM     14  C   UNL     1      16.374   5.142  -0.611  0.00  0.00    +0.124 C 
BRANCH  14  18
ATOM      3  O   UNL     1      17.297   4.517  -2.778  0.00  0.00    -0.251 OA
ATOM     18  C   UNL     1      17.191   4.328  -1.576  0.00  0.00    +0.305 C 
BRANCH  18   2
ATOM      2  O   UNL     1      17.819   3.324  -0.911  0.00  0.00    -0.481 OA
ATOM     34  H   UNL     1      17.848   2.498  -1.442  0.00  0.00    +0.295 HD
ENDBRANCH  18   2
ENDBRANCH  14  18
ENDBRANCH   9  14
TORSDOF 8
ENDMDL
MODEL 7
REMARK VINA RESULT:      -5.7      2.805      6.599
REMARK  Name = 51136653
REMARK  9 active torsions:
REMARK  status: ('A' for Active; 'I' for Inactive)
REMARK    1  A    between atoms: O_2  and  C_18
REMARK    2  A    between atoms: O_4  and  C_26
REMARK    3  A    between atoms: O_4  and  C_32
REMARK    4  A    between atoms: C_8  and  C_13
REMARK    5  A    between atoms: C_9  and  C_14
REMARK    6  A    between atoms: C_13  and  C_15
REMARK    7  A    between atoms: C_14  and  C_18
REMARK    8  A    between atoms: C_16  and  C_22
REMARK    9  A    between atoms: C_31  and  C_33
REMARK                            x       y       z     vdW  Elec       q    Type
REMARK                         _______ _______ _______ _____ _____    ______ ____
ROOT
ATOM      1  O   UNL     1      -1.908 -12.747  14.277  0.00  0.00    -0.270 OA
ATOM      5  N   UNL     1      -3.145 -11.046  13.253  0.00  0.00    -0.297 N 
ATOM      8  C   UNL     1      -5.235 -10.272  12.153  0.00  0.00    +0.016 C 
ATOM      9  C   UNL     1      -4.501 -10.349  10.791  0.00  0.00    +0.006 C 
ATOM     10  C   UNL     1      -3.358 -11.379  10.821  0.00  0.00    +0.023 C 
ATOM     11  C   UNL     1      -4.217 -10.041  13.285  0.00  0.00    +0.112 C 
ATOM     12  C   UNL     1      -2.412 -11.121  11.991  0.00  0.00    +0.108 C 
ATOM     16  C   UNL     1      -2.801 -11.901  14.302  0.00  0.00    +0.247 C 
ENDROOT
BRANCH  16  22
ATOM     22  C   UNL     1      -3.559 -11.797  15.554  0.00  0.00    +0.037 A 
ATOM     27  C   UNL     1      -4.470 -12.793  15.903  0.00  0.00    +0.014 A 
ATOM     28  C   UNL     1      -3.368 -10.701  16.396  0.00  0.00    +0.014 A 
ATOM     29  C   UNL     1      -5.189 -12.695  17.095  0.00  0.00    +0.019 A 
ATOM     30  C   UNL     1      -4.087 -10.601  17.585  0.00  0.00    +0.019 A 
ATOM     31  C   UNL     1      -4.998 -11.599  17.936  0.00  0.00    +0.052 A 
BRANCH  31  33
ATOM      7  N   UNL     1      -6.334 -11.413  20.146  0.00  0.00    -0.191 NA
ATOM     33  C   UNL     1      -5.735 -11.496  19.155  0.00  0.00    +0.099 C 
ENDBRANCH  31  33
ENDBRANCH  16  22
BRANCH   8  13
ATOM     13  C   UNL     1      -6.106 -11.496  12.461  0.00  0.00    +0.061 C 
BRANCH  13  15
ATOM      6  N   UNL     1      -8.338 -11.302  11.598  0.00  0.00    -0.287 NA
ATOM     15  C   UNL     1      -7.550 -11.077  12.597  0.00  0.00    +0.044 C 
ATOM     17  C   UNL     1      -7.991 -10.427  13.858  0.00  0.00    -0.001 A 
ATOM     19  C   UNL     1      -9.196  -9.714  13.812  0.00  0.00    -0.033 A 
ATOM     20  C   UNL     1      -9.942  -9.644  12.514  0.00  0.00    +0.059 C 
ATOM     21  C   UNL     1      -9.755 -10.951  11.754  0.00  0.00    +0.146 C 
ATOM     23  C   UNL     1      -7.251 -10.494  15.040  0.00  0.00    +0.013 A 
ATOM     24  C   UNL     1      -9.645  -9.045  14.954  0.00  0.00    +0.050 A 
ATOM     25  C   UNL     1      -7.716  -9.835  16.179  0.00  0.00    +0.046 A 
ATOM     26  C   UNL     1      -8.908  -9.110  16.136  0.00  0.00    +0.120 A 
BRANCH  26   4
ATOM      4  O   UNL     1      -9.351  -8.465  17.250  0.00  0.00    -0.495 OA
ATOM     32  C   UNL     1     -10.458  -7.579  17.089  0.00  0.00    +0.277 C 
ENDBRANCH  26   4
ENDBRANCH  13  15
ENDBRANCH   8  13
BRANCH   9  14
ATOM     14  C   UNL     1      -5.439 -10.621   9.616  0.00  0.00    +0.124 C 
BRANCH  14  18
ATOM      3  O   UNL     1      -4.832 -10.655   7.256  0.00  0.00    -0.251 OA
ATOM     18  C   UNL     1      -4.891 -10.072   8.328  0.00  0.00    +0.305 C 
BRANCH  18   2
ATOM      2  O   UNL     1      -4.459  -8.799   8.519  0.00  0.00    -0.481 OA
ATOM     34  H   UNL     1      -4.325  -8.599   9.471  0.00  0.00    +0.295 HD
ENDBRANCH  18   2
ENDBRANCH  14  18
ENDBRANCH   9  14
TORSDOF 8
ENDMDL
MODEL 8
REMARK VINA RESULT:      -5.6     24.342     27.309
REMARK  Name = 51136653
REMARK  9 active torsions:
REMARK  status: ('A' for Active; 'I' for Inactive)
REMARK    1  A    between atoms: O_2  and  C_18
REMARK    2  A    between atoms: O_4  and  C_26
REMARK    3  A    between atoms: O_4  and  C_32
REMARK    4  A    between atoms: C_8  and  C_13
REMARK    5  A    between atoms: C_9  and  C_14
REMARK    6  A    between atoms: C_13  and  C_15
REMARK    7  A    between atoms: C_14  and  C_18
REMARK    8  A    between atoms: C_16  and  C_22
REMARK    9  A    between atoms: C_31  and  C_33
REMARK                            x       y       z     vdW  Elec       q    Type
REMARK                         _______ _______ _______ _____ _____    ______ ____
ROOT
ATOM      1  O   UNL     1      10.447   4.817   5.464  0.00  0.00    -0.270 OA
ATOM      5  N   UNL     1      11.698   6.775   5.192  0.00  0.00    -0.297 N 
ATOM      8  C   UNL     1      13.795   7.905   4.483  0.00  0.00    +0.016 C 
ATOM      9  C   UNL     1      14.177   8.050   5.978  0.00  0.00    +0.006 C 
ATOM     10  C   UNL     1      13.523   6.954   6.838  0.00  0.00    +0.023 C 
ATOM     11  C   UNL     1      12.264   7.829   4.338  0.00  0.00    +0.112 C 
ATOM     12  C   UNL     1      12.014   6.902   6.614  0.00  0.00    +0.108 C 
ATOM     16  C   UNL     1      10.918   5.703   4.752  0.00  0.00    +0.247 C 
ENDROOT
BRANCH  16  22
ATOM     22  C   UNL     1      10.622   5.609   3.319  0.00  0.00    +0.037 A 
ATOM     27  C   UNL     1      10.543   4.360   2.703  0.00  0.00    +0.014 A 
ATOM     28  C   UNL     1      10.418   6.769   2.571  0.00  0.00    +0.014 A 
ATOM     29  C   UNL     1      10.259   4.270   1.340  0.00  0.00    +0.019 A 
ATOM     30  C   UNL     1      10.135   6.680   1.209  0.00  0.00    +0.019 A 
ATOM     31  C   UNL     1      10.055   5.430   0.593  0.00  0.00    +0.052 A 
BRANCH  31  33
ATOM      7  N   UNL     1       9.532   5.264  -1.937  0.00  0.00    -0.191 NA
ATOM     33  C   UNL     1       9.766   5.339  -0.803  0.00  0.00    +0.099 C 
ENDBRANCH  31  33
ENDBRANCH  16  22
BRANCH   8  13
ATOM     13  C   UNL     1      14.457   6.711   3.785  0.00  0.00    +0.061 C 
BRANCH  13  15
ATOM      6  N   UNL     1      14.817   8.110   1.867  0.00  0.00    -0.287 NA
ATOM     15  C   UNL     1      14.479   6.937   2.292  0.00  0.00    +0.044 C 
ATOM     17  C   UNL     1      14.109   5.815   1.393  0.00  0.00    -0.001 A 
ATOM     19  C   UNL     1      13.766   6.148   0.076  0.00  0.00    -0.033 A 
ATOM     20  C   UNL     1      13.779   7.591  -0.328  0.00  0.00    +0.059 C 
ATOM     21  C   UNL     1      14.898   8.312   0.415  0.00  0.00    +0.146 C 
ATOM     23  C   UNL     1      14.082   4.484   1.818  0.00  0.00    +0.013 A 
ATOM     24  C   UNL     1      13.369   5.141  -0.809  0.00  0.00    +0.050 A 
ATOM     25  C   UNL     1      13.700   3.485   0.922  0.00  0.00    +0.046 A 
ATOM     26  C   UNL     1      13.341   3.812  -0.386  0.00  0.00    +0.120 A 
BRANCH  26   4
ATOM      4  O   UNL     1      12.962   2.832  -1.252  0.00  0.00    -0.495 OA
ATOM     32  C   UNL     1      12.785   3.206  -2.618  0.00  0.00    +0.277 C 
ENDBRANCH  26   4
ENDBRANCH  13  15
ENDBRANCH   8  13
BRANCH   9  14
ATOM     14  C   UNL     1      15.686   8.089   6.213  0.00  0.00    +0.124 C 
BRANCH  14  18
ATOM      3  O   UNL     1      17.219   9.627   5.107  0.00  0.00    -0.251 OA
ATOM     18  C   UNL     1      16.271   9.426   5.851  0.00  0.00    +0.305 C 
BRANCH  18   2
ATOM      2  O   UNL     1      15.581  10.413   6.478  0.00  0.00    -0.481 OA
ATOM     34  H   UNL     1      16.016  11.287   6.372  0.00  0.00    +0.295 HD
ENDBRANCH  18   2
ENDBRANCH  14  18
ENDBRANCH   9  14
TORSDOF 8
ENDMDL
MODEL 9
REMARK VINA RESULT:      -5.4     20.504     23.951
REMARK  Name = 51136653
REMARK  9 active torsions:
REMARK  status: ('A' for Active; 'I' for Inactive)
REMARK    1  A    between atoms: O_2  and  C_18
REMARK    2  A    between atoms: O_4  and  C_26
REMARK    3  A    between atoms: O_4  and  C_32
REMARK    4  A    between atoms: C_8  and  C_13
REMARK    5  A    between atoms: C_9  and  C_14
REMARK    6  A    between atoms: C_13  and  C_15
REMARK    7  A    between atoms: C_14  and  C_18
REMARK    8  A    between atoms: C_16  and  C_22
REMARK    9  A    between atoms: C_31  and  C_33
REMARK                            x       y       z     vdW  Elec       q    Type
REMARK                         _______ _______ _______ _____ _____    ______ ____
ROOT
ATOM      1  O   UNL     1       3.990 -13.628  36.608  0.00  0.00    -0.270 OA
ATOM      5  N   UNL     1       3.750 -11.343  36.166  0.00  0.00    -0.297 N 
ATOM      8  C   UNL     1       4.753  -9.160  35.528  0.00  0.00    +0.016 C 
ATOM      9  C   UNL     1       4.659  -8.727  37.013  0.00  0.00    +0.006 C 
ATOM     10  C   UNL     1       4.691  -9.940  37.960  0.00  0.00    +0.023 C 
ATOM     11  C   UNL     1       3.677 -10.219  35.222  0.00  0.00    +0.112 C 
ATOM     12  C   UNL     1       3.633 -10.970  37.575  0.00  0.00    +0.108 C 
ATOM     16  C   UNL     1       3.924 -12.685  35.820  0.00  0.00    +0.247 C 
ENDROOT
BRANCH  16  22
ATOM     22  C   UNL     1       4.038 -13.021  34.397  0.00  0.00    +0.037 A 
ATOM     27  C   UNL     1       2.894 -13.312  33.654  0.00  0.00    +0.014 A 
ATOM     28  C   UNL     1       5.292 -13.050  33.786  0.00  0.00    +0.014 A 
ATOM     29  C   UNL     1       3.003 -13.629  32.300  0.00  0.00    +0.019 A 
ATOM     30  C   UNL     1       5.401 -13.368  32.433  0.00  0.00    +0.019 A 
ATOM     31  C   UNL     1       4.256 -13.658  31.690  0.00  0.00    +0.052 A 
BRANCH  31  33
ATOM      7  N   UNL     1       4.459 -14.249  29.177  0.00  0.00    -0.191 NA
ATOM     33  C   UNL     1       4.368 -13.985  30.303  0.00  0.00    +0.099 C 
ENDBRANCH  31  33
ENDBRANCH  16  22
BRANCH   8  13
ATOM     13  C   UNL     1       6.138  -9.673  35.116  0.00  0.00    +0.061 C 
BRANCH  13  15
ATOM      6  N   UNL     1       5.936  -8.120  33.294  0.00  0.00    -0.287 NA
ATOM     15  C   UNL     1       6.447  -9.234  33.704  0.00  0.00    +0.044 C 
ATOM     17  C   UNL     1       7.311 -10.098  32.860  0.00  0.00    -0.001 A 
ATOM     19  C   UNL     1       7.264  -9.879  31.477  0.00  0.00    -0.033 A 
ATOM     20  C   UNL     1       6.349  -8.815  30.948  0.00  0.00    +0.059 C 
ATOM     21  C   UNL     1       6.286  -7.664  31.944  0.00  0.00    +0.146 C 
ATOM     23  C   UNL     1       8.129 -11.098  33.391  0.00  0.00    +0.013 A 
ATOM     24  C   UNL     1       8.022 -10.686  30.624  0.00  0.00    +0.050 A 
ATOM     25  C   UNL     1       8.894 -11.888  32.532  0.00  0.00    +0.046 A 
ATOM     26  C   UNL     1       8.838 -11.686  31.153  0.00  0.00    +0.120 A 
BRANCH  26   4
ATOM      4  O   UNL     1       9.583 -12.466  30.321  0.00  0.00    -0.495 OA
ATOM     32  C   UNL     1       9.084 -12.664  29.000  0.00  0.00    +0.277 C 
ENDBRANCH  26   4
ENDBRANCH  13  15
ENDBRANCH   8  13
BRANCH   9  14
ATOM     14  C   UNL     1       5.724  -7.706  37.411  0.00  0.00    +0.124 C 
BRANCH  14  18
ATOM      3  O   UNL     1       5.729  -5.742  38.853  0.00  0.00    -0.251 OA
ATOM     18  C   UNL     1       5.128  -6.540  38.149  0.00  0.00    +0.305 C 
BRANCH  18   2
ATOM      2  O   UNL     1       3.791  -6.487  37.919  0.00  0.00    -0.481 OA
ATOM     34  H   UNL     1       3.287  -7.019  38.572  0.00  0.00    +0.295 HD
ENDBRANCH  18   2
ENDBRANCH  14  18
ENDBRANCH   9  14
TORSDOF 8
ENDMDL
MODEL 10
REMARK VINA RESULT:      -5.4      3.356      6.153
REMARK  Name = 51136653
REMARK  9 active torsions:
REMARK  status: ('A' for Active; 'I' for Inactive)
REMARK    1  A    between atoms: O_2  and  C_18
REMARK    2  A    between atoms: O_4  and  C_26
REMARK    3  A    between atoms: O_4  and  C_32
REMARK    4  A    between atoms: C_8  and  C_13
REMARK    5  A    between atoms: C_9  and  C_14
REMARK    6  A    between atoms: C_13  and  C_15
REMARK    7  A    between atoms: C_14  and  C_18
REMARK    8  A    between atoms: C_16  and  C_22
REMARK    9  A    between atoms: C_31  and  C_33
REMARK                            x       y       z     vdW  Elec       q    Type
REMARK                         _______ _______ _______ _____ _____    ______ ____
ROOT
ATOM      1  O   UNL     1      -8.186 -11.320  19.538  0.00  0.00    -0.270 OA
ATOM      5  N   UNL     1      -6.721 -10.195  18.102  0.00  0.00    -0.297 N 
ATOM      8  C   UNL     1      -5.575 -10.024  15.903  0.00  0.00    +0.016 C 
ATOM      9  C   UNL     1      -4.278 -10.529  16.584  0.00  0.00    +0.006 C 
ATOM     10  C   UNL     1      -4.586 -11.392  17.821  0.00  0.00    +0.023 C 
ATOM     11  C   UNL     1      -6.475  -9.328  16.941  0.00  0.00    +0.112 C 
ATOM     12  C   UNL     1      -5.516 -10.663  18.786  0.00  0.00    +0.108 C 
ATOM     16  C   UNL     1      -7.977 -10.590  18.570  0.00  0.00    +0.247 C 
ENDROOT
BRANCH  16  22
ATOM     22  C   UNL     1      -9.163 -10.102  17.859  0.00  0.00    +0.037 A 
ATOM     27  C   UNL     1      -9.380  -8.731  17.723  0.00  0.00    +0.014 A 
ATOM     28  C   UNL     1     -10.074 -11.009  17.317  0.00  0.00    +0.014 A 
ATOM     29  C   UNL     1     -10.507  -8.267  17.044  0.00  0.00    +0.019 A 
ATOM     30  C   UNL     1     -11.201 -10.546  16.640  0.00  0.00    +0.019 A 
ATOM     31  C   UNL     1     -11.417  -9.174  16.503  0.00  0.00    +0.052 A 
BRANCH  31  33
ATOM      7  N   UNL     1     -13.512  -8.313  15.247  0.00  0.00    -0.191 NA
ATOM     33  C   UNL     1     -12.573  -8.699  15.809  0.00  0.00    +0.099 C 
ENDBRANCH  31  33
ENDBRANCH  16  22
BRANCH   8  13
ATOM     13  C   UNL     1      -6.358 -11.118  15.168  0.00  0.00    +0.061 C 
BRANCH  13  15
ATOM      6  N   UNL     1      -8.462 -10.341  14.310  0.00  0.00    -0.287 NA
ATOM     15  C   UNL     1      -7.201 -10.500  14.078  0.00  0.00    +0.044 C 
ATOM     17  C   UNL     1      -6.549 -10.115  12.800  0.00  0.00    -0.001 A 
ATOM     19  C   UNL     1      -7.390  -9.916  11.698  0.00  0.00    -0.033 A 
ATOM     20  C   UNL     1      -8.865 -10.117  11.872  0.00  0.00    +0.059 C 
ATOM     21  C   UNL     1      -9.270  -9.685  13.276  0.00  0.00    +0.146 C 
ATOM     23  C   UNL     1      -5.166  -9.965  12.674  0.00  0.00    +0.013 A 
ATOM     24  C   UNL     1      -6.835  -9.592  10.457  0.00  0.00    +0.050 A 
ATOM     25  C   UNL     1      -4.623  -9.625  11.434  0.00  0.00    +0.046 A 
ATOM     26  C   UNL     1      -5.454  -9.442  10.328  0.00  0.00    +0.120 A 
BRANCH  26   4
ATOM      4  O   UNL     1      -4.915  -9.118   9.120  0.00  0.00    -0.495 OA
ATOM     32  C   UNL     1      -5.039 -10.082   8.075  0.00  0.00    +0.277 C 
ENDBRANCH  26   4
ENDBRANCH  13  15
ENDBRANCH   8  13
BRANCH   9  14
ATOM     14  C   UNL     1      -3.346 -11.273  15.628  0.00  0.00    +0.124 C 
BRANCH  14  18
ATOM      3  O   UNL     1      -1.454 -10.030  14.727  0.00  0.00    -0.251 OA
ATOM     18  C   UNL     1      -1.964 -10.681  15.626  0.00  0.00    +0.305 C 
BRANCH  18   2
ATOM      2  O   UNL     1      -1.338 -10.974  16.795  0.00  0.00    -0.481 OA
ATOM     34  H   UNL     1      -1.709 -10.462  17.546  0.00  0.00    +0.295 HD
ENDBRANCH  18   2
ENDBRANCH  14  18
ENDBRANCH   9  14
TORSDOF 8
ENDMDL
