MODEL 1
REMARK VINA RESULT:      -6.7      0.000      0.000
REMARK  Name = 11885092
REMARK  14 active torsions:
REMARK  status: ('A' for Active; 'I' for Inactive)
REMARK    1  A    between atoms: O_2  and  C_15
REMARK    2  A    between atoms: O_3  and  C_20
REMARK    3  A    between atoms: O_6  and  C_32
REMARK    4  A    between atoms: N_8  and  C_26
REMARK    5  A    between atoms: C_10  and  C_18
REMARK    6  A    between atoms: C_12  and  C_20
REMARK    7  A    between atoms: C_12  and  C_21
REMARK    8  A    between atoms: C_13  and  C_23
REMARK    9  A    between atoms: C_23  and  C_24
REMARK   10  A    between atoms: C_27  and  C_28
REMARK   11  A    between atoms: C_28  and  C_31
REMARK   12  A    between atoms: C_31  and  C_34
REMARK   13  A    between atoms: C_34  and  C_36
REMARK   14  A    between atoms: C_36  and  C_37
REMARK                            x       y       z     vdW  Elec       q    Type
REMARK                         _______ _______ _______ _____ _____    ______ ____
ROOT
ATOM      1  S   UNL     1      18.060   6.253  20.210  0.00  0.00    -0.057 S 
ATOM      5  O   UNL     1      20.927   8.857  22.802  0.00  0.00    -0.275 OA
ATOM      7  N   UNL     1      18.285   8.478  21.510  0.00  0.00    -0.229 NA
ATOM      9  N   UNL     1      20.205   7.022  21.506  0.00  0.00    -0.265 N 
ATOM     10  C   UNL     1      14.820   9.477  20.144  0.00  0.00    -0.019 C 
ATOM     11  C   UNL     1      14.318   7.966  20.094  0.00  0.00    +0.011 C 
ATOM     12  C   UNL     1      12.896   7.705  19.463  0.00  0.00    +0.021 C 
ATOM     13  C   UNL     1      16.029   9.560  21.185  0.00  0.00    +0.054 C 
ATOM     14  C   UNL     1      13.672  10.385  20.654  0.00  0.00    +0.010 C 
ATOM     15  C   UNL     1      11.880   8.728  20.046  0.00  0.00    +0.123 C 
ATOM     16  C   UNL     1      15.426   7.015  19.558  0.00  0.00    +0.049 C 
ATOM     17  C   UNL     1      12.349  10.173  19.931  0.00  0.00    +0.032 C 
ATOM     18  C   UNL     1      15.292   9.999  18.765  0.00  0.00    +0.012 C 
ATOM     19  C   UNL     1      17.017   8.444  20.959  0.00  0.00    +0.058 A 
ATOM     21  C   UNL     1      12.411   6.286  19.873  0.00  0.00    +0.016 C 
ATOM     22  C   UNL     1      16.721   7.304  20.241  0.00  0.00    +0.015 A 
ATOM     25  C   UNL     1      18.925   7.379  21.175  0.00  0.00    +0.165 A 
ATOM     27  C   UNL     1      21.117   7.762  22.284  0.00  0.00    +0.219 C 
ATOM     41  H   UNL     1      20.508   6.123  21.141  0.00  0.00    +0.157 HD
ENDROOT
BRANCH  15   2
ATOM      2  O   UNL     1      10.614   8.603  19.399  0.00  0.00    -0.391 OA
ATOM     38  H   UNL     1      10.286   7.701  19.551  0.00  0.00    +0.210 HD
ENDBRANCH  15   2
BRANCH  12  20
ATOM     20  C   UNL     1      12.869   7.722  17.917  0.00  0.00    +0.165 C 
BRANCH  20   3
ATOM      3  O   UNL     1      11.740   6.989  17.498  0.00  0.00    -0.394 OA
ATOM     39  H   UNL     1      11.703   6.168  18.018  0.00  0.00    +0.209 HD
ENDBRANCH  20   3
ENDBRANCH  12  20
BRANCH  13  23
ATOM     23  C   UNL     1      16.727  10.925  21.245  0.00  0.00    +0.106 C 
BRANCH  23  24
ATOM      4  O   UNL     1      15.614  13.008  21.728  0.00  0.00    -0.275 OA
ATOM      8  N   UNL     1      15.812  11.369  23.400  0.00  0.00    -0.285 N 
ATOM     24  C   UNL     1      15.985  11.908  22.128  0.00  0.00    +0.218 C 
ATOM     40  H   UNL     1      16.190  10.441  23.577  0.00  0.00    +0.155 HD
BRANCH   8  26
ATOM     26  C   UNL     1      15.171  11.966  24.511  0.00  0.00    +0.037 A 
ATOM     29  C   UNL     1      13.801  11.828  24.657  0.00  0.00    +0.068 A 
ATOM     30  C   UNL     1      15.927  12.675  25.428  0.00  0.00    +0.023 A 
ATOM     32  C   UNL     1      13.169  12.417  25.753  0.00  0.00    +0.119 A 
ATOM     33  C   UNL     1      15.296  13.264  26.524  0.00  0.00    +0.005 A 
ATOM     35  C   UNL     1      13.917  13.135  26.686  0.00  0.00    +0.045 A 
BRANCH  32   6
ATOM      6  O   UNL     1      11.823  12.291  25.911  0.00  0.00    -0.507 OA
ATOM     42  H   UNL     1      11.538  11.444  25.527  0.00  0.00    +0.292 HD
ENDBRANCH  32   6
ENDBRANCH   8  26
ENDBRANCH  23  24
ENDBRANCH  13  23
BRANCH  27  28
ATOM     28  C   UNL     1      22.441   7.023  22.429  0.00  0.00    +0.096 C 
BRANCH  28  31
ATOM     31  C   UNL     1      22.556   5.829  21.483  0.00  0.00    +0.009 C 
BRANCH  31  34
ATOM     34  C   UNL     1      23.097   4.596  22.206  0.00  0.00    +0.000 C 
BRANCH  34  36
ATOM     36  C   UNL     1      22.078   3.457  22.202  0.00  0.00    -0.003 C 
ATOM     37  C   UNL     1      21.145   3.548  21.005  0.00  0.00    +0.004 C 
ENDBRANCH  34  36
ENDBRANCH  31  34
ENDBRANCH  28  31
ENDBRANCH  27  28
TORSDOF 11
ENDMDL
MODEL 2
REMARK VINA RESULT:      -6.6     30.193     33.547
REMARK  Name = 11885092
REMARK  14 active torsions:
REMARK  status: ('A' for Active; 'I' for Inactive)
REMARK    1  A    between atoms: O_2  and  C_15
REMARK    2  A    between atoms: O_3  and  C_20
REMARK    3  A    between atoms: O_6  and  C_32
REMARK    4  A    between atoms: N_8  and  C_26
REMARK    5  A    between atoms: C_10  and  C_18
REMARK    6  A    between atoms: C_12  and  C_20
REMARK    7  A    between atoms: C_12  and  C_21
REMARK    8  A    between atoms: C_13  and  C_23
REMARK    9  A    between atoms: C_23  and  C_24
REMARK   10  A    between atoms: C_27  and  C_28
REMARK   11  A    between atoms: C_28  and  C_31
REMARK   12  A    between atoms: C_31  and  C_34
REMARK   13  A    between atoms: C_34  and  C_36
REMARK   14  A    between atoms: C_36  and  C_37
REMARK                            x       y       z     vdW  Elec       q    Type
REMARK                         _______ _______ _______ _____ _____    ______ ____
ROOT
ATOM      1  S   UNL     1     -10.107 -12.689  20.279  0.00  0.00    -0.057 S 
ATOM      5  O   UNL     1     -13.491  -9.621  19.350  0.00  0.00    -0.275 OA
ATOM      7  N   UNL     1     -10.742 -10.621  18.860  0.00  0.00    -0.229 NA
ATOM      9  N   UNL     1     -12.422 -11.460  20.371  0.00  0.00    -0.265 N 
ATOM     10  C   UNL     1      -7.102 -10.534  17.592  0.00  0.00    -0.019 C 
ATOM     11  C   UNL     1      -6.941 -12.115  17.711  0.00  0.00    +0.011 C 
ATOM     12  C   UNL     1      -5.512 -12.713  17.414  0.00  0.00    +0.021 C 
ATOM     13  C   UNL     1      -8.662 -10.205  17.495  0.00  0.00    +0.054 C 
ATOM     14  C   UNL     1      -6.415 -10.043  16.292  0.00  0.00    +0.010 C 
ATOM     15  C   UNL     1      -4.953 -12.081  16.107  0.00  0.00    +0.123 C 
ATOM     16  C   UNL     1      -7.587 -12.656  19.019  0.00  0.00    +0.049 C 
ATOM     17  C   UNL     1      -4.995 -10.558  16.110  0.00  0.00    +0.032 C 
ATOM     18  C   UNL     1      -6.488  -9.776  18.795  0.00  0.00    +0.012 C 
ATOM     19  C   UNL     1      -9.443 -10.966  18.536  0.00  0.00    +0.058 A 
ATOM     21  C   UNL     1      -5.643 -14.243  17.168  0.00  0.00    +0.016 C 
ATOM     22  C   UNL     1      -8.948 -12.072  19.195  0.00  0.00    +0.015 A 
ATOM     25  C   UNL     1     -11.189 -11.455  19.774  0.00  0.00    +0.165 A 
ATOM     27  C   UNL     1     -13.482 -10.564  20.134  0.00  0.00    +0.219 C 
ATOM     41  H   UNL     1     -12.563 -12.198  21.056  0.00  0.00    +0.157 HD
ENDROOT
BRANCH  15   2
ATOM      2  O   UNL     1      -3.609 -12.504  15.879  0.00  0.00    -0.391 OA
ATOM     38  H   UNL     1      -3.588 -13.001  15.045  0.00  0.00    +0.210 HD
ENDBRANCH  15   2
BRANCH  12  20
ATOM     20  C   UNL     1      -4.500 -12.564  18.573  0.00  0.00    +0.165 C 
BRANCH  20   3
ATOM      3  O   UNL     1      -3.914 -13.826  18.798  0.00  0.00    -0.394 OA
ATOM     39  H   UNL     1      -2.948 -13.713  18.803  0.00  0.00    +0.209 HD
ENDBRANCH  20   3
ENDBRANCH  12  20
BRANCH  13  23
ATOM     23  C   UNL     1      -9.000  -8.708  17.521  0.00  0.00    +0.106 C 
BRANCH  23  24
ATOM      4  O   UNL     1      -9.525  -8.650  15.170  0.00  0.00    -0.275 OA
ATOM      8  N   UNL     1     -10.844  -7.445  16.697  0.00  0.00    -0.285 N 
ATOM     24  C   UNL     1      -9.801  -8.281  16.308  0.00  0.00    +0.218 C 
ATOM     40  H   UNL     1     -10.932  -7.225  17.686  0.00  0.00    +0.155 HD
BRANCH   8  26
ATOM     26  C   UNL     1     -11.816  -6.836  15.869  0.00  0.00    +0.037 A 
ATOM     29  C   UNL     1     -11.430  -5.833  14.995  0.00  0.00    +0.068 A 
ATOM     30  C   UNL     1     -13.133  -7.256  15.949  0.00  0.00    +0.023 A 
ATOM     32  C   UNL     1     -12.389  -5.234  14.178  0.00  0.00    +0.119 A 
ATOM     33  C   UNL     1     -14.092  -6.657  15.132  0.00  0.00    +0.005 A 
ATOM     35  C   UNL     1     -13.720  -5.645  14.247  0.00  0.00    +0.045 A 
BRANCH  32   6
ATOM      6  O   UNL     1     -12.026  -4.246  13.314  0.00  0.00    -0.507 OA
ATOM     42  H   UNL     1     -11.118  -4.414  13.007  0.00  0.00    +0.292 HD
ENDBRANCH  32   6
ENDBRANCH   8  26
ENDBRANCH  23  24
ENDBRANCH  13  23
BRANCH  27  28
ATOM     28  C   UNL     1     -14.691 -10.903  20.996  0.00  0.00    +0.096 C 
BRANCH  28  31
ATOM     31  C   UNL     1     -15.931 -10.096  20.616  0.00  0.00    +0.009 C 
BRANCH  31  34
ATOM     34  C   UNL     1     -16.177  -8.955  21.603  0.00  0.00    +0.000 C 
BRANCH  34  36
ATOM     36  C   UNL     1     -16.258  -7.607  20.888  0.00  0.00    -0.003 C 
ATOM     37  C   UNL     1     -16.385  -6.459  21.876  0.00  0.00    +0.004 C 
ENDBRANCH  34  36
ENDBRANCH  31  34
ENDBRANCH  28  31
ENDBRANCH  27  28
TORSDOF 11
ENDMDL
MODEL 3
REMARK VINA RESULT:      -6.5     15.973     19.922
REMARK  Name = 11885092
REMARK  14 active torsions:
REMARK  status: ('A' for Active; 'I' for Inactive)
REMARK    1  A    between atoms: O_2  and  C_15
REMARK    2  A    between atoms: O_3  and  C_20
REMARK    3  A    between atoms: O_6  and  C_32
REMARK    4  A    between atoms: N_8  and  C_26
REMARK    5  A    between atoms: C_10  and  C_18
REMARK    6  A    between atoms: C_12  and  C_20
REMARK    7  A    between atoms: C_12  and  C_21
REMARK    8  A    between atoms: C_13  and  C_23
REMARK    9  A    between atoms: C_23  and  C_24
REMARK   10  A    between atoms: C_27  and  C_28
REMARK   11  A    between atoms: C_28  and  C_31
REMARK   12  A    between atoms: C_31  and  C_34
REMARK   13  A    between atoms: C_34  and  C_36
REMARK   14  A    between atoms: C_36  and  C_37
REMARK                            x       y       z     vdW  Elec       q    Type
REMARK                         _______ _______ _______ _____ _____    ______ ____
ROOT
ATOM      1  S   UNL     1       9.932   5.433   3.016  0.00  0.00    -0.057 S 
ATOM      5  O   UNL     1      12.012   8.012   6.293  0.00  0.00    -0.275 OA
ATOM      7  N   UNL     1      12.154   6.560   3.712  0.00  0.00    -0.229 NA
ATOM      9  N   UNL     1      10.286   6.821   5.212  0.00  0.00    -0.265 N 
ATOM     10  C   UNL     1      13.818   4.857   0.679  0.00  0.00    -0.019 C 
ATOM     11  C   UNL     1      12.475   4.894  -0.177  0.00  0.00    +0.011 C 
ATOM     12  C   UNL     1      12.503   4.180  -1.583  0.00  0.00    +0.021 C 
ATOM     13  C   UNL     1      13.709   5.976   1.813  0.00  0.00    +0.054 C 
ATOM     14  C   UNL     1      15.022   5.202  -0.236  0.00  0.00    +0.010 C 
ATOM     15  C   UNL     1      13.792   4.598  -2.346  0.00  0.00    +0.123 C 
ATOM     16  C   UNL     1      11.238   4.523   0.689  0.00  0.00    +0.049 C 
ATOM     17  C   UNL     1      15.064   4.401  -1.530  0.00  0.00    +0.032 C 
ATOM     18  C   UNL     1      14.073   3.479   1.337  0.00  0.00    +0.012 C 
ATOM     19  C   UNL     1      12.372   5.919   2.506  0.00  0.00    +0.058 A 
ATOM     21  C   UNL     1      11.290   4.668  -2.425  0.00  0.00    +0.016 C 
ATOM     22  C   UNL     1      11.272   5.276   1.977  0.00  0.00    +0.015 A 
ATOM     25  C   UNL     1      10.906   6.365   4.079  0.00  0.00    +0.165 A 
ATOM     27  C   UNL     1      10.858   7.602   6.235  0.00  0.00    +0.219 C 
ATOM     41  H   UNL     1       9.309   6.555   5.303  0.00  0.00    +0.157 HD
ENDROOT
BRANCH  15   2
ATOM      2  O   UNL     1      13.913   3.870  -3.568  0.00  0.00    -0.391 OA
ATOM     38  H   UNL     1      14.198   2.967  -3.353  0.00  0.00    +0.210 HD
ENDBRANCH  15   2
BRANCH  12  20
ATOM     20  C   UNL     1      12.374   2.641  -1.524  0.00  0.00    +0.165 C 
BRANCH  20   3
ATOM      3  O   UNL     1      11.561   2.234  -2.601  0.00  0.00    -0.394 OA
ATOM     39  H   UNL     1      12.138   1.868  -3.293  0.00  0.00    +0.209 HD
ENDBRANCH  20   3
ENDBRANCH  12  20
BRANCH  13  23
ATOM     23  C   UNL     1      14.866   5.976   2.821  0.00  0.00    +0.106 C 
BRANCH  23  24
ATOM      4  O   UNL     1      15.434   8.255   2.278  0.00  0.00    -0.275 OA
ATOM      8  N   UNL     1      15.674   7.480   4.484  0.00  0.00    -0.285 N 
ATOM     24  C   UNL     1      15.353   7.377   3.133  0.00  0.00    +0.218 C 
ATOM     40  H   UNL     1      15.560   6.651   5.062  0.00  0.00    +0.155 HD
BRANCH   8  26
ATOM     26  C   UNL     1      16.162   8.617   5.171  0.00  0.00    +0.037 A 
ATOM     29  C   UNL     1      15.296   9.352   5.964  0.00  0.00    +0.068 A 
ATOM     30  C   UNL     1      17.493   8.970   5.035  0.00  0.00    +0.023 A 
ATOM     32  C   UNL     1      15.778  10.473   6.641  0.00  0.00    +0.119 A 
ATOM     33  C   UNL     1      17.975  10.090   5.713  0.00  0.00    +0.005 A 
ATOM     35  C   UNL     1      17.117  10.842   6.515  0.00  0.00    +0.045 A 
BRANCH  32   6
ATOM      6  O   UNL     1      14.941  11.206   7.425  0.00  0.00    -0.507 OA
ATOM     42  H   UNL     1      15.399  11.428   8.254  0.00  0.00    +0.292 HD
ENDBRANCH  32   6
ENDBRANCH   8  26
ENDBRANCH  23  24
ENDBRANCH  13  23
BRANCH  27  28
ATOM     28  C   UNL     1       9.840   7.907   7.326  0.00  0.00    +0.096 C 
BRANCH  28  31
ATOM     31  C   UNL     1       9.165   6.649   7.870  0.00  0.00    +0.009 C 
BRANCH  31  34
ATOM     34  C   UNL     1      10.190   5.672   8.447  0.00  0.00    +0.000 C 
BRANCH  34  36
ATOM     36  C   UNL     1       9.516   4.401   8.963  0.00  0.00    -0.003 C 
ATOM     37  C   UNL     1       8.889   4.618  10.331  0.00  0.00    +0.004 C 
ENDBRANCH  34  36
ENDBRANCH  31  34
ENDBRANCH  28  31
ENDBRANCH  27  28
TORSDOF 11
ENDMDL
MODEL 4
REMARK VINA RESULT:      -6.5     15.588     20.136
REMARK  Name = 11885092
REMARK  14 active torsions:
REMARK  status: ('A' for Active; 'I' for Inactive)
REMARK    1  A    between atoms: O_2  and  C_15
REMARK    2  A    between atoms: O_3  and  C_20
REMARK    3  A    between atoms: O_6  and  C_32
REMARK    4  A    between atoms: N_8  and  C_26
REMARK    5  A    between atoms: C_10  and  C_18
REMARK    6  A    between atoms: C_12  and  C_20
REMARK    7  A    between atoms: C_12  and  C_21
REMARK    8  A    between atoms: C_13  and  C_23
REMARK    9  A    between atoms: C_23  and  C_24
REMARK   10  A    between atoms: C_27  and  C_28
REMARK   11  A    between atoms: C_28  and  C_31
REMARK   12  A    between atoms: C_31  and  C_34
REMARK   13  A    between atoms: C_34  and  C_36
REMARK   14  A    between atoms: C_36  and  C_37
REMARK                            x       y       z     vdW  Elec       q    Type
REMARK                         _______ _______ _______ _____ _____    ______ ____
ROOT
ATOM      1  S   UNL     1      14.712   8.161   6.551  0.00  0.00    -0.057 S 
ATOM      5  O   UNL     1      11.855   6.481   3.275  0.00  0.00    -0.275 OA
ATOM      7  N   UNL     1      14.534   7.478   4.062  0.00  0.00    -0.229 NA
ATOM      9  N   UNL     1      12.547   7.228   5.403  0.00  0.00    -0.265 N 
ATOM     10  C   UNL     1      18.104   8.847   3.565  0.00  0.00    -0.019 C 
ATOM     11  C   UNL     1      18.535   8.485   5.055  0.00  0.00    +0.011 C 
ATOM     12  C   UNL     1      19.970   8.946   5.518  0.00  0.00    +0.021 C 
ATOM     13  C   UNL     1      16.853   7.933   3.178  0.00  0.00    +0.054 C 
ATOM     14  C   UNL     1      19.271   8.516   2.598  0.00  0.00    +0.010 C 
ATOM     15  C   UNL     1      21.006   8.581   4.417  0.00  0.00    +0.123 C 
ATOM     16  C   UNL     1      17.409   8.828   6.072  0.00  0.00    +0.049 C 
ATOM     17  C   UNL     1      20.614   9.084   3.033  0.00  0.00    +0.032 C 
ATOM     18  C   UNL     1      17.726  10.339   3.395  0.00  0.00    +0.012 C 
ATOM     19  C   UNL     1      15.824   7.928   4.279  0.00  0.00    +0.058 A 
ATOM     21  C   UNL     1      20.366   8.164   6.802  0.00  0.00    +0.016 C 
ATOM     22  C   UNL     1      16.098   8.317   5.574  0.00  0.00    +0.015 A 
ATOM     25  C   UNL     1      13.858   7.563   5.187  0.00  0.00    +0.165 A 
ATOM     27  C   UNL     1      11.637   6.717   4.458  0.00  0.00    +0.219 C 
ATOM     41  H   UNL     1      12.219   7.372   6.355  0.00  0.00    +0.157 HD
ENDROOT
BRANCH  15   2
ATOM      2  O   UNL     1      22.295   9.100   4.746  0.00  0.00    -0.391 OA
ATOM     38  H   UNL     1      22.398   9.058   5.711  0.00  0.00    +0.210 HD
ENDBRANCH  15   2
BRANCH  12  20
ATOM     20  C   UNL     1      20.073  10.441   5.896  0.00  0.00    +0.165 C 
BRANCH  20   3
ATOM      3  O   UNL     1      20.983  10.554   6.966  0.00  0.00    -0.394 OA
ATOM     39  H   UNL     1      21.492  11.374   6.844  0.00  0.00    +0.209 HD
ENDBRANCH  20   3
ENDBRANCH  12  20
BRANCH  13  23
ATOM     23  C   UNL     1      16.221   8.260   1.818  0.00  0.00    +0.106 C 
BRANCH  23  24
ATOM      4  O   UNL     1      16.768   6.524   0.240  0.00  0.00    -0.275 OA
ATOM      8  N   UNL     1      14.652   6.556   1.262  0.00  0.00    -0.285 N 
ATOM     24  C   UNL     1      15.941   7.014   1.003  0.00  0.00    +0.218 C 
ATOM     40  H   UNL     1      14.084   7.085   1.919  0.00  0.00    +0.155 HD
BRANCH   8  26
ATOM     26  C   UNL     1      14.011   5.424   0.705  0.00  0.00    +0.037 A 
ATOM     29  C   UNL     1      13.521   5.491  -0.589  0.00  0.00    +0.068 A 
ATOM     30  C   UNL     1      13.886   4.274   1.464  0.00  0.00    +0.023 A 
ATOM     32  C   UNL     1      12.889   4.375  -1.138  0.00  0.00    +0.119 A 
ATOM     33  C   UNL     1      13.255   3.158   0.915  0.00  0.00    +0.005 A 
ATOM     35  C   UNL     1      12.756   3.209  -0.386  0.00  0.00    +0.045 A 
BRANCH  32   6
ATOM      6  O   UNL     1      12.403   4.425  -2.409  0.00  0.00    -0.507 OA
ATOM     42  H   UNL     1      11.473   4.139  -2.402  0.00  0.00    +0.292 HD
ENDBRANCH  32   6
ENDBRANCH   8  26
ENDBRANCH  23  24
ENDBRANCH  13  23
BRANCH  27  28
ATOM     28  C   UNL     1      10.273   6.468   5.089  0.00  0.00    +0.096 C 
BRANCH  28  31
ATOM     31  C   UNL     1      10.241   5.202   5.942  0.00  0.00    +0.009 C 
BRANCH  31  34
ATOM     34  C   UNL     1       9.514   5.440   7.266  0.00  0.00    +0.000 C 
BRANCH  34  36
ATOM     36  C   UNL     1       9.776   4.307   8.257  0.00  0.00    -0.003 C 
ATOM     37  C   UNL     1       9.330   4.681   9.661  0.00  0.00    +0.004 C 
ENDBRANCH  34  36
ENDBRANCH  31  34
ENDBRANCH  28  31
ENDBRANCH  27  28
TORSDOF 11
ENDMDL
MODEL 5
REMARK VINA RESULT:      -6.5     28.421     32.083
REMARK  Name = 11885092
REMARK  14 active torsions:
REMARK  status: ('A' for Active; 'I' for Inactive)
REMARK    1  A    between atoms: O_2  and  C_15
REMARK    2  A    between atoms: O_3  and  C_20
REMARK    3  A    between atoms: O_6  and  C_32
REMARK    4  A    between atoms: N_8  and  C_26
REMARK    5  A    between atoms: C_10  and  C_18
REMARK    6  A    between atoms: C_12  and  C_20
REMARK    7  A    between atoms: C_12  and  C_21
REMARK    8  A    between atoms: C_13  and  C_23
REMARK    9  A    between atoms: C_23  and  C_24
REMARK   10  A    between atoms: C_27  and  C_28
REMARK   11  A    between atoms: C_28  and  C_31
REMARK   12  A    between atoms: C_31  and  C_34
REMARK   13  A    between atoms: C_34  and  C_36
REMARK   14  A    between atoms: C_36  and  C_37
REMARK                            x       y       z     vdW  Elec       q    Type
REMARK                         _______ _______ _______ _____ _____    ______ ____
ROOT
ATOM      1  S   UNL     1      -6.551 -10.364  10.801  0.00  0.00    -0.057 S 
ATOM      5  O   UNL     1     -10.877  -8.907  11.737  0.00  0.00    -0.275 OA
ATOM      7  N   UNL     1      -8.213  -9.787  12.697  0.00  0.00    -0.229 NA
ATOM      9  N   UNL     1      -9.015  -9.547  10.437  0.00  0.00    -0.265 N 
ATOM     10  C   UNL     1      -5.585 -11.059  15.215  0.00  0.00    -0.019 C 
ATOM     11  C   UNL     1      -4.368 -10.625  14.283  0.00  0.00    +0.011 C 
ATOM     12  C   UNL     1      -2.920 -11.022  14.766  0.00  0.00    +0.021 C 
ATOM     13  C   UNL     1      -6.862 -10.202  14.787  0.00  0.00    +0.054 C 
ATOM     14  C   UNL     1      -5.245 -10.730  16.691  0.00  0.00    +0.010 C 
ATOM     15  C   UNL     1      -2.766 -10.668  16.272  0.00  0.00    +0.123 C 
ATOM     16  C   UNL     1      -4.645 -10.964  12.790  0.00  0.00    +0.049 C 
ATOM     17  C   UNL     1      -3.882 -11.237  17.140  0.00  0.00    +0.032 C 
ATOM     18  C   UNL     1      -5.916 -12.568  15.106  0.00  0.00    +0.012 C 
ATOM     19  C   UNL     1      -7.029 -10.186  13.289  0.00  0.00    +0.058 A 
ATOM     21  C   UNL     1      -1.874 -10.177  13.983  0.00  0.00    +0.016 C 
ATOM     22  C   UNL     1      -6.017 -10.515  12.411  0.00  0.00    +0.015 A 
ATOM     25  C   UNL     1      -8.079  -9.849  11.390  0.00  0.00    +0.165 A 
ATOM     27  C   UNL     1     -10.334  -9.102  10.655  0.00  0.00    +0.219 C 
ATOM     41  H   UNL     1      -8.702  -9.663   9.476  0.00  0.00    +0.157 HD
ENDROOT
BRANCH  15   2
ATOM      2  O   UNL     1      -1.512 -11.132  16.773  0.00  0.00    -0.391 OA
ATOM     38  H   UNL     1      -0.827 -10.901  16.125  0.00  0.00    +0.210 HD
ENDBRANCH  15   2
BRANCH  12  20
ATOM     20  C   UNL     1      -2.539 -12.497  14.506  0.00  0.00    +0.165 C 
BRANCH  20   3
ATOM      3  O   UNL     1      -1.202 -12.525  14.060  0.00  0.00    -0.394 OA
ATOM     39  H   UNL     1      -0.980 -13.443  13.828  0.00  0.00    +0.209 HD
ENDBRANCH  20   3
ENDBRANCH  12  20
BRANCH  13  23
ATOM     23  C   UNL     1      -8.165 -10.602  15.494  0.00  0.00    +0.106 C 
BRANCH  23  24
ATOM      4  O   UNL     1      -8.555  -8.648  16.848  0.00  0.00    -0.275 OA
ATOM      8  N   UNL     1     -10.146  -9.303  15.248  0.00  0.00    -0.285 N 
ATOM     24  C   UNL     1      -8.955  -9.397  15.962  0.00  0.00    +0.218 C 
ATOM     40  H   UNL     1     -10.337 -10.015  14.548  0.00  0.00    +0.155 HD
BRANCH   8  26
ATOM     26  C   UNL     1     -11.158  -8.322  15.384  0.00  0.00    +0.037 A 
ATOM     29  C   UNL     1     -11.009  -7.103  14.745  0.00  0.00    +0.068 A 
ATOM     30  C   UNL     1     -12.275  -8.603  16.152  0.00  0.00    +0.023 A 
ATOM     32  C   UNL     1     -12.007  -6.136  14.878  0.00  0.00    +0.119 A 
ATOM     33  C   UNL     1     -13.272  -7.638  16.285  0.00  0.00    +0.005 A 
ATOM     35  C   UNL     1     -13.138  -6.404  15.649  0.00  0.00    +0.045 A 
BRANCH  32   6
ATOM      6  O   UNL     1     -11.876  -4.932  14.257  0.00  0.00    -0.507 OA
ATOM     42  H   UNL     1     -11.454  -4.305  14.870  0.00  0.00    +0.292 HD
ENDBRANCH  32   6
ENDBRANCH   8  26
ENDBRANCH  23  24
ENDBRANCH  13  23
BRANCH  27  28
ATOM     28  C   UNL     1     -11.061  -8.873   9.337  0.00  0.00    +0.096 C 
BRANCH  28  31
ATOM     31  C   UNL     1     -10.347  -7.864   8.439  0.00  0.00    +0.009 C 
BRANCH  31  34
ATOM     34  C   UNL     1     -10.527  -6.435   8.954  0.00  0.00    +0.000 C 
BRANCH  34  36
ATOM     36  C   UNL     1      -9.388  -5.529   8.489  0.00  0.00    -0.003 C 
ATOM     37  C   UNL     1      -8.178  -6.336   8.047  0.00  0.00    +0.004 C 
ENDBRANCH  34  36
ENDBRANCH  31  34
ENDBRANCH  28  31
ENDBRANCH  27  28
TORSDOF 11
ENDMDL
MODEL 6
REMARK VINA RESULT:      -6.5     17.470     22.130
REMARK  Name = 11885092
REMARK  14 active torsions:
REMARK  status: ('A' for Active; 'I' for Inactive)
REMARK    1  A    between atoms: O_2  and  C_15
REMARK    2  A    between atoms: O_3  and  C_20
REMARK    3  A    between atoms: O_6  and  C_32
REMARK    4  A    between atoms: N_8  and  C_26
REMARK    5  A    between atoms: C_10  and  C_18
REMARK    6  A    between atoms: C_12  and  C_20
REMARK    7  A    between atoms: C_12  and  C_21
REMARK    8  A    between atoms: C_13  and  C_23
REMARK    9  A    between atoms: C_23  and  C_24
REMARK   10  A    between atoms: C_27  and  C_28
REMARK   11  A    between atoms: C_28  and  C_31
REMARK   12  A    between atoms: C_31  and  C_34
REMARK   13  A    between atoms: C_34  and  C_36
REMARK   14  A    between atoms: C_36  and  C_37
REMARK                            x       y       z     vdW  Elec       q    Type
REMARK                         _______ _______ _______ _____ _____    ______ ____
ROOT
ATOM      1  S   UNL     1      10.405   8.308  -1.160  0.00  0.00    -0.057 S 
ATOM      5  O   UNL     1       7.658   8.775   2.576  0.00  0.00    -0.275 OA
ATOM      7  N   UNL     1      10.002   7.513   1.269  0.00  0.00    -0.229 NA
ATOM      9  N   UNL     1       8.458   9.141   0.387  0.00  0.00    -0.265 N 
ATOM     10  C   UNL     1      12.836   4.949   0.762  0.00  0.00    -0.019 C 
ATOM     11  C   UNL     1      13.615   5.894  -0.256  0.00  0.00    +0.011 C 
ATOM     12  C   UNL     1      14.900   5.296  -0.948  0.00  0.00    +0.021 C 
ATOM     13  C   UNL     1      11.875   5.866   1.648  0.00  0.00    +0.054 C 
ATOM     14  C   UNL     1      13.855   4.255   1.703  0.00  0.00    +0.010 C 
ATOM     15  C   UNL     1      15.784   4.600   0.126  0.00  0.00    +0.123 C 
ATOM     16  C   UNL     1      12.638   6.591  -1.246  0.00  0.00    +0.049 C 
ATOM     17  C   UNL     1      15.017   3.594   0.975  0.00  0.00    +0.032 C 
ATOM     18  C   UNL     1      11.997   3.860   0.049  0.00  0.00    +0.012 C 
ATOM     19  C   UNL     1      11.110   6.840   0.788  0.00  0.00    +0.058 A 
ATOM     21  C   UNL     1      15.738   6.457  -1.553  0.00  0.00    +0.016 C 
ATOM     22  C   UNL     1      11.479   7.163  -0.501  0.00  0.00    +0.015 A 
ATOM     25  C   UNL     1       9.544   8.307   0.326  0.00  0.00    +0.165 A 
ATOM     27  C   UNL     1       7.593   9.326   1.483  0.00  0.00    +0.219 C 
ATOM     41  H   UNL     1       8.277   9.673  -0.460  0.00  0.00    +0.157 HD
ENDROOT
BRANCH  15   2
ATOM      2  O   UNL     1      16.890   3.937  -0.485  0.00  0.00    -0.391 OA
ATOM     38  H   UNL     1      17.695   4.189  -0.004  0.00  0.00    +0.210 HD
ENDBRANCH  15   2
BRANCH  12  20
ATOM     20  C   UNL     1      14.608   4.338  -2.125  0.00  0.00    +0.165 C 
BRANCH  20   3
ATOM      3  O   UNL     1      15.603   4.540  -3.103  0.00  0.00    -0.394 OA
ATOM     39  H   UNL     1      15.288   4.155  -3.938  0.00  0.00    +0.209 HD
ENDBRANCH  20   3
ENDBRANCH  12  20
BRANCH  13  23
ATOM     23  C   UNL     1      10.941   5.090   2.587  0.00  0.00    +0.106 C 
BRANCH  23  24
ATOM      4  O   UNL     1      11.810   6.459   4.370  0.00  0.00    -0.275 OA
ATOM      8  N   UNL     1      10.045   4.966   4.791  0.00  0.00    -0.285 N 
ATOM     24  C   UNL     1      11.006   5.604   4.011  0.00  0.00    +0.218 C 
ATOM     40  H   UNL     1       9.457   4.268   4.343  0.00  0.00    +0.155 HD
BRANCH   8  26
ATOM     26  C   UNL     1       9.782   5.163   6.168  0.00  0.00    +0.037 A 
ATOM     29  C   UNL     1       9.340   6.401   6.603  0.00  0.00    +0.068 A 
ATOM     30  C   UNL     1       9.973   4.113   7.050  0.00  0.00    +0.023 A 
ATOM     32  C   UNL     1       9.080   6.594   7.960  0.00  0.00    +0.119 A 
ATOM     33  C   UNL     1       9.714   4.307   8.407  0.00  0.00    +0.005 A 
ATOM     35  C   UNL     1       9.268   5.547   8.862  0.00  0.00    +0.045 A 
BRANCH  32   6
ATOM      6  O   UNL     1       8.644   7.805   8.404  0.00  0.00    -0.507 OA
ATOM     42  H   UNL     1       8.745   8.457   7.690  0.00  0.00    +0.292 HD
ENDBRANCH  32   6
ENDBRANCH   8  26
ENDBRANCH  23  24
ENDBRANCH  13  23
BRANCH  27  28
ATOM     28  C   UNL     1       6.506  10.342   1.159  0.00  0.00    +0.096 C 
BRANCH  28  31
ATOM     31  C   UNL     1       5.111   9.855   1.548  0.00  0.00    +0.009 C 
BRANCH  31  34
ATOM     34  C   UNL     1       4.427   9.138   0.384  0.00  0.00    +0.000 C 
BRANCH  34  36
ATOM     36  C   UNL     1       3.633  10.115  -0.483  0.00  0.00    -0.003 C 
ATOM     37  C   UNL     1       2.243  10.359   0.083  0.00  0.00    +0.004 C 
ENDBRANCH  34  36
ENDBRANCH  31  34
ENDBRANCH  28  31
ENDBRANCH  27  28
TORSDOF 11
ENDMDL
MODEL 7
REMARK VINA RESULT:      -6.4     21.072     25.557
REMARK  Name = 11885092
REMARK  14 active torsions:
REMARK  status: ('A' for Active; 'I' for Inactive)
REMARK    1  A    between atoms: O_2  and  C_15
REMARK    2  A    between atoms: O_3  and  C_20
REMARK    3  A    between atoms: O_6  and  C_32
REMARK    4  A    between atoms: N_8  and  C_26
REMARK    5  A    between atoms: C_10  and  C_18
REMARK    6  A    between atoms: C_12  and  C_20
REMARK    7  A    between atoms: C_12  and  C_21
REMARK    8  A    between atoms: C_13  and  C_23
REMARK    9  A    between atoms: C_23  and  C_24
REMARK   10  A    between atoms: C_27  and  C_28
REMARK   11  A    between atoms: C_28  and  C_31
REMARK   12  A    between atoms: C_31  and  C_34
REMARK   13  A    between atoms: C_34  and  C_36
REMARK   14  A    between atoms: C_36  and  C_37
REMARK                            x       y       z     vdW  Elec       q    Type
REMARK                         _______ _______ _______ _____ _____    ______ ____
ROOT
ATOM      1  S   UNL     1      -4.247  12.809  33.984  0.00  0.00    -0.057 S 
ATOM      5  O   UNL     1      -0.043  11.533  35.538  0.00  0.00    -0.275 OA
ATOM      7  N   UNL     1      -2.994  11.244  35.617  0.00  0.00    -0.229 NA
ATOM      9  N   UNL     1      -1.642  12.712  34.265  0.00  0.00    -0.265 N 
ATOM     10  C   UNL     1      -6.423  10.163  37.009  0.00  0.00    -0.019 C 
ATOM     11  C   UNL     1      -7.148  10.380  35.607  0.00  0.00    +0.011 C 
ATOM     12  C   UNL     1      -8.713  10.191  35.574  0.00  0.00    +0.021 C 
ATOM     13  C   UNL     1      -4.862   9.967  36.731  0.00  0.00    +0.054 C 
ATOM     14  C   UNL     1      -6.968   8.873  37.676  0.00  0.00    +0.010 C 
ATOM     15  C   UNL     1      -9.088   8.882  36.324  0.00  0.00    +0.123 C 
ATOM     16  C   UNL     1      -6.659  11.681  34.909  0.00  0.00    +0.049 C 
ATOM     17  C   UNL     1      -8.487   8.795  37.721  0.00  0.00    +0.032 C 
ATOM     18  C   UNL     1      -6.628  11.350  37.982  0.00  0.00    +0.012 C 
ATOM     19  C   UNL     1      -4.347  11.007  35.770  0.00  0.00    +0.058 A 
ATOM     21  C   UNL     1      -9.174  10.028  34.098  0.00  0.00    +0.016 C 
ATOM     22  C   UNL     1      -5.169  11.753  34.950  0.00  0.00    +0.015 A 
ATOM     25  C   UNL     1      -2.824  12.179  34.708  0.00  0.00    +0.165 A 
ATOM     27  C   UNL     1      -0.345  12.369  34.693  0.00  0.00    +0.219 C 
ATOM     41  H   UNL     1      -1.736  13.430  33.551  0.00  0.00    +0.157 HD
ENDROOT
BRANCH  15   2
ATOM      2  O   UNL     1     -10.506   8.748  36.424  0.00  0.00    -0.391 OA
ATOM     38  H   UNL     1     -10.729   8.606  37.359  0.00  0.00    +0.210 HD
ENDBRANCH  15   2
BRANCH  12  20
ATOM     20  C   UNL     1      -9.515  11.391  36.128  0.00  0.00    +0.165 C 
BRANCH  20   3
ATOM      3  O   UNL     1     -10.776  11.395  35.499  0.00  0.00    -0.394 OA
ATOM     39  H   UNL     1     -11.381  11.932  36.037  0.00  0.00    +0.209 HD
ENDBRANCH  20   3
ENDBRANCH  12  20
BRANCH  13  23
ATOM     23  C   UNL     1      -3.994   9.889  37.994  0.00  0.00    +0.106 C 
BRANCH  23  24
ATOM      4  O   UNL     1      -2.859   8.017  36.987  0.00  0.00    -0.275 OA
ATOM      8  N   UNL     1      -2.640   8.420  39.291  0.00  0.00    -0.285 N 
ATOM     24  C   UNL     1      -3.103   8.664  38.002  0.00  0.00    +0.218 C 
ATOM     40  H   UNL     1      -2.944   9.049  40.031  0.00  0.00    +0.155 HD
BRANCH   8  26
ATOM     26  C   UNL     1      -1.786   7.376  39.719  0.00  0.00    +0.037 A 
ATOM     29  C   UNL     1      -0.456   7.655  39.988  0.00  0.00    +0.068 A 
ATOM     30  C   UNL     1      -2.297   6.097  39.858  0.00  0.00    +0.023 A 
ATOM     32  C   UNL     1       0.385   6.625  40.410  0.00  0.00    +0.119 A 
ATOM     33  C   UNL     1      -1.456   5.068  40.280  0.00  0.00    +0.005 A 
ATOM     35  C   UNL     1      -0.115   5.331  40.555  0.00  0.00    +0.045 A 
BRANCH  32   6
ATOM      6  O   UNL     1       1.694   6.883  40.679  0.00  0.00    -0.507 OA
ATOM     42  H   UNL     1       1.993   7.618  40.116  0.00  0.00    +0.292 HD
ENDBRANCH  32   6
ENDBRANCH   8  26
ENDBRANCH  23  24
ENDBRANCH  13  23
BRANCH  27  28
ATOM     28  C   UNL     1       0.709  13.186  33.958  0.00  0.00    +0.096 C 
BRANCH  28  31
ATOM     31  C   UNL     1       0.100  14.211  33.004  0.00  0.00    +0.009 C 
BRANCH  31  34
ATOM     34  C   UNL     1       1.108  14.651  31.942  0.00  0.00    +0.000 C 
BRANCH  34  36
ATOM     36  C   UNL     1       1.374  13.535  30.931  0.00  0.00    -0.003 C 
ATOM     37  C   UNL     1       2.387  13.964  29.882  0.00  0.00    +0.004 C 
ENDBRANCH  34  36
ENDBRANCH  31  34
ENDBRANCH  28  31
ENDBRANCH  27  28
TORSDOF 11
ENDMDL
MODEL 8
REMARK VINA RESULT:      -6.4     28.243     31.977
REMARK  Name = 11885092
REMARK  14 active torsions:
REMARK  status: ('A' for Active; 'I' for Inactive)
REMARK    1  A    between atoms: O_2  and  C_15
REMARK    2  A    between atoms: O_3  and  C_20
REMARK    3  A    between atoms: O_6  and  C_32
REMARK    4  A    between atoms: N_8  and  C_26
REMARK    5  A    between atoms: C_10  and  C_18
REMARK    6  A    between atoms: C_12  and  C_20
REMARK    7  A    between atoms: C_12  and  C_21
REMARK    8  A    between atoms: C_13  and  C_23
REMARK    9  A    between atoms: C_23  and  C_24
REMARK   10  A    between atoms: C_27  and  C_28
REMARK   11  A    between atoms: C_28  and  C_31
REMARK   12  A    between atoms: C_31  and  C_34
REMARK   13  A    between atoms: C_34  and  C_36
REMARK   14  A    between atoms: C_36  and  C_37
REMARK                            x       y       z     vdW  Elec       q    Type
REMARK                         _______ _______ _______ _____ _____    ______ ____
ROOT
ATOM      1  S   UNL     1     -10.280  -9.840  13.183  0.00  0.00    -0.057 S 
ATOM      5  O   UNL     1      -5.665  -9.740  12.539  0.00  0.00    -0.275 OA
ATOM      7  N   UNL     1      -7.987  -9.954  14.373  0.00  0.00    -0.229 NA
ATOM      9  N   UNL     1      -7.956  -9.692  11.977  0.00  0.00    -0.265 N 
ATOM     10  C   UNL     1      -9.875  -9.927  17.734  0.00  0.00    -0.019 C 
ATOM     11  C   UNL     1     -11.136 -10.681  17.121  0.00  0.00    +0.011 C 
ATOM     12  C   UNL     1     -12.386 -10.870  18.065  0.00  0.00    +0.021 C 
ATOM     13  C   UNL     1      -8.616 -10.232  16.800  0.00  0.00    +0.054 C 
ATOM     14  C   UNL     1      -9.580 -10.484  19.151  0.00  0.00    +0.010 C 
ATOM     15  C   UNL     1     -11.908 -11.387  19.451  0.00  0.00    +0.123 C 
ATOM     16  C   UNL     1     -11.494 -10.136  15.709  0.00  0.00    +0.049 C 
ATOM     17  C   UNL     1     -10.800 -10.537  20.060  0.00  0.00    +0.032 C 
ATOM     18  C   UNL     1     -10.082  -8.395  17.836  0.00  0.00    +0.012 C 
ATOM     19  C   UNL     1      -8.965 -10.056  15.344  0.00  0.00    +0.058 A 
ATOM     21  C   UNL     1     -13.318 -11.959  17.461  0.00  0.00    +0.016 C 
ATOM     22  C   UNL     1     -10.262 -10.032  14.874  0.00  0.00    +0.015 A 
ATOM     25  C   UNL     1      -8.563  -9.828  13.197  0.00  0.00    +0.165 A 
ATOM     27  C   UNL     1      -6.572  -9.655  11.718  0.00  0.00    +0.219 C 
ATOM     41  H   UNL     1      -8.593  -9.610  11.188  0.00  0.00    +0.157 HD
ENDROOT
BRANCH  15   2
ATOM      2  O   UNL     1     -13.000 -11.446  20.370  0.00  0.00    -0.391 OA
ATOM     38  H   UNL     1     -12.896 -12.246  20.909  0.00  0.00    +0.210 HD
ENDBRANCH  15   2
BRANCH  12  20
ATOM     20  C   UNL     1     -13.267  -9.610  18.221  0.00  0.00    +0.165 C 
BRANCH  20   3
ATOM      3  O   UNL     1     -14.583 -10.036  18.494  0.00  0.00    -0.394 OA
ATOM     39  H   UNL     1     -14.699 -10.922  18.112  0.00  0.00    +0.209 HD
ENDBRANCH  20   3
ENDBRANCH  12  20
BRANCH  13  23
ATOM     23  C   UNL     1      -7.344  -9.459  17.171  0.00  0.00    +0.106 C 
BRANCH  23  24
ATOM      4  O   UNL     1      -5.808 -11.067  18.100  0.00  0.00    -0.275 OA
ATOM      8  N   UNL     1      -5.432 -10.190  15.953  0.00  0.00    -0.285 N 
ATOM     24  C   UNL     1      -6.112 -10.343  17.157  0.00  0.00    +0.218 C 
ATOM     40  H   UNL     1      -5.812  -9.537  15.272  0.00  0.00    +0.155 HD
BRANCH   8  26
ATOM     26  C   UNL     1      -4.240 -10.837  15.548  0.00  0.00    +0.037 A 
ATOM     29  C   UNL     1      -3.021 -10.351  15.991  0.00  0.00    +0.068 A 
ATOM     30  C   UNL     1      -4.317 -11.942  14.718  0.00  0.00    +0.023 A 
ATOM     32  C   UNL     1      -1.846 -10.989  15.592  0.00  0.00    +0.119 A 
ATOM     33  C   UNL     1      -3.143 -12.580  14.319  0.00  0.00    +0.005 A 
ATOM     35  C   UNL     1      -1.907 -12.103  14.756  0.00  0.00    +0.045 A 
BRANCH  32   6
ATOM      6  O   UNL     1      -0.640 -10.523  16.019  0.00  0.00    -0.507 OA
ATOM     42  H   UNL     1      -0.217 -11.203  16.572  0.00  0.00    +0.292 HD
ENDBRANCH  32   6
ENDBRANCH   8  26
ENDBRANCH  23  24
ENDBRANCH  13  23
BRANCH  27  28
ATOM     28  C   UNL     1      -6.296  -9.494  10.230  0.00  0.00    +0.096 C 
BRANCH  28  31
ATOM     31  C   UNL     1      -4.910  -9.995   9.830  0.00  0.00    +0.009 C 
BRANCH  31  34
ATOM     34  C   UNL     1      -3.899  -8.850   9.773  0.00  0.00    +0.000 C 
BRANCH  34  36
ATOM     36  C   UNL     1      -2.557  -9.261  10.378  0.00  0.00    -0.003 C 
ATOM     37  C   UNL     1      -2.711 -10.440  11.325  0.00  0.00    +0.004 C 
ENDBRANCH  34  36
ENDBRANCH  31  34
ENDBRANCH  28  31
ENDBRANCH  27  28
TORSDOF 11
ENDMDL
MODEL 9
REMARK VINA RESULT:      -6.2     30.948     33.459
REMARK  Name = 11885092
REMARK  14 active torsions:
REMARK  status: ('A' for Active; 'I' for Inactive)
REMARK    1  A    between atoms: O_2  and  C_15
REMARK    2  A    between atoms: O_3  and  C_20
REMARK    3  A    between atoms: O_6  and  C_32
REMARK    4  A    between atoms: N_8  and  C_26
REMARK    5  A    between atoms: C_10  and  C_18
REMARK    6  A    between atoms: C_12  and  C_20
REMARK    7  A    between atoms: C_12  and  C_21
REMARK    8  A    between atoms: C_13  and  C_23
REMARK    9  A    between atoms: C_23  and  C_24
REMARK   10  A    between atoms: C_27  and  C_28
REMARK   11  A    between atoms: C_28  and  C_31
REMARK   12  A    between atoms: C_31  and  C_34
REMARK   13  A    between atoms: C_34  and  C_36
REMARK   14  A    between atoms: C_36  and  C_37
REMARK                            x       y       z     vdW  Elec       q    Type
REMARK                         _______ _______ _______ _____ _____    ______ ____
ROOT
ATOM      1  S   UNL     1      -8.266 -10.762  12.430  0.00  0.00    -0.057 S 
ATOM      5  O   UNL     1     -11.645  -7.930  10.918  0.00  0.00    -0.275 OA
ATOM      7  N   UNL     1     -10.242  -9.263  13.166  0.00  0.00    -0.229 NA
ATOM      9  N   UNL     1      -9.796  -9.391  10.800  0.00  0.00    -0.265 N 
ATOM     10  C   UNL     1      -9.709 -10.548  16.762  0.00  0.00    -0.019 C 
ATOM     11  C   UNL     1      -8.142 -10.737  16.545  0.00  0.00    +0.011 C 
ATOM     12  C   UNL     1      -7.331 -11.396  17.726  0.00  0.00    +0.021 C 
ATOM     13  C   UNL     1     -10.232  -9.498  15.677  0.00  0.00    +0.054 C 
ATOM     14  C   UNL     1      -9.967  -9.962  18.174  0.00  0.00    +0.010 C 
ATOM     15  C   UNL     1      -7.744 -10.727  19.068  0.00  0.00    +0.123 C 
ATOM     16  C   UNL     1      -7.831 -11.353  15.151  0.00  0.00    +0.049 C 
ATOM     17  C   UNL     1      -9.251 -10.707  19.292  0.00  0.00    +0.032 C 
ATOM     18  C   UNL     1     -10.499 -11.872  16.621  0.00  0.00    +0.012 C 
ATOM     19  C   UNL     1      -9.695  -9.820  14.306  0.00  0.00    +0.058 A 
ATOM     21  C   UNL     1      -5.815 -11.119  17.518  0.00  0.00    +0.016 C 
ATOM     22  C   UNL     1      -8.606 -10.641  14.094  0.00  0.00    +0.015 A 
ATOM     25  C   UNL     1      -9.574  -9.695  12.118  0.00  0.00    +0.165 A 
ATOM     27  C   UNL     1     -10.796  -8.545  10.282  0.00  0.00    +0.219 C 
ATOM     41  H   UNL     1      -9.159  -9.836  10.145  0.00  0.00    +0.157 HD
ENDROOT
BRANCH  15   2
ATOM      2  O   UNL     1      -7.124 -11.388  20.171  0.00  0.00    -0.391 OA
ATOM     38  H   UNL     1      -7.500 -11.025  20.989  0.00  0.00    +0.210 HD
ENDBRANCH  15   2
BRANCH  12  20
ATOM     20  C   UNL     1      -7.463 -12.934  17.815  0.00  0.00    +0.165 C 
BRANCH  20   3
ATOM      3  O   UNL     1      -6.196 -13.457  18.144  0.00  0.00    -0.394 OA
ATOM     39  H   UNL     1      -6.312 -14.096  18.868  0.00  0.00    +0.209 HD
ENDBRANCH  20   3
ENDBRANCH  12  20
BRANCH  13  23
ATOM     23  C   UNL     1     -11.755  -9.311  15.654  0.00  0.00    +0.106 C 
BRANCH  23  24
ATOM      4  O   UNL     1     -11.978  -7.061  16.489  0.00  0.00    -0.275 OA
ATOM      8  N   UNL     1     -12.712  -7.585  14.319  0.00  0.00    -0.285 N 
ATOM     24  C   UNL     1     -12.151  -7.850  15.565  0.00  0.00    +0.218 C 
ATOM     40  H   UNL     1     -12.794  -8.357  13.662  0.00  0.00    +0.155 HD
BRANCH   8  26
ATOM     26  C   UNL     1     -13.207  -6.348  13.841  0.00  0.00    +0.037 A 
ATOM     29  C   UNL     1     -12.315  -5.329  13.552  0.00  0.00    +0.068 A 
ATOM     30  C   UNL     1     -14.571  -6.184  13.674  0.00  0.00    +0.023 A 
ATOM     32  C   UNL     1     -12.803  -4.110  13.080  0.00  0.00    +0.119 A 
ATOM     33  C   UNL     1     -15.058  -4.965  13.203  0.00  0.00    +0.005 A 
ATOM     35  C   UNL     1     -14.175  -3.928  12.906  0.00  0.00    +0.045 A 
BRANCH  32   6
ATOM      6  O   UNL     1     -11.940  -3.098  12.790  0.00  0.00    -0.507 OA
ATOM     42  H   UNL     1     -12.354  -2.508  12.136  0.00  0.00    +0.292 HD
ENDBRANCH  32   6
ENDBRANCH   8  26
ENDBRANCH  23  24
ENDBRANCH  13  23
BRANCH  27  28
ATOM     28  C   UNL     1     -10.713  -8.463   8.764  0.00  0.00    +0.096 C 
BRANCH  28  31
ATOM     31  C   UNL     1     -10.780  -7.026   8.248  0.00  0.00    +0.009 C 
BRANCH  31  34
ATOM     34  C   UNL     1      -9.541  -6.230   8.655  0.00  0.00    +0.000 C 
BRANCH  34  36
ATOM     36  C   UNL     1      -9.846  -4.735   8.748  0.00  0.00    -0.003 C 
ATOM     37  C   UNL     1     -11.158  -4.478   9.472  0.00  0.00    +0.004 C 
ENDBRANCH  34  36
ENDBRANCH  31  34
ENDBRANCH  28  31
ENDBRANCH  27  28
TORSDOF 11
ENDMDL
MODEL 10
REMARK VINA RESULT:      -6.2      5.047     10.055
REMARK  Name = 11885092
REMARK  14 active torsions:
REMARK  status: ('A' for Active; 'I' for Inactive)
REMARK    1  A    between atoms: O_2  and  C_15
REMARK    2  A    between atoms: O_3  and  C_20
REMARK    3  A    between atoms: O_6  and  C_32
REMARK    4  A    between atoms: N_8  and  C_26
REMARK    5  A    between atoms: C_10  and  C_18
REMARK    6  A    between atoms: C_12  and  C_20
REMARK    7  A    between atoms: C_12  and  C_21
REMARK    8  A    between atoms: C_13  and  C_23
REMARK    9  A    between atoms: C_23  and  C_24
REMARK   10  A    between atoms: C_27  and  C_28
REMARK   11  A    between atoms: C_28  and  C_31
REMARK   12  A    between atoms: C_31  and  C_34
REMARK   13  A    between atoms: C_34  and  C_36
REMARK   14  A    between atoms: C_36  and  C_37
REMARK                            x       y       z     vdW  Elec       q    Type
REMARK                         _______ _______ _______ _____ _____    ______ ____
ROOT
ATOM      1  S   UNL     1      23.355   3.484  26.569  0.00  0.00    -0.057 S 
ATOM      5  O   UNL     1      20.028   6.475  27.874  0.00  0.00    -0.275 OA
ATOM      7  N   UNL     1      21.748   5.335  25.744  0.00  0.00    -0.229 NA
ATOM      9  N   UNL     1      21.654   4.779  28.087  0.00  0.00    -0.265 N 
ATOM     10  C   UNL     1      23.481   5.127  22.306  0.00  0.00    -0.019 C 
ATOM     11  C   UNL     1      23.811   3.578  22.478  0.00  0.00    +0.011 C 
ATOM     12  C   UNL     1      24.682   2.902  21.351  0.00  0.00    +0.021 C 
ATOM     13  C   UNL     1      22.266   5.483  23.279  0.00  0.00    +0.054 C 
ATOM     14  C   UNL     1      23.036   5.400  20.846  0.00  0.00    +0.010 C 
ATOM     15  C   UNL     1      24.129   3.316  19.957  0.00  0.00    +0.123 C 
ATOM     16  C   UNL     1      24.294   3.257  23.921  0.00  0.00    +0.049 C 
ATOM     17  C   UNL     1      23.975   4.823  19.796  0.00  0.00    +0.032 C 
ATOM     18  C   UNL     1      24.690   6.038  22.635  0.00  0.00    +0.012 C 
ATOM     19  C   UNL     1      22.486   4.909  24.655  0.00  0.00    +0.058 A 
ATOM     21  C   UNL     1      24.546   1.357  21.462  0.00  0.00    +0.016 C 
ATOM     22  C   UNL     1      23.389   3.899  24.918  0.00  0.00    +0.015 A 
ATOM     25  C   UNL     1      22.127   4.659  26.807  0.00  0.00    +0.165 A 
ATOM     27  C   UNL     1      20.653   5.659  28.542  0.00  0.00    +0.219 C 
ATOM     41  H   UNL     1      22.086   4.155  28.764  0.00  0.00    +0.157 HD
ENDROOT
BRANCH  15   2
ATOM      2  O   UNL     1      24.973   2.826  18.915  0.00  0.00    -0.391 OA
ATOM     38  H   UNL     1      24.439   2.748  18.108  0.00  0.00    +0.210 HD
ENDBRANCH  15   2
BRANCH  12  20
ATOM     20  C   UNL     1      26.197   3.193  21.450  0.00  0.00    +0.165 C 
BRANCH  20   3
ATOM      3  O   UNL     1      26.851   1.979  21.741  0.00  0.00    -0.394 OA
ATOM     39  H   UNL     1      27.621   1.902  21.154  0.00  0.00    +0.209 HD
ENDBRANCH  20   3
ENDBRANCH  12  20
BRANCH  13  23
ATOM     23  C   UNL     1      21.917   6.977  23.343  0.00  0.00    +0.106 C 
BRANCH  23  24
ATOM      4  O   UNL     1      21.205   8.348  21.493  0.00  0.00    -0.275 OA
ATOM      8  N   UNL     1      19.875   6.543  22.195  0.00  0.00    -0.285 N 
ATOM     24  C   UNL     1      20.977   7.392  22.229  0.00  0.00    +0.218 C 
ATOM     40  H   UNL     1      19.829   5.797  22.885  0.00  0.00    +0.155 HD
BRANCH   8  26
ATOM     26  C   UNL     1      18.775   6.592  21.306  0.00  0.00    +0.037 A 
ATOM     29  C   UNL     1      18.820   5.860  20.131  0.00  0.00    +0.068 A 
ATOM     30  C   UNL     1      17.677   7.371  21.629  0.00  0.00    +0.023 A 
ATOM     32  C   UNL     1      17.735   5.908  19.255  0.00  0.00    +0.119 A 
ATOM     33  C   UNL     1      16.592   7.419  20.754  0.00  0.00    +0.005 A 
ATOM     35  C   UNL     1      16.621   6.689  19.567  0.00  0.00    +0.045 A 
BRANCH  32   6
ATOM      6  O   UNL     1      17.763   5.195  18.096  0.00  0.00    -0.507 OA
ATOM     42  H   UNL     1      18.690   5.047  17.840  0.00  0.00    +0.292 HD
ENDBRANCH  32   6
ENDBRANCH   8  26
ENDBRANCH  23  24
ENDBRANCH  13  23
BRANCH  27  28
ATOM     28  C   UNL     1      20.408   5.487  30.035  0.00  0.00    +0.096 C 
BRANCH  28  31
ATOM     31  C   UNL     1      19.524   6.588  30.617  0.00  0.00    +0.009 C 
BRANCH  31  34
ATOM     34  C   UNL     1      18.555   6.030  31.661  0.00  0.00    +0.000 C 
BRANCH  34  36
ATOM     36  C   UNL     1      17.211   5.665  31.032  0.00  0.00    -0.003 C 
ATOM     37  C   UNL     1      16.714   4.315  31.525  0.00  0.00    +0.004 C 
ENDBRANCH  34  36
ENDBRANCH  31  34
ENDBRANCH  28  31
ENDBRANCH  27  28
TORSDOF 11
ENDMDL
