MODEL 1
REMARK VINA RESULT:      -6.8      0.000      0.000
REMARK  Name = 11883006
REMARK  14 active torsions:
REMARK  status: ('A' for Active; 'I' for Inactive)
REMARK    1  A    between atoms: O_2  and  C_14
REMARK    2  A    between atoms: O_3  and  C_19
REMARK    3  A    between atoms: N_7  and  C_25
REMARK    4  A    between atoms: N_7  and  C_26
REMARK    5  A    between atoms: C_9  and  C_17
REMARK    6  A    between atoms: C_11  and  C_19
REMARK    7  A    between atoms: C_11  and  C_20
REMARK    8  A    between atoms: C_12  and  C_22
REMARK    9  A    between atoms: C_22  and  C_23
REMARK   10  A    between atoms: C_25  and  C_29
REMARK   11  A    between atoms: C_27  and  C_28
REMARK   12  A    between atoms: C_28  and  C_30
REMARK   13  A    between atoms: C_28  and  C_31
REMARK   14  A    between atoms: C_28  and  C_32
REMARK                            x       y       z     vdW  Elec       q    Type
REMARK                         _______ _______ _______ _____ _____    ______ ____
ROOT
ATOM      1  S   UNL     1      18.018   6.203  20.063  0.00  0.00    -0.057 S 
ATOM      5  O   UNL     1      20.851   8.522  22.916  0.00  0.00    -0.275 OA
ATOM      6  N   UNL     1      18.226   8.263  21.615  0.00  0.00    -0.229 NA
ATOM      8  N   UNL     1      20.164   6.843  21.428  0.00  0.00    -0.264 N 
ATOM      9  C   UNL     1      14.739   9.370  20.398  0.00  0.00    -0.019 C 
ATOM     10  C   UNL     1      14.253   7.870  20.174  0.00  0.00    +0.011 C 
ATOM     11  C   UNL     1      12.831   7.667  19.524  0.00  0.00    +0.021 C 
ATOM     12  C   UNL     1      15.954   9.347  21.434  0.00  0.00    +0.054 C 
ATOM     13  C   UNL     1      13.584  10.198  21.018  0.00  0.00    +0.010 C 
ATOM     14  C   UNL     1      11.807   8.600  20.230  0.00  0.00    +0.123 C 
ATOM     15  C   UNL     1      15.371   7.003  19.522  0.00  0.00    +0.049 C 
ATOM     16  C   UNL     1      12.259  10.056  20.283  0.00  0.00    +0.032 C 
ATOM     17  C   UNL     1      15.194  10.057  19.086  0.00  0.00    +0.012 C 
ATOM     18  C   UNL     1      16.954   8.278  21.072  0.00  0.00    +0.058 A 
ATOM     20  C   UNL     1      12.367   6.203  19.768  0.00  0.00    +0.016 C 
ATOM     21  C   UNL     1      16.665   7.226  20.226  0.00  0.00    +0.015 A 
ATOM     24  C   UNL     1      18.877   7.220  21.149  0.00  0.00    +0.165 A 
ATOM     27  C   UNL     1      21.076   7.494  22.281  0.00  0.00    +0.224 C 
ATOM     40  H   UNL     1      20.463   5.996  20.953  0.00  0.00    +0.157 HD
ENDROOT
BRANCH  27  28
ATOM     28  C   UNL     1      22.458   6.796  22.369  0.00  0.00    +0.039 C 
ATOM     30  C   UNL     1      22.985   6.523  20.948  0.00  0.00    +0.020 C 
ATOM     31  C   UNL     1      22.327   5.453  23.103  0.00  0.00    +0.020 C 
ATOM     32  C   UNL     1      23.464   7.702  23.094  0.00  0.00    +0.020 C 
ENDBRANCH  27  28
BRANCH  14   2
ATOM      2  O   UNL     1      10.537   8.537  19.582  0.00  0.00    -0.391 OA
ATOM     38  H   UNL     1      10.622   7.929  18.828  0.00  0.00    +0.210 HD
ENDBRANCH  14   2
BRANCH  11  19
ATOM     19  C   UNL     1      12.792   7.865  17.992  0.00  0.00    +0.165 C 
BRANCH  19   3
ATOM      3  O   UNL     1      11.856   6.953  17.464  0.00  0.00    -0.394 OA
ATOM     39  H   UNL     1      12.254   6.067  17.512  0.00  0.00    +0.209 HD
ENDBRANCH  19   3
ENDBRANCH  11  19
BRANCH  12  22
ATOM     22  C   UNL     1      16.636  10.703  21.649  0.00  0.00    +0.106 C 
BRANCH  22  23
ATOM      4  O   UNL     1      15.419  11.261  23.638  0.00  0.00    -0.276 OA
ATOM      7  N   UNL     1      15.545  12.891  21.993  0.00  0.00    -0.300 N 
ATOM     23  C   UNL     1      15.813  11.627  22.527  0.00  0.00    +0.216 C 
ATOM     26  C   UNL     1      16.020  13.301  20.677  0.00  0.00    +0.132 C 
BRANCH   7  25
ATOM     25  C   UNL     1      14.766  13.896  22.713  0.00  0.00    +0.142 C 
BRANCH  25  29
ATOM     29  C   UNL     1      13.289  13.669  22.574  0.00  0.00    -0.030 A 
ATOM     33  C   UNL     1      12.540  13.257  23.676  0.00  0.00    +0.005 A 
ATOM     34  C   UNL     1      12.665  13.871  21.343  0.00  0.00    +0.005 A 
ATOM     35  C   UNL     1      11.167  13.046  23.547  0.00  0.00    +0.000 A 
ATOM     36  C   UNL     1      11.292  13.661  21.214  0.00  0.00    +0.000 A 
ATOM     37  C   UNL     1      10.543  13.248  22.316  0.00  0.00    +0.000 A 
ENDBRANCH  25  29
ENDBRANCH   7  25
ENDBRANCH  22  23
ENDBRANCH  12  22
TORSDOF 8
ENDMDL
MODEL 2
REMARK VINA RESULT:      -6.5     21.321     25.577
REMARK  Name = 11883006
REMARK  14 active torsions:
REMARK  status: ('A' for Active; 'I' for Inactive)
REMARK    1  A    between atoms: O_2  and  C_14
REMARK    2  A    between atoms: O_3  and  C_19
REMARK    3  A    between atoms: N_7  and  C_25
REMARK    4  A    between atoms: N_7  and  C_26
REMARK    5  A    between atoms: C_9  and  C_17
REMARK    6  A    between atoms: C_11  and  C_19
REMARK    7  A    between atoms: C_11  and  C_20
REMARK    8  A    between atoms: C_12  and  C_22
REMARK    9  A    between atoms: C_22  and  C_23
REMARK   10  A    between atoms: C_25  and  C_29
REMARK   11  A    between atoms: C_27  and  C_28
REMARK   12  A    between atoms: C_28  and  C_30
REMARK   13  A    between atoms: C_28  and  C_31
REMARK   14  A    between atoms: C_28  and  C_32
REMARK                            x       y       z     vdW  Elec       q    Type
REMARK                         _______ _______ _______ _____ _____    ______ ____
ROOT
ATOM      1  S   UNL     1      -4.444  13.264  33.568  0.00  0.00    -0.057 S 
ATOM      5  O   UNL     1      -0.028  12.506  34.774  0.00  0.00    -0.275 OA
ATOM      6  N   UNL     1      -2.885  11.896  35.114  0.00  0.00    -0.229 NA
ATOM      8  N   UNL     1      -1.831  13.468  33.621  0.00  0.00    -0.264 N 
ATOM      9  C   UNL     1      -6.037  10.476  36.821  0.00  0.00    -0.019 C 
ATOM     10  C   UNL     1      -6.899  10.570  35.486  0.00  0.00    +0.011 C 
ATOM     11  C   UNL     1      -8.430  10.207  35.595  0.00  0.00    +0.021 C 
ATOM     12  C   UNL     1      -4.493  10.448  36.411  0.00  0.00    +0.054 C 
ATOM     13  C   UNL     1      -6.371   9.153  37.558  0.00  0.00    +0.010 C 
ATOM     14  C   UNL     1      -8.587   8.885  36.397  0.00  0.00    +0.123 C 
ATOM     15  C   UNL     1      -6.622  11.899  34.724  0.00  0.00    +0.049 C 
ATOM     16  C   UNL     1      -7.861   8.906  37.738  0.00  0.00    +0.032 C 
ATOM     17  C   UNL     1      -6.292  11.660  37.787  0.00  0.00    +0.012 C 
ATOM     18  C   UNL     1      -4.185  11.513  35.389  0.00  0.00    +0.058 A 
ATOM     20  C   UNL     1      -8.993   9.951  34.168  0.00  0.00    +0.016 C 
ATOM     21  C   UNL     1      -5.154  12.138  34.631  0.00  0.00    +0.015 A 
ATOM     24  C   UNL     1      -2.901  12.818  34.176  0.00  0.00    +0.165 A 
ATOM     27  C   UNL     1      -0.469  13.288  33.935  0.00  0.00    +0.224 C 
ATOM     40  H   UNL     1      -2.079  14.146  32.907  0.00  0.00    +0.157 HD
ENDROOT
BRANCH  27  28
ATOM     28  C   UNL     1       0.486  14.191  33.115  0.00  0.00    +0.039 C 
ATOM     30  C   UNL     1       1.284  13.325  32.122  0.00  0.00    +0.020 C 
ATOM     31  C   UNL     1       1.481  14.897  34.049  0.00  0.00    +0.020 C 
ATOM     32  C   UNL     1      -0.319  15.228  32.316  0.00  0.00    +0.020 C 
ENDBRANCH  27  28
BRANCH  14   2
ATOM      2  O   UNL     1      -9.966   8.595  36.626  0.00  0.00    -0.391 OA
ATOM     38  H   UNL     1     -10.288   8.081  35.866  0.00  0.00    +0.210 HD
ENDBRANCH  14   2
BRANCH  11  19
ATOM     19  C   UNL     1      -9.313  11.324  36.195  0.00  0.00    +0.165 C 
BRANCH  19   3
ATOM      3  O   UNL     1     -10.613  11.174  35.673  0.00  0.00    -0.394 OA
ATOM     39  H   UNL     1     -11.004  12.062  35.606  0.00  0.00    +0.209 HD
ENDBRANCH  19   3
ENDBRANCH  11  19
BRANCH  12  22
ATOM     22  C   UNL     1      -3.517  10.505  37.593  0.00  0.00    +0.106 C 
BRANCH  22  23
ATOM      4  O   UNL     1      -2.830   8.298  36.957  0.00  0.00    -0.276 OA
ATOM      7  N   UNL     1      -1.472   9.428  38.460  0.00  0.00    -0.300 N 
ATOM     23  C   UNL     1      -2.590   9.305  37.630  0.00  0.00    +0.216 C 
ATOM     26  C   UNL     1      -1.210  10.628  39.246  0.00  0.00    +0.132 C 
BRANCH   7  25
ATOM     25  C   UNL     1      -0.482   8.363  38.605  0.00  0.00    +0.142 C 
BRANCH  25  29
ATOM     29  C   UNL     1      -1.000   7.224  39.436  0.00  0.00    -0.030 A 
ATOM     33  C   UNL     1      -1.955   7.459  40.425  0.00  0.00    +0.005 A 
ATOM     34  C   UNL     1      -0.525   5.930  39.219  0.00  0.00    +0.005 A 
ATOM     35  C   UNL     1      -2.435   6.402  41.198  0.00  0.00    +0.000 A 
ATOM     36  C   UNL     1      -1.005   4.873  39.990  0.00  0.00    +0.000 A 
ATOM     37  C   UNL     1      -1.960   5.108  40.980  0.00  0.00    +0.000 A 
ENDBRANCH  25  29
ENDBRANCH   7  25
ENDBRANCH  22  23
ENDBRANCH  12  22
TORSDOF 8
ENDMDL
MODEL 3
REMARK VINA RESULT:      -6.4     28.463     32.051
REMARK  Name = 11883006
REMARK  14 active torsions:
REMARK  status: ('A' for Active; 'I' for Inactive)
REMARK    1  A    between atoms: O_2  and  C_14
REMARK    2  A    between atoms: O_3  and  C_19
REMARK    3  A    between atoms: N_7  and  C_25
REMARK    4  A    between atoms: N_7  and  C_26
REMARK    5  A    between atoms: C_9  and  C_17
REMARK    6  A    between atoms: C_11  and  C_19
REMARK    7  A    between atoms: C_11  and  C_20
REMARK    8  A    between atoms: C_12  and  C_22
REMARK    9  A    between atoms: C_22  and  C_23
REMARK   10  A    between atoms: C_25  and  C_29
REMARK   11  A    between atoms: C_27  and  C_28
REMARK   12  A    between atoms: C_28  and  C_30
REMARK   13  A    between atoms: C_28  and  C_31
REMARK   14  A    between atoms: C_28  and  C_32
REMARK                            x       y       z     vdW  Elec       q    Type
REMARK                         _______ _______ _______ _____ _____    ______ ____
ROOT
ATOM      1  S   UNL     1      -7.287 -10.331  11.363  0.00  0.00    -0.057 S 
ATOM      5  O   UNL     1     -11.316  -9.116  13.319  0.00  0.00    -0.275 OA
ATOM      6  N   UNL     1      -8.504  -9.926  13.610  0.00  0.00    -0.229 NA
ATOM      8  N   UNL     1      -9.794  -9.600  11.600  0.00  0.00    -0.264 N 
ATOM      9  C   UNL     1      -5.346 -11.219  15.405  0.00  0.00    -0.019 C 
ATOM     10  C   UNL     1      -4.379 -10.685  14.258  0.00  0.00    +0.011 C 
ATOM     11  C   UNL     1      -2.850 -11.046  14.385  0.00  0.00    +0.021 C 
ATOM     12  C   UNL     1      -6.712 -10.395  15.323  0.00  0.00    +0.054 C 
ATOM     13  C   UNL     1      -4.698 -10.955  16.789  0.00  0.00    +0.010 C 
ATOM     14  C   UNL     1      -2.376 -10.766  15.839  0.00  0.00    +0.123 C 
ATOM     15  C   UNL     1      -4.972 -10.955  12.844  0.00  0.00    +0.049 C 
ATOM     16  C   UNL     1      -3.255 -11.427  16.895  0.00  0.00    +0.032 C 
ATOM     17  C   UNL     1      -5.650 -12.733  15.279  0.00  0.00    +0.012 C 
ATOM     18  C   UNL     1      -7.207 -10.306  13.902  0.00  0.00    +0.058 A 
ATOM     20  C   UNL     1      -2.029 -10.118  13.445  0.00  0.00    +0.016 C 
ATOM     21  C   UNL     1      -6.405 -10.545  12.804  0.00  0.00    +0.015 A 
ATOM     24  C   UNL     1      -8.662  -9.912  12.304  0.00  0.00    +0.165 A 
ATOM     27  C   UNL     1     -11.046  -9.222  12.125  0.00  0.00    +0.224 C 
ATOM     40  H   UNL     1      -9.687  -9.655  10.592  0.00  0.00    +0.157 HD
ENDROOT
BRANCH  27  28
ATOM     28  C   UNL     1     -12.118  -8.939  11.042  0.00  0.00    +0.039 C 
ATOM     30  C   UNL     1     -11.424  -8.588   9.713  0.00  0.00    +0.020 C 
ATOM     31  C   UNL     1     -12.993  -7.747  11.461  0.00  0.00    +0.020 C 
ATOM     32  C   UNL     1     -12.990 -10.185  10.820  0.00  0.00    +0.020 C 
ENDBRANCH  27  28
BRANCH  14   2
ATOM      2  O   UNL     1      -1.030 -11.203  16.023  0.00  0.00    -0.391 OA
ATOM     38  H   UNL     1      -0.878 -11.294  16.979  0.00  0.00    +0.210 HD
ENDBRANCH  14   2
BRANCH  11  19
ATOM     19  C   UNL     1      -2.493 -12.488  13.957  0.00  0.00    +0.165 C 
BRANCH  19   3
ATOM      3  O   UNL     1      -1.393 -12.418  13.080  0.00  0.00    -0.394 OA
ATOM     39  H   UNL     1      -0.606 -12.220  13.616  0.00  0.00    +0.209 HD
ENDBRANCH  19   3
ENDBRANCH  11  19
BRANCH  12  22
ATOM     22  C   UNL     1      -7.813 -10.886  16.271  0.00  0.00    +0.106 C 
BRANCH  22  23
ATOM      4  O   UNL     1      -7.833  -8.828  17.500  0.00  0.00    -0.276 OA
ATOM      7  N   UNL     1      -9.889  -9.808  17.061  0.00  0.00    -0.300 N 
ATOM     23  C   UNL     1      -8.493  -9.744  17.002  0.00  0.00    +0.216 C 
ATOM     26  C   UNL     1     -10.647 -10.900  16.464  0.00  0.00    +0.132 C 
BRANCH   7  25
ATOM     25  C   UNL     1     -10.692  -8.785  17.727  0.00  0.00    +0.142 C 
BRANCH  25  29
ATOM     29  C   UNL     1     -11.318  -7.835  16.747  0.00  0.00    -0.030 A 
ATOM     33  C   UNL     1     -10.543  -6.847  16.140  0.00  0.00    +0.005 A 
ATOM     34  C   UNL     1     -12.675  -7.942  16.442  0.00  0.00    +0.005 A 
ATOM     35  C   UNL     1     -11.125  -5.964  15.230  0.00  0.00    +0.000 A 
ATOM     36  C   UNL     1     -13.257  -7.061  15.531  0.00  0.00    +0.000 A 
ATOM     37  C   UNL     1     -12.482  -6.071  14.925  0.00  0.00    +0.000 A 
ENDBRANCH  25  29
ENDBRANCH   7  25
ENDBRANCH  22  23
ENDBRANCH  12  22
TORSDOF 8
ENDMDL
MODEL 4
REMARK VINA RESULT:      -6.3     16.000     19.774
REMARK  Name = 11883006
REMARK  14 active torsions:
REMARK  status: ('A' for Active; 'I' for Inactive)
REMARK    1  A    between atoms: O_2  and  C_14
REMARK    2  A    between atoms: O_3  and  C_19
REMARK    3  A    between atoms: N_7  and  C_25
REMARK    4  A    between atoms: N_7  and  C_26
REMARK    5  A    between atoms: C_9  and  C_17
REMARK    6  A    between atoms: C_11  and  C_19
REMARK    7  A    between atoms: C_11  and  C_20
REMARK    8  A    between atoms: C_12  and  C_22
REMARK    9  A    between atoms: C_22  and  C_23
REMARK   10  A    between atoms: C_25  and  C_29
REMARK   11  A    between atoms: C_27  and  C_28
REMARK   12  A    between atoms: C_28  and  C_30
REMARK   13  A    between atoms: C_28  and  C_31
REMARK   14  A    between atoms: C_28  and  C_32
REMARK                            x       y       z     vdW  Elec       q    Type
REMARK                         _______ _______ _______ _____ _____    ______ ____
ROOT
ATOM      1  S   UNL     1      14.897   7.814   6.347  0.00  0.00    -0.057 S 
ATOM      5  O   UNL     1      12.473   6.422   2.643  0.00  0.00    -0.275 OA
ATOM      6  N   UNL     1      14.942   7.551   3.774  0.00  0.00    -0.229 NA
ATOM      8  N   UNL     1      12.929   6.857   4.903  0.00  0.00    -0.264 N 
ATOM      9  C   UNL     1      18.343   9.368   3.777  0.00  0.00    -0.019 C 
ATOM     10  C   UNL     1      18.731   8.808   5.216  0.00  0.00    +0.011 C 
ATOM     11  C   UNL     1      20.071   9.339   5.854  0.00  0.00    +0.021 C 
ATOM     12  C   UNL     1      17.235   8.402   3.152  0.00  0.00    +0.054 C 
ATOM     13  C   UNL     1      19.592   9.338   2.858  0.00  0.00    +0.010 C 
ATOM     14  C   UNL     1      21.203   9.283   4.790  0.00  0.00    +0.123 C 
ATOM     15  C   UNL     1      17.515   8.847   6.187  0.00  0.00    +0.049 C 
ATOM     16  C   UNL     1      20.830   9.968   3.479  0.00  0.00    +0.032 C 
ATOM     17  C   UNL     1      17.795  10.817   3.823  0.00  0.00    +0.012 C 
ATOM     18  C   UNL     1      16.154   8.096   4.158  0.00  0.00    +0.058 A 
ATOM     20  C   UNL     1      20.486   8.398   7.020  0.00  0.00    +0.016 C 
ATOM     21  C   UNL     1      16.307   8.286   5.516  0.00  0.00    +0.015 A 
ATOM     24  C   UNL     1      14.199   7.367   4.843  0.00  0.00    +0.165 A 
ATOM     27  C   UNL     1      12.137   6.416   3.825  0.00  0.00    +0.224 C 
ATOM     40  H   UNL     1      12.545   6.805   5.842  0.00  0.00    +0.157 HD
ENDROOT
BRANCH  27  28
ATOM     28  C   UNL     1      10.739   5.897   4.248  0.00  0.00    +0.039 C 
ATOM     30  C   UNL     1      10.553   4.454   3.742  0.00  0.00    +0.020 C 
ATOM     31  C   UNL     1       9.639   6.772   3.627  0.00  0.00    +0.020 C 
ATOM     32  C   UNL     1      10.615   5.894   5.779  0.00  0.00    +0.020 C 
ENDBRANCH  27  28
BRANCH  14   2
ATOM      2  O   UNL     1      22.399   9.877   5.294  0.00  0.00    -0.391 OA
ATOM     38  H   UNL     1      22.208  10.209   6.188  0.00  0.00    +0.210 HD
ENDBRANCH  14   2
BRANCH  11  19
ATOM     19  C   UNL     1      19.970  10.750   6.476  0.00  0.00    +0.165 C 
BRANCH  19   3
ATOM      3  O   UNL     1      20.697  10.742   7.683  0.00  0.00    -0.394 OA
ATOM     39  H   UNL     1      20.066  10.910   8.404  0.00  0.00    +0.209 HD
ENDBRANCH  19   3
ENDBRANCH  11  19
BRANCH  12  22
ATOM     22  C   UNL     1      16.643   8.884   1.822  0.00  0.00    +0.106 C 
BRANCH  22  23
ATOM      4  O   UNL     1      17.487   7.038   0.546  0.00  0.00    -0.276 OA
ATOM      7  N   UNL     1      15.265   7.615   0.213  0.00  0.00    -0.300 N 
ATOM     23  C   UNL     1      16.522   7.762   0.808  0.00  0.00    +0.216 C 
ATOM     26  C   UNL     1      14.140   8.483   0.539  0.00  0.00    +0.132 C 
BRANCH   7  25
ATOM     25  C   UNL     1      14.985   6.582  -0.781  0.00  0.00    +0.142 C 
BRANCH  25  29
ATOM     29  C   UNL     1      14.288   5.396  -0.179  0.00  0.00    -0.030 A 
ATOM     33  C   UNL     1      14.922   4.640   0.806  0.00  0.00    +0.005 A 
ATOM     34  C   UNL     1      13.005   5.051  -0.605  0.00  0.00    +0.005 A 
ATOM     35  C   UNL     1      14.275   3.538   1.366  0.00  0.00    +0.000 A 
ATOM     36  C   UNL     1      12.358   3.950  -0.046  0.00  0.00    +0.000 A 
ATOM     37  C   UNL     1      12.992   3.193   0.939  0.00  0.00    +0.000 A 
ENDBRANCH  25  29
ENDBRANCH   7  25
ENDBRANCH  22  23
ENDBRANCH  12  22
TORSDOF 8
ENDMDL
MODEL 5
REMARK VINA RESULT:      -6.3     16.442     20.090
REMARK  Name = 11883006
REMARK  14 active torsions:
REMARK  status: ('A' for Active; 'I' for Inactive)
REMARK    1  A    between atoms: O_2  and  C_14
REMARK    2  A    between atoms: O_3  and  C_19
REMARK    3  A    between atoms: N_7  and  C_25
REMARK    4  A    between atoms: N_7  and  C_26
REMARK    5  A    between atoms: C_9  and  C_17
REMARK    6  A    between atoms: C_11  and  C_19
REMARK    7  A    between atoms: C_11  and  C_20
REMARK    8  A    between atoms: C_12  and  C_22
REMARK    9  A    between atoms: C_22  and  C_23
REMARK   10  A    between atoms: C_25  and  C_29
REMARK   11  A    between atoms: C_27  and  C_28
REMARK   12  A    between atoms: C_28  and  C_30
REMARK   13  A    between atoms: C_28  and  C_31
REMARK   14  A    between atoms: C_28  and  C_32
REMARK                            x       y       z     vdW  Elec       q    Type
REMARK                         _______ _______ _______ _____ _____    ______ ____
ROOT
ATOM      1  S   UNL     1       9.836   5.607   2.781  0.00  0.00    -0.057 S 
ATOM      5  O   UNL     1      11.822   8.034   6.201  0.00  0.00    -0.275 OA
ATOM      6  N   UNL     1      12.061   6.613   3.637  0.00  0.00    -0.229 NA
ATOM      8  N   UNL     1      10.112   6.953   5.014  0.00  0.00    -0.264 N 
ATOM      9  C   UNL     1      13.836   4.860   0.697  0.00  0.00    -0.019 C 
ATOM     10  C   UNL     1      12.558   4.972  -0.245  0.00  0.00    +0.011 C 
ATOM     11  C   UNL     1      12.644   4.272  -1.655  0.00  0.00    +0.021 C 
ATOM     12  C   UNL     1      13.709   5.972   1.837  0.00  0.00    +0.054 C 
ATOM     13  C   UNL     1      15.114   5.153  -0.130  0.00  0.00    +0.010 C 
ATOM     14  C   UNL     1      13.999   4.633  -2.325  0.00  0.00    +0.123 C 
ATOM     15  C   UNL     1      11.248   4.656   0.534  0.00  0.00    +0.049 C 
ATOM     16  C   UNL     1      15.203   4.364  -1.428  0.00  0.00    +0.032 C 
ATOM     17  C   UNL     1      13.979   3.464   1.354  0.00  0.00    +0.012 C 
ATOM     18  C   UNL     1      12.327   5.974   2.440  0.00  0.00    +0.058 A 
ATOM     20  C   UNL     1      11.515   4.828  -2.568  0.00  0.00    +0.016 C 
ATOM     21  C   UNL     1      11.234   5.393   1.830  0.00  0.00    +0.015 A 
ATOM     24  C   UNL     1      10.783   6.479   3.918  0.00  0.00    +0.165 A 
ATOM     27  C   UNL     1      10.647   7.695   6.085  0.00  0.00    +0.224 C 
ATOM     40  H   UNL     1       9.121   6.730   5.025  0.00  0.00    +0.157 HD
ENDROOT
BRANCH  27  28
ATOM     28  C   UNL     1       9.604   8.073   7.167  0.00  0.00    +0.039 C 
ATOM     30  C   UNL     1      10.151   9.229   8.025  0.00  0.00    +0.020 C 
ATOM     31  C   UNL     1       9.335   6.872   8.087  0.00  0.00    +0.020 C 
ATOM     32  C   UNL     1       8.297   8.537   6.505  0.00  0.00    +0.020 C 
ENDBRANCH  27  28
BRANCH  14   2
ATOM      2  O   UNL     1      14.166   3.912  -3.546  0.00  0.00    -0.391 OA
ATOM     38  H   UNL     1      14.163   2.964  -3.330  0.00  0.00    +0.210 HD
ENDBRANCH  14   2
BRANCH  11  19
ATOM     19  C   UNL     1      12.435   2.741  -1.624  0.00  0.00    +0.165 C 
BRANCH  19   3
ATOM      3  O   UNL     1      11.689   2.384  -2.765  0.00  0.00    -0.394 OA
ATOM     39  H   UNL     1      11.290   1.514  -2.591  0.00  0.00    +0.209 HD
ENDBRANCH  19   3
ENDBRANCH  11  19
BRANCH  12  22
ATOM     22  C   UNL     1      14.793   5.904   2.920  0.00  0.00    +0.106 C 
BRANCH  22  23
ATOM      4  O   UNL     1      16.217   7.522   1.871  0.00  0.00    -0.276 OA
ATOM      7  N   UNL     1      15.856   7.762   4.150  0.00  0.00    -0.300 N 
ATOM     23  C   UNL     1      15.687   7.129   2.914  0.00  0.00    +0.216 C 
ATOM     26  C   UNL     1      15.220   7.279   5.369  0.00  0.00    +0.132 C 
BRANCH   7  25
ATOM     25  C   UNL     1      16.685   8.955   4.312  0.00  0.00    +0.142 C 
BRANCH  25  29
ATOM     29  C   UNL     1      18.019   8.634   4.923  0.00  0.00    -0.030 A 
ATOM     33  C   UNL     1      18.291   9.008   6.239  0.00  0.00    +0.005 A 
ATOM     34  C   UNL     1      18.985   7.961   4.175  0.00  0.00    +0.005 A 
ATOM     35  C   UNL     1      19.530   8.710   6.807  0.00  0.00    +0.000 A 
ATOM     36  C   UNL     1      20.223   7.663   4.743  0.00  0.00    +0.000 A 
ATOM     37  C   UNL     1      20.496   8.037   6.059  0.00  0.00    +0.000 A 
ENDBRANCH  25  29
ENDBRANCH   7  25
ENDBRANCH  22  23
ENDBRANCH  12  22
TORSDOF 8
ENDMDL
MODEL 6
REMARK VINA RESULT:      -6.3     15.365     18.467
REMARK  Name = 11883006
REMARK  14 active torsions:
REMARK  status: ('A' for Active; 'I' for Inactive)
REMARK    1  A    between atoms: O_2  and  C_14
REMARK    2  A    between atoms: O_3  and  C_19
REMARK    3  A    between atoms: N_7  and  C_25
REMARK    4  A    between atoms: N_7  and  C_26
REMARK    5  A    between atoms: C_9  and  C_17
REMARK    6  A    between atoms: C_11  and  C_19
REMARK    7  A    between atoms: C_11  and  C_20
REMARK    8  A    between atoms: C_12  and  C_22
REMARK    9  A    between atoms: C_22  and  C_23
REMARK   10  A    between atoms: C_25  and  C_29
REMARK   11  A    between atoms: C_27  and  C_28
REMARK   12  A    between atoms: C_28  and  C_30
REMARK   13  A    between atoms: C_28  and  C_31
REMARK   14  A    between atoms: C_28  and  C_32
REMARK                            x       y       z     vdW  Elec       q    Type
REMARK                         _______ _______ _______ _____ _____    ______ ____
ROOT
ATOM      1  S   UNL     1      12.726   5.530   1.214  0.00  0.00    -0.057 S 
ATOM      5  O   UNL     1      17.086   7.048   0.746  0.00  0.00    -0.275 OA
ATOM      6  N   UNL     1      14.620   6.886   2.340  0.00  0.00    -0.229 NA
ATOM      8  N   UNL     1      15.096   5.946   0.172  0.00  0.00    -0.264 N 
ATOM      9  C   UNL     1      12.123   7.814   5.128  0.00  0.00    -0.019 C 
ATOM     10  C   UNL     1      11.324   6.445   4.978  0.00  0.00    +0.011 C 
ATOM     11  C   UNL     1      10.019   6.278   5.846  0.00  0.00    +0.021 C 
ATOM     12  C   UNL     1      13.589   7.599   4.530  0.00  0.00    +0.054 C 
ATOM     13  C   UNL     1      12.256   8.171   6.631  0.00  0.00    +0.010 C 
ATOM     14  C   UNL     1      10.315   6.720   7.307  0.00  0.00    +0.123 C 
ATOM     15  C   UNL     1      11.137   6.058   3.482  0.00  0.00    +0.049 C 
ATOM     16  C   UNL     1      10.944   8.106   7.399  0.00  0.00    +0.032 C 
ATOM     17  C   UNL     1      11.436   8.994   4.396  0.00  0.00    +0.012 C 
ATOM     18  C   UNL     1      13.532   6.903   3.194  0.00  0.00    +0.058 A 
ATOM     20  C   UNL     1       9.626   4.774   5.889  0.00  0.00    +0.016 C 
ATOM     21  C   UNL     1      12.428   6.203   2.751  0.00  0.00    +0.015 A 
ATOM     24  C   UNL     1      14.308   6.198   1.264  0.00  0.00    +0.165 A 
ATOM     27  C   UNL     1      16.422   6.372  -0.036  0.00  0.00    +0.224 C 
ATOM     40  H   UNL     1      14.646   5.388  -0.547  0.00  0.00    +0.157 HD
ENDROOT
BRANCH  27  28
ATOM     28  C   UNL     1      17.021   5.910  -1.389  0.00  0.00    +0.039 C 
ATOM     30  C   UNL     1      18.452   6.462  -1.531  0.00  0.00    +0.020 C 
ATOM     31  C   UNL     1      16.177   6.449  -2.554  0.00  0.00    +0.020 C 
ATOM     32  C   UNL     1      17.086   4.376  -1.445  0.00  0.00    +0.020 C 
ENDBRANCH  27  28
BRANCH  14   2
ATOM      2  O   UNL     1       9.121   6.705   8.090  0.00  0.00    -0.391 OA
ATOM     38  H   UNL     1       8.500   6.088   7.667  0.00  0.00    +0.210 HD
ENDBRANCH  14   2
BRANCH  11  19
ATOM     19  C   UNL     1       8.780   7.014   5.288  0.00  0.00    +0.165 C 
BRANCH  19   3
ATOM      3  O   UNL     1       7.653   6.201   5.524  0.00  0.00    -0.394 OA
ATOM     39  H   UNL     1       6.896   6.618   5.077  0.00  0.00    +0.209 HD
ENDBRANCH  19   3
ENDBRANCH  11  19
BRANCH  12  22
ATOM     22  C   UNL     1      14.444   8.870   4.464  0.00  0.00    +0.106 C 
BRANCH  22  23
ATOM      4  O   UNL     1      15.675   7.950   6.304  0.00  0.00    -0.276 OA
ATOM      7  N   UNL     1      16.541   9.860   5.313  0.00  0.00    -0.300 N 
ATOM     23  C   UNL     1      15.598   8.837   5.449  0.00  0.00    +0.216 C 
ATOM     26  C   UNL     1      16.428  10.897   4.295  0.00  0.00    +0.132 C 
BRANCH   7  25
ATOM     25  C   UNL     1      17.711   9.967   6.182  0.00  0.00    +0.142 C 
BRANCH  25  29
ATOM     29  C   UNL     1      18.792   9.001   5.793  0.00  0.00    -0.030 A 
ATOM     33  C   UNL     1      19.737   8.595   6.734  0.00  0.00    +0.005 A 
ATOM     34  C   UNL     1      18.850   8.508   4.489  0.00  0.00    +0.005 A 
ATOM     35  C   UNL     1      20.742   7.697   6.372  0.00  0.00    +0.000 A 
ATOM     36  C   UNL     1      19.853   7.610   4.127  0.00  0.00    +0.000 A 
ATOM     37  C   UNL     1      20.800   7.204   5.068  0.00  0.00    +0.000 A 
ENDBRANCH  25  29
ENDBRANCH   7  25
ENDBRANCH  22  23
ENDBRANCH  12  22
TORSDOF 8
ENDMDL
MODEL 7
REMARK VINA RESULT:      -6.0     29.585     32.131
REMARK  Name = 11883006
REMARK  14 active torsions:
REMARK  status: ('A' for Active; 'I' for Inactive)
REMARK    1  A    between atoms: O_2  and  C_14
REMARK    2  A    between atoms: O_3  and  C_19
REMARK    3  A    between atoms: N_7  and  C_25
REMARK    4  A    between atoms: N_7  and  C_26
REMARK    5  A    between atoms: C_9  and  C_17
REMARK    6  A    between atoms: C_11  and  C_19
REMARK    7  A    between atoms: C_11  and  C_20
REMARK    8  A    between atoms: C_12  and  C_22
REMARK    9  A    between atoms: C_22  and  C_23
REMARK   10  A    between atoms: C_25  and  C_29
REMARK   11  A    between atoms: C_27  and  C_28
REMARK   12  A    between atoms: C_28  and  C_30
REMARK   13  A    between atoms: C_28  and  C_31
REMARK   14  A    between atoms: C_28  and  C_32
REMARK                            x       y       z     vdW  Elec       q    Type
REMARK                         _______ _______ _______ _____ _____    ______ ____
ROOT
ATOM      1  S   UNL     1      -5.782 -10.995  12.529  0.00  0.00    -0.057 S 
ATOM      5  O   UNL     1      -8.973  -8.439  10.335  0.00  0.00    -0.275 OA
ATOM      6  N   UNL     1      -7.924  -9.577  12.836  0.00  0.00    -0.229 NA
ATOM      8  N   UNL     1      -7.072  -9.789  10.591  0.00  0.00    -0.264 N 
ATOM      9  C   UNL     1      -7.958 -10.661  16.536  0.00  0.00    -0.019 C 
ATOM     10  C   UNL     1      -6.371 -10.772  16.600  0.00  0.00    +0.011 C 
ATOM     11  C   UNL     1      -5.745 -11.330  17.935  0.00  0.00    +0.021 C 
ATOM     12  C   UNL     1      -8.337  -9.693  15.322  0.00  0.00    +0.054 C 
ATOM     13  C   UNL     1      -8.483 -10.026  17.849  0.00  0.00    +0.010 C 
ATOM     14  C   UNL     1      -6.413 -10.623  19.148  0.00  0.00    +0.123 C 
ATOM     15  C   UNL     1      -5.795 -11.434  15.313  0.00  0.00    +0.049 C 
ATOM     16  C   UNL     1      -7.937 -10.677  19.111  0.00  0.00    +0.032 C 
ATOM     17  C   UNL     1      -8.649 -12.033  16.335  0.00  0.00    +0.012 C 
ATOM     18  C   UNL     1      -7.556 -10.049  14.082  0.00  0.00    +0.058 A 
ATOM     20  C   UNL     1      -4.231 -10.978  17.972  0.00  0.00    +0.016 C 
ATOM     21  C   UNL     1      -6.409 -10.816  14.103  0.00  0.00    +0.015 A 
ATOM     24  C   UNL     1      -7.066 -10.017  11.942  0.00  0.00    +0.165 A 
ATOM     27  C   UNL     1      -8.004  -9.026   9.861  0.00  0.00    +0.224 C 
ATOM     40  H   UNL     1      -6.307 -10.231  10.090  0.00  0.00    +0.157 HD
ENDROOT
BRANCH  27  28
ATOM     28  C   UNL     1      -7.714  -8.974   8.339  0.00  0.00    +0.039 C 
ATOM     30  C   UNL     1      -7.835  -7.522   7.842  0.00  0.00    +0.020 C 
ATOM     31  C   UNL     1      -8.734  -9.833   7.576  0.00  0.00    +0.020 C 
ATOM     32  C   UNL     1      -6.287  -9.466   8.053  0.00  0.00    +0.020 C 
ENDBRANCH  27  28
BRANCH  14   2
ATOM      2  O   UNL     1      -5.963 -11.196  20.376  0.00  0.00    -0.391 OA
ATOM     38  H   UNL     1      -5.723 -10.465  20.971  0.00  0.00    +0.210 HD
ENDBRANCH  14   2
BRANCH  11  19
ATOM     19  C   UNL     1      -5.818 -12.866  18.085  0.00  0.00    +0.165 C 
BRANCH  19   3
ATOM      3  O   UNL     1      -4.579 -13.310  18.589  0.00  0.00    -0.394 OA
ATOM     39  H   UNL     1      -3.900 -13.086  17.929  0.00  0.00    +0.209 HD
ENDBRANCH  19   3
ENDBRANCH  11  19
BRANCH  12  22
ATOM     22  C   UNL     1      -9.839  -9.593  15.030  0.00  0.00    +0.106 C 
BRANCH  22  23
ATOM      4  O   UNL     1      -9.713  -7.387  15.959  0.00  0.00    -0.276 OA
ATOM      7  N   UNL     1     -11.830  -8.204  15.477  0.00  0.00    -0.300 N 
ATOM     23  C   UNL     1     -10.436  -8.293  15.534  0.00  0.00    +0.216 C 
ATOM     26  C   UNL     1     -12.663  -9.288  14.971  0.00  0.00    +0.132 C 
BRANCH   7  25
ATOM     25  C   UNL     1     -12.558  -7.018  15.923  0.00  0.00    +0.142 C 
BRANCH  25  29
ATOM     29  C   UNL     1     -12.952  -6.134  14.774  0.00  0.00    -0.030 A 
ATOM     33  C   UNL     1     -14.291  -6.035  14.398  0.00  0.00    +0.005 A 
ATOM     34  C   UNL     1     -11.977  -5.413  14.084  0.00  0.00    +0.005 A 
ATOM     35  C   UNL     1     -14.656  -5.214  13.330  0.00  0.00    +0.000 A 
ATOM     36  C   UNL     1     -12.342  -4.592  13.018  0.00  0.00    +0.000 A 
ATOM     37  C   UNL     1     -13.682  -4.492  12.640  0.00  0.00    +0.000 A 
ENDBRANCH  25  29
ENDBRANCH   7  25
ENDBRANCH  22  23
ENDBRANCH  12  22
TORSDOF 8
ENDMDL
MODEL 8
REMARK VINA RESULT:      -6.0     29.198     32.078
REMARK  Name = 11883006
REMARK  14 active torsions:
REMARK  status: ('A' for Active; 'I' for Inactive)
REMARK    1  A    between atoms: O_2  and  C_14
REMARK    2  A    between atoms: O_3  and  C_19
REMARK    3  A    between atoms: N_7  and  C_25
REMARK    4  A    between atoms: N_7  and  C_26
REMARK    5  A    between atoms: C_9  and  C_17
REMARK    6  A    between atoms: C_11  and  C_19
REMARK    7  A    between atoms: C_11  and  C_20
REMARK    8  A    between atoms: C_12  and  C_22
REMARK    9  A    between atoms: C_22  and  C_23
REMARK   10  A    between atoms: C_25  and  C_29
REMARK   11  A    between atoms: C_27  and  C_28
REMARK   12  A    between atoms: C_28  and  C_30
REMARK   13  A    between atoms: C_28  and  C_31
REMARK   14  A    between atoms: C_28  and  C_32
REMARK                            x       y       z     vdW  Elec       q    Type
REMARK                         _______ _______ _______ _____ _____    ______ ____
ROOT
ATOM      1  S   UNL     1      -5.686 -12.104  14.432  0.00  0.00    -0.057 S 
ATOM      5  O   UNL     1      -5.891  -8.654  11.334  0.00  0.00    -0.275 OA
ATOM      6  N   UNL     1      -6.919  -9.925  13.780  0.00  0.00    -0.229 NA
ATOM      8  N   UNL     1      -5.123 -10.632  12.336  0.00  0.00    -0.264 N 
ATOM      9  C   UNL     1      -9.395 -10.619  16.653  0.00  0.00    -0.019 C 
ATOM     10  C   UNL     1      -8.290 -11.355  17.533  0.00  0.00    +0.011 C 
ATOM     11  C   UNL     1      -8.772 -12.014  18.882  0.00  0.00    +0.021 C 
ATOM     12  C   UNL     1      -8.644  -9.677  15.604  0.00  0.00    +0.054 C 
ATOM     13  C   UNL     1     -10.274  -9.729  17.568  0.00  0.00    +0.010 C 
ATOM     14  C   UNL     1      -9.675 -11.008  19.650  0.00  0.00    +0.123 C 
ATOM     15  C   UNL     1      -7.399 -12.288  16.662  0.00  0.00    +0.049 C 
ATOM     16  C   UNL     1     -10.809 -10.447  18.799  0.00  0.00    +0.032 C 
ATOM     17  C   UNL     1     -10.313 -11.608  15.890  0.00  0.00    +0.012 C 
ATOM     18  C   UNL     1      -7.510 -10.409  14.933  0.00  0.00    +0.058 A 
ATOM     20  C   UNL     1      -7.534 -12.300  19.777  0.00  0.00    +0.016 C 
ATOM     21  C   UNL     1      -6.956 -11.569  15.434  0.00  0.00    +0.015 A 
ATOM     24  C   UNL     1      -5.951 -10.740  13.422  0.00  0.00    +0.165 A 
ATOM     27  C   UNL     1      -5.127  -9.616  11.360  0.00  0.00    +0.224 C 
ATOM     40  H   UNL     1      -4.442 -11.381  12.255  0.00  0.00    +0.157 HD
ENDROOT
BRANCH  27  28
ATOM     28  C   UNL     1      -4.051  -9.801  10.260  0.00  0.00    +0.039 C 
ATOM     30  C   UNL     1      -4.293  -8.784   9.130  0.00  0.00    +0.020 C 
ATOM     31  C   UNL     1      -4.139 -11.215   9.665  0.00  0.00    +0.020 C 
ATOM     32  C   UNL     1      -2.650  -9.556  10.841  0.00  0.00    +0.020 C 
ENDBRANCH  27  28
BRANCH  14   2
ATOM      2  O   UNL     1     -10.233 -11.618  20.813  0.00  0.00    -0.391 OA
ATOM     38  H   UNL     1     -11.186 -11.428  20.817  0.00  0.00    +0.210 HD
ENDBRANCH  14   2
BRANCH  11  19
ATOM     19  C   UNL     1      -9.484 -13.375  18.712  0.00  0.00    +0.165 C 
BRANCH  19   3
ATOM      3  O   UNL     1      -8.666 -14.365  19.292  0.00  0.00    -0.394 OA
ATOM     39  H   UNL     1      -7.872 -13.921  19.636  0.00  0.00    +0.209 HD
ENDBRANCH  19   3
ENDBRANCH  11  19
BRANCH  12  22
ATOM     22  C   UNL     1      -9.563  -9.003  14.578  0.00  0.00    +0.106 C 
BRANCH  22  23
ATOM      4  O   UNL     1      -9.753  -6.963  15.824  0.00  0.00    -0.276 OA
ATOM      7  N   UNL     1     -11.710  -7.835  14.933  0.00  0.00    -0.300 N 
ATOM     23  C   UNL     1     -10.332  -7.839  15.174  0.00  0.00    +0.216 C 
ATOM     26  C   UNL     1     -12.371  -8.881  14.163  0.00  0.00    +0.132 C 
BRANCH   7  25
ATOM     25  C   UNL     1     -12.590  -6.783  15.437  0.00  0.00    +0.142 C 
BRANCH  25  29
ATOM     29  C   UNL     1     -13.001  -5.827  14.354  0.00  0.00    -0.030 A 
ATOM     33  C   UNL     1     -12.039  -5.055  13.703  0.00  0.00    +0.005 A 
ATOM     34  C   UNL     1     -14.345  -5.713  13.999  0.00  0.00    +0.005 A 
ATOM     35  C   UNL     1     -12.421  -4.166  12.698  0.00  0.00    +0.000 A 
ATOM     36  C   UNL     1     -14.727  -4.825  12.993  0.00  0.00    +0.000 A 
ATOM     37  C   UNL     1     -13.765  -4.052  12.342  0.00  0.00    +0.000 A 
ENDBRANCH  25  29
ENDBRANCH   7  25
ENDBRANCH  22  23
ENDBRANCH  12  22
TORSDOF 8
ENDMDL
MODEL 9
REMARK VINA RESULT:      -5.9      2.209      3.298
REMARK  Name = 11883006
REMARK  14 active torsions:
REMARK  status: ('A' for Active; 'I' for Inactive)
REMARK    1  A    between atoms: O_2  and  C_14
REMARK    2  A    between atoms: O_3  and  C_19
REMARK    3  A    between atoms: N_7  and  C_25
REMARK    4  A    between atoms: N_7  and  C_26
REMARK    5  A    between atoms: C_9  and  C_17
REMARK    6  A    between atoms: C_11  and  C_19
REMARK    7  A    between atoms: C_11  and  C_20
REMARK    8  A    between atoms: C_12  and  C_22
REMARK    9  A    between atoms: C_22  and  C_23
REMARK   10  A    between atoms: C_25  and  C_29
REMARK   11  A    between atoms: C_27  and  C_28
REMARK   12  A    between atoms: C_28  and  C_30
REMARK   13  A    between atoms: C_28  and  C_31
REMARK   14  A    between atoms: C_28  and  C_32
REMARK                            x       y       z     vdW  Elec       q    Type
REMARK                         _______ _______ _______ _____ _____    ______ ____
ROOT
ATOM      1  S   UNL     1      18.014   6.468  20.477  0.00  0.00    -0.057 S 
ATOM      5  O   UNL     1      20.634   9.055  23.301  0.00  0.00    -0.275 OA
ATOM      6  N   UNL     1      18.089   8.634  21.889  0.00  0.00    -0.229 NA
ATOM      8  N   UNL     1      20.069   7.260  21.901  0.00  0.00    -0.264 N 
ATOM      9  C   UNL     1      14.644   9.556  20.422  0.00  0.00    -0.019 C 
ATOM     10  C   UNL     1      14.209   8.031  20.279  0.00  0.00    +0.011 C 
ATOM     11  C   UNL     1      12.828   7.743  19.574  0.00  0.00    +0.021 C 
ATOM     12  C   UNL     1      15.804   9.638  21.518  0.00  0.00    +0.054 C 
ATOM     13  C   UNL     1      13.438  10.391  20.923  0.00  0.00    +0.010 C 
ATOM     14  C   UNL     1      11.746   8.693  20.160  0.00  0.00    +0.123 C 
ATOM     15  C   UNL     1      15.380   7.153  19.747  0.00  0.00    +0.049 C 
ATOM     16  C   UNL     1      12.157  10.161  20.134  0.00  0.00    +0.032 C 
ATOM     17  C   UNL     1      15.151  10.164  19.090  0.00  0.00    +0.012 C 
ATOM     18  C   UNL     1      16.847   8.576  21.283  0.00  0.00    +0.058 A 
ATOM     20  C   UNL     1      12.388   6.287  19.895  0.00  0.00    +0.016 C 
ATOM     21  C   UNL     1      16.630   7.461  20.499  0.00  0.00    +0.015 A 
ATOM     24  C   UNL     1      18.789   7.581  21.531  0.00  0.00    +0.165 A 
ATOM     27  C   UNL     1      20.918   7.994  22.752  0.00  0.00    +0.224 C 
ATOM     40  H   UNL     1      20.413   6.392  21.502  0.00  0.00    +0.157 HD
ENDROOT
BRANCH  27  28
ATOM     28  C   UNL     1      22.310   7.343  22.958  0.00  0.00    +0.039 C 
ATOM     30  C   UNL     1      22.436   6.105  22.051  0.00  0.00    +0.020 C 
ATOM     31  C   UNL     1      22.473   6.892  24.418  0.00  0.00    +0.020 C 
ATOM     32  C   UNL     1      23.421   8.335  22.582  0.00  0.00    +0.020 C 
ENDBRANCH  27  28
BRANCH  14   2
ATOM      2  O   UNL     1      10.514   8.550  19.454  0.00  0.00    -0.391 OA
ATOM     38  H   UNL     1      10.727   8.370  18.522  0.00  0.00    +0.210 HD
ENDBRANCH  14   2
BRANCH  11  19
ATOM     19  C   UNL     1      12.865   7.835  18.032  0.00  0.00    +0.165 C 
BRANCH  19   3
ATOM      3  O   UNL     1      11.909   6.932  17.523  0.00  0.00    -0.394 OA
ATOM     39  H   UNL     1      11.406   7.399  16.834  0.00  0.00    +0.209 HD
ENDBRANCH  19   3
ENDBRANCH  11  19
BRANCH  12  22
ATOM     22  C   UNL     1      16.440  11.025  21.672  0.00  0.00    +0.106 C 
BRANCH  22  23
ATOM      4  O   UNL     1      15.125  11.311  23.657  0.00  0.00    -0.276 OA
ATOM      7  N   UNL     1      17.024  12.628  23.457  0.00  0.00    -0.300 N 
ATOM     23  C   UNL     1      16.122  11.655  23.015  0.00  0.00    +0.216 C 
ATOM     26  C   UNL     1      18.195  13.018  22.681  0.00  0.00    +0.132 C 
BRANCH   7  25
ATOM     25  C   UNL     1      16.861  13.328  24.729  0.00  0.00    +0.142 C 
BRANCH  25  29
ATOM     29  C   UNL     1      17.271  12.476  25.896  0.00  0.00    -0.030 A 
ATOM     33  C   UNL     1      18.610  12.128  26.069  0.00  0.00    +0.005 A 
ATOM     34  C   UNL     1      16.312  12.035  26.808  0.00  0.00    +0.005 A 
ATOM     35  C   UNL     1      18.992  11.337  27.153  0.00  0.00    +0.000 A 
ATOM     36  C   UNL     1      16.693  11.245  27.892  0.00  0.00    +0.000 A 
ATOM     37  C   UNL     1      18.033  10.895  28.065  0.00  0.00    +0.000 A 
ENDBRANCH  25  29
ENDBRANCH   7  25
ENDBRANCH  22  23
ENDBRANCH  12  22
TORSDOF 8
ENDMDL
MODEL 10
REMARK VINA RESULT:      -5.9     28.236     31.770
REMARK  Name = 11883006
REMARK  14 active torsions:
REMARK  status: ('A' for Active; 'I' for Inactive)
REMARK    1  A    between atoms: O_2  and  C_14
REMARK    2  A    between atoms: O_3  and  C_19
REMARK    3  A    between atoms: N_7  and  C_25
REMARK    4  A    between atoms: N_7  and  C_26
REMARK    5  A    between atoms: C_9  and  C_17
REMARK    6  A    between atoms: C_11  and  C_19
REMARK    7  A    between atoms: C_11  and  C_20
REMARK    8  A    between atoms: C_12  and  C_22
REMARK    9  A    between atoms: C_22  and  C_23
REMARK   10  A    between atoms: C_25  and  C_29
REMARK   11  A    between atoms: C_27  and  C_28
REMARK   12  A    between atoms: C_28  and  C_30
REMARK   13  A    between atoms: C_28  and  C_31
REMARK   14  A    between atoms: C_28  and  C_32
REMARK                            x       y       z     vdW  Elec       q    Type
REMARK                         _______ _______ _______ _____ _____    ______ ____
ROOT
ATOM      1  S   UNL     1     -14.510   5.594  34.843  0.00  0.00    -0.057 S 
ATOM      5  O   UNL     1     -15.553   6.140  30.353  0.00  0.00    -0.275 OA
ATOM      6  N   UNL     1     -14.077   7.032  32.736  0.00  0.00    -0.229 NA
ATOM      8  N   UNL     1     -15.603   5.182  32.495  0.00  0.00    -0.264 N 
ATOM      9  C   UNL     1     -12.012   9.420  34.949  0.00  0.00    -0.019 C 
ATOM     10  C   UNL     1     -11.551   8.247  35.923  0.00  0.00    +0.011 C 
ATOM     11  C   UNL     1     -10.713   8.658  37.194  0.00  0.00    +0.021 C 
ATOM     12  C   UNL     1     -12.438   8.766  33.556  0.00  0.00    +0.054 C 
ATOM     13  C   UNL     1     -10.819  10.378  34.696  0.00  0.00    +0.010 C 
ATOM     14  C   UNL     1      -9.594   9.651  36.770  0.00  0.00    +0.123 C 
ATOM     15  C   UNL     1     -12.726   7.273  36.234  0.00  0.00    +0.049 C 
ATOM     16  C   UNL     1     -10.115  10.836  35.965  0.00  0.00    +0.032 C 
ATOM     17  C   UNL     1     -13.197  10.242  35.516  0.00  0.00    +0.012 C 
ATOM     18  C   UNL     1     -13.330   7.571  33.768  0.00  0.00    +0.058 A 
ATOM     20  C   UNL     1     -10.016   7.395  37.772  0.00  0.00    +0.016 C 
ATOM     21  C   UNL     1     -13.431   6.905  34.973  0.00  0.00    +0.015 A 
ATOM     24  C   UNL     1     -14.743   5.992  33.188  0.00  0.00    +0.165 A 
ATOM     27  C   UNL     1     -15.963   5.287  31.137  0.00  0.00    +0.224 C 
ATOM     40  H   UNL     1     -16.008   4.433  33.048  0.00  0.00    +0.157 HD
ENDROOT
BRANCH  27  28
ATOM     28  C   UNL     1     -16.967   4.202  30.671  0.00  0.00    +0.039 C 
ATOM     30  C   UNL     1     -16.320   2.812  30.807  0.00  0.00    +0.020 C 
ATOM     31  C   UNL     1     -17.337   4.421  29.196  0.00  0.00    +0.020 C 
ATOM     32  C   UNL     1     -18.230   4.237  31.546  0.00  0.00    +0.020 C 
ENDBRANCH  27  28
BRANCH  14   2
ATOM      2  O   UNL     1      -8.898  10.144  37.915  0.00  0.00    -0.391 OA
ATOM     38  H   UNL     1      -9.551  10.272  38.624  0.00  0.00    +0.210 HD
ENDBRANCH  14   2
BRANCH  11  19
ATOM     19  C   UNL     1     -11.552   9.237  38.355  0.00  0.00    +0.165 C 
BRANCH  19   3
ATOM      3  O   UNL     1     -11.036   8.719  39.560  0.00  0.00    -0.394 OA
ATOM     39  H   UNL     1     -11.452   9.211  40.289  0.00  0.00    +0.209 HD
ENDBRANCH  19   3
ENDBRANCH  11  19
BRANCH  12  22
ATOM     22  C   UNL     1     -13.048   9.750  32.549  0.00  0.00    +0.106 C 
BRANCH  22  23
ATOM      4  O   UNL     1     -11.422   9.183  30.880  0.00  0.00    -0.276 OA
ATOM      7  N   UNL     1     -12.048  11.413  31.022  0.00  0.00    -0.300 N 
ATOM     23  C   UNL     1     -12.096  10.070  31.412  0.00  0.00    +0.216 C 
ATOM     26  C   UNL     1     -12.854  12.443  31.664  0.00  0.00    +0.132 C 
BRANCH   7  25
ATOM     25  C   UNL     1     -11.183  11.883  29.942  0.00  0.00    +0.142 C 
BRANCH  25  29
ATOM     29  C   UNL     1     -11.642  11.391  28.599  0.00  0.00    -0.030 A 
ATOM     33  C   UNL     1     -12.946  11.640  28.173  0.00  0.00    +0.005 A 
ATOM     34  C   UNL     1     -10.762  10.685  27.778  0.00  0.00    +0.005 A 
ATOM     35  C   UNL     1     -13.372  11.182  26.925  0.00  0.00    +0.000 A 
ATOM     36  C   UNL     1     -11.188  10.228  26.531  0.00  0.00    +0.000 A 
ATOM     37  C   UNL     1     -12.493  10.476  26.104  0.00  0.00    +0.000 A 
ENDBRANCH  25  29
ENDBRANCH   7  25
ENDBRANCH  22  23
ENDBRANCH  12  22
TORSDOF 8
ENDMDL
