MODEL 1
REMARK VINA RESULT:      -7.3      0.000      0.000
REMARK  Name = 75536825
REMARK  7 active torsions:
REMARK  status: ('A' for Active; 'I' for Inactive)
REMARK    1  A    between atoms: O_3  and  C_9
REMARK    2  A    between atoms: N_5  and  C_8
REMARK    3  A    between atoms: N_5  and  C_13
REMARK    4  A    between atoms: N_6  and  C_12
REMARK    5  A    between atoms: C_10  and  C_12
REMARK    6  A    between atoms: C_13  and  C_14
REMARK    7  A    between atoms: C_15  and  C_18
REMARK                            x       y       z     vdW  Elec       q    Type
REMARK                         _______ _______ _______ _____ _____    ______ ____
ROOT
ATOM      2  O   UNL     1      12.995   6.638  20.538  0.00  0.00    -0.371 OA
ATOM      8  C   UNL     1      10.890   7.648  20.977  0.00  0.00    +0.111 C 
ATOM      9  C   UNL     1      11.500   8.292  19.745  0.00  0.00    +0.164 C 
ATOM     10  C   UNL     1      12.501   7.225  19.322  0.00  0.00    +0.165 C 
ATOM     11  C   UNL     1      12.109   7.000  21.613  0.00  0.00    +0.181 C 
ENDROOT
BRANCH   9   3
ATOM      3  O   UNL     1      10.546   8.551  18.734  0.00  0.00    -0.388 OA
ATOM     27  H   UNL     1      11.014   8.629  17.885  0.00  0.00    +0.210 HD
ENDBRANCH   9   3
BRANCH   8   5
ATOM      5  N   UNL     1      10.226   8.593  21.860  0.00  0.00    -0.305 NA
ATOM     26  H   UNL     1       9.448   8.125  22.325  0.00  0.00    +0.123 HD
BRANCH   5  13
ATOM     13  C   UNL     1      11.146   9.099  22.874  0.00  0.00    +0.116 C 
BRANCH  13  14
ATOM      7  N   UNL     1      11.003  13.387  23.170  0.00  0.00    -0.263 NA
ATOM     14  C   UNL     1      11.096  10.600  22.977  0.00  0.00    -0.031 A 
ATOM     16  C   UNL     1      11.234  11.383  21.837  0.00  0.00    +0.024 A 
ATOM     17  C   UNL     1      10.910  11.208  24.213  0.00  0.00    +0.024 A 
ATOM     19  C   UNL     1      11.181  12.760  21.985  0.00  0.00    +0.111 A 
ATOM     20  C   UNL     1      10.872  12.592  24.256  0.00  0.00    +0.111 A 
ENDBRANCH  13  14
ENDBRANCH   5  13
ENDBRANCH   8   5
BRANCH  10  12
ATOM     12  C   UNL     1      13.660   7.775  18.510  0.00  0.00    +0.138 C 
BRANCH  12   6
ATOM      4  O   UNL     1      15.417   9.275  20.217  0.00  0.00    -0.270 OA
ATOM      6  N   UNL     1      14.920   7.339  19.037  0.00  0.00    -0.309 N 
ATOM     15  C   UNL     1      15.709   8.136  19.861  0.00  0.00    +0.244 C 
ATOM     28  H   UNL     1      15.254   6.434  18.725  0.00  0.00    +0.149 HD
BRANCH  15  18
ATOM      1  F   UNL     1      20.585   5.910  21.533  0.00  0.00    -0.205 F 
ATOM     18  C   UNL     1      17.000   7.547  20.302  0.00  0.00    +0.037 A 
ATOM     21  C   UNL     1      17.750   8.177  21.295  0.00  0.00    +0.016 A 
ATOM     22  C   UNL     1      17.461   6.364  19.726  0.00  0.00    +0.016 A 
ATOM     23  C   UNL     1      18.961   7.625  21.711  0.00  0.00    +0.039 A 
ATOM     24  C   UNL     1      18.672   5.812  20.141  0.00  0.00    +0.039 A 
ATOM     25  C   UNL     1      19.423   6.442  21.133  0.00  0.00    +0.123 A 
ENDBRANCH  15  18
ENDBRANCH  12   6
ENDBRANCH  10  12
TORSDOF 7
ENDMDL
MODEL 2
REMARK VINA RESULT:      -6.9      3.502      8.473
REMARK  Name = 75536825
REMARK  7 active torsions:
REMARK  status: ('A' for Active; 'I' for Inactive)
REMARK    1  A    between atoms: O_3  and  C_9
REMARK    2  A    between atoms: N_5  and  C_8
REMARK    3  A    between atoms: N_5  and  C_13
REMARK    4  A    between atoms: N_6  and  C_12
REMARK    5  A    between atoms: C_10  and  C_12
REMARK    6  A    between atoms: C_13  and  C_14
REMARK    7  A    between atoms: C_15  and  C_18
REMARK                            x       y       z     vdW  Elec       q    Type
REMARK                         _______ _______ _______ _____ _____    ______ ____
ROOT
ATOM      2  O   UNL     1      15.726   6.240  19.001  0.00  0.00    -0.371 OA
ATOM      8  C   UNL     1      16.795   6.452  21.112  0.00  0.00    +0.111 C 
ATOM      9  C   UNL     1      15.526   7.286  21.113  0.00  0.00    +0.164 C 
ATOM     10  C   UNL     1      14.748   6.638  19.976  0.00  0.00    +0.165 C 
ATOM     11  C   UNL     1      17.024   6.255  19.623  0.00  0.00    +0.181 C 
ENDROOT
BRANCH   9   3
ATOM      3  O   UNL     1      14.826   7.215  22.340  0.00  0.00    -0.388 OA
ATOM     27  H   UNL     1      15.408   6.799  22.999  0.00  0.00    +0.210 HD
ENDBRANCH   9   3
BRANCH   8   5
ATOM      5  N   UNL     1      17.916   7.095  21.777  0.00  0.00    -0.305 NA
ATOM     26  H   UNL     1      18.140   6.578  22.628  0.00  0.00    +0.123 HD
BRANCH   5  13
ATOM     13  C   UNL     1      19.093   7.121  20.916  0.00  0.00    +0.116 C 
BRANCH  13  14
ATOM      7  N   UNL     1      22.070   4.290  22.187  0.00  0.00    -0.263 NA
ATOM     14  C   UNL     1      20.135   6.129  21.360  0.00  0.00    -0.031 A 
ATOM     16  C   UNL     1      20.466   5.053  20.547  0.00  0.00    +0.024 A 
ATOM     17  C   UNL     1      20.771   6.289  22.587  0.00  0.00    +0.024 A 
ATOM     19  C   UNL     1      21.431   4.168  21.001  0.00  0.00    +0.111 A 
ATOM     20  C   UNL     1      21.722   5.350  22.951  0.00  0.00    +0.111 A 
ENDBRANCH  13  14
ENDBRANCH   5  13
ENDBRANCH   8   5
BRANCH  10  12
ATOM     12  C   UNL     1      13.733   7.569  19.335  0.00  0.00    +0.138 C 
BRANCH  12   6
ATOM      4  O   UNL     1      10.998   8.202  19.941  0.00  0.00    -0.270 OA
ATOM      6  N   UNL     1      13.269   8.555  20.266  0.00  0.00    -0.309 N 
ATOM     15  C   UNL     1      11.918   8.796  20.498  0.00  0.00    +0.244 C 
ATOM     28  H   UNL     1      13.977   9.130  20.709  0.00  0.00    +0.149 HD
BRANCH  15  18
ATOM      1  F   UNL     1      10.723  12.851  24.193  0.00  0.00    -0.205 F 
ATOM     18  C   UNL     1      11.602   9.870  21.475  0.00  0.00    +0.037 A 
ATOM     21  C   UNL     1      11.130   9.539  22.746  0.00  0.00    +0.016 A 
ATOM     22  C   UNL     1      11.777  11.208  21.124  0.00  0.00    +0.016 A 
ATOM     23  C   UNL     1      10.833  10.546  23.664  0.00  0.00    +0.039 A 
ATOM     24  C   UNL     1      11.480  12.215  22.042  0.00  0.00    +0.039 A 
ATOM     25  C   UNL     1      11.007  11.884  23.312  0.00  0.00    +0.123 A 
ENDBRANCH  15  18
ENDBRANCH  12   6
ENDBRANCH  10  12
TORSDOF 7
ENDMDL
MODEL 3
REMARK VINA RESULT:      -6.9      1.751      2.460
REMARK  Name = 75536825
REMARK  7 active torsions:
REMARK  status: ('A' for Active; 'I' for Inactive)
REMARK    1  A    between atoms: O_3  and  C_9
REMARK    2  A    between atoms: N_5  and  C_8
REMARK    3  A    between atoms: N_5  and  C_13
REMARK    4  A    between atoms: N_6  and  C_12
REMARK    5  A    between atoms: C_10  and  C_12
REMARK    6  A    between atoms: C_13  and  C_14
REMARK    7  A    between atoms: C_15  and  C_18
REMARK                            x       y       z     vdW  Elec       q    Type
REMARK                         _______ _______ _______ _____ _____    ______ ____
ROOT
ATOM      2  O   UNL     1      10.671   7.383  20.993  0.00  0.00    -0.371 OA
ATOM      8  C   UNL     1      11.464   9.370  22.024  0.00  0.00    +0.111 C 
ATOM      9  C   UNL     1      12.556   8.805  21.133  0.00  0.00    +0.164 C 
ATOM     10  C   UNL     1      11.743   7.919  20.199  0.00  0.00    +0.165 C 
ATOM     11  C   UNL     1      10.562   8.160  22.199  0.00  0.00    +0.181 C 
ENDROOT
BRANCH   9   3
ATOM      3  O   UNL     1      13.260   9.809  20.428  0.00  0.00    -0.388 OA
ATOM     27  H   UNL     1      13.579  10.466  21.071  0.00  0.00    +0.210 HD
ENDBRANCH   9   3
BRANCH   8   5
ATOM      5  N   UNL     1      11.956   9.897  23.286  0.00  0.00    -0.305 NA
ATOM     26  H   UNL     1      12.781  10.470  23.109  0.00  0.00    +0.123 HD
BRANCH   5  13
ATOM     13  C   UNL     1      10.944  10.715  23.944  0.00  0.00    +0.116 C 
BRANCH  13  14
ATOM      7  N   UNL     1      12.706  13.860  26.289  0.00  0.00    -0.263 NA
ATOM     14  C   UNL     1      11.560  11.817  24.765  0.00  0.00    -0.031 A 
ATOM     16  C   UNL     1      10.754  12.784  25.354  0.00  0.00    +0.024 A 
ATOM     17  C   UNL     1      12.939  11.869  24.939  0.00  0.00    +0.024 A 
ATOM     19  C   UNL     1      11.370  13.776  26.099  0.00  0.00    +0.111 A 
ATOM     20  C   UNL     1      13.457  12.902  25.703  0.00  0.00    +0.111 A 
ENDBRANCH  13  14
ENDBRANCH   5  13
ENDBRANCH   8   5
BRANCH  10  12
ATOM     12  C   UNL     1      12.550   6.785  19.593  0.00  0.00    +0.138 C 
BRANCH  12   6
ATOM      4  O   UNL     1      14.887   7.219  17.981  0.00  0.00    -0.270 OA
ATOM      6  N   UNL     1      13.910   6.812  20.046  0.00  0.00    -0.309 N 
ATOM     15  C   UNL     1      14.986   7.030  19.191  0.00  0.00    +0.244 C 
ATOM     28  H   UNL     1      14.067   6.592  21.024  0.00  0.00    +0.149 HD
BRANCH  15  18
ATOM      1  F   UNL     1      20.084   6.925  21.541  0.00  0.00    -0.205 F 
ATOM     18  C   UNL     1      16.335   7.002  19.814  0.00  0.00    +0.037 A 
ATOM     21  C   UNL     1      17.248   6.011  19.454  0.00  0.00    +0.016 A 
ATOM     22  C   UNL     1      16.689   7.967  20.756  0.00  0.00    +0.016 A 
ATOM     23  C   UNL     1      18.514   5.985  20.038  0.00  0.00    +0.039 A 
ATOM     24  C   UNL     1      17.955   7.940  21.340  0.00  0.00    +0.039 A 
ATOM     25  C   UNL     1      18.868   6.949  20.981  0.00  0.00    +0.123 A 
ENDBRANCH  15  18
ENDBRANCH  12   6
ENDBRANCH  10  12
TORSDOF 7
ENDMDL
MODEL 4
REMARK VINA RESULT:      -6.8      4.082      6.371
REMARK  Name = 75536825
REMARK  7 active torsions:
REMARK  status: ('A' for Active; 'I' for Inactive)
REMARK    1  A    between atoms: O_3  and  C_9
REMARK    2  A    between atoms: N_5  and  C_8
REMARK    3  A    between atoms: N_5  and  C_13
REMARK    4  A    between atoms: N_6  and  C_12
REMARK    5  A    between atoms: C_10  and  C_12
REMARK    6  A    between atoms: C_13  and  C_14
REMARK    7  A    between atoms: C_15  and  C_18
REMARK                            x       y       z     vdW  Elec       q    Type
REMARK                         _______ _______ _______ _____ _____    ______ ____
ROOT
ATOM      2  O   UNL     1      18.129   6.632  21.667  0.00  0.00    -0.371 OA
ATOM      8  C   UNL     1      16.516   6.300  19.955  0.00  0.00    +0.111 C 
ATOM      9  C   UNL     1      17.905   6.160  19.360  0.00  0.00    +0.164 C 
ATOM     10  C   UNL     1      18.731   5.871  20.606  0.00  0.00    +0.165 C 
ATOM     11  C   UNL     1      16.815   7.043  21.247  0.00  0.00    +0.181 C 
ENDROOT
BRANCH   9   3
ATOM      3  O   UNL     1      17.992   5.112  18.414  0.00  0.00    -0.388 OA
ATOM     27  H   UNL     1      17.132   5.033  17.966  0.00  0.00    +0.210 HD
ENDBRANCH   9   3
BRANCH   8   5
ATOM      5  N   UNL     1      15.583   7.011  19.096  0.00  0.00    -0.305 NA
ATOM     26  H   UNL     1      14.810   6.390  18.857  0.00  0.00    +0.123 HD
BRANCH   5  13
ATOM     13  C   UNL     1      15.050   8.193  19.765  0.00  0.00    +0.116 C 
BRANCH  13  14
ATOM      7  N   UNL     1      10.828   7.845  20.507  0.00  0.00    -0.263 NA
ATOM     14  C   UNL     1      13.572   8.071  20.024  0.00  0.00    -0.031 A 
ATOM     16  C   UNL     1      12.662   8.720  19.198  0.00  0.00    +0.024 A 
ATOM     17  C   UNL     1      13.111   7.307  21.091  0.00  0.00    +0.024 A 
ATOM     19  C   UNL     1      11.313   8.578  19.479  0.00  0.00    +0.111 A 
ATOM     20  C   UNL     1      11.743   7.227  21.288  0.00  0.00    +0.111 A 
ENDBRANCH  13  14
ENDBRANCH   5  13
ENDBRANCH   8   5
BRANCH  10  12
ATOM     12  C   UNL     1      20.192   6.257  20.463  0.00  0.00    +0.138 C 
BRANCH  12   6
ATOM      4  O   UNL     1      21.237   5.381  22.991  0.00  0.00    -0.270 OA
ATOM      6  N   UNL     1      21.053   5.134  20.690  0.00  0.00    -0.309 N 
ATOM     15  C   UNL     1      21.514   4.780  21.955  0.00  0.00    +0.244 C 
ATOM     28  H   UNL     1      21.377   4.636  19.868  0.00  0.00    +0.149 HD
BRANCH  15  18
ATOM      1  F   UNL     1      24.935   0.335  22.197  0.00  0.00    -0.205 F 
ATOM     18  C   UNL     1      22.420   3.604  22.019  0.00  0.00    +0.037 A 
ATOM     21  C   UNL     1      22.632   2.953  23.234  0.00  0.00    +0.016 A 
ATOM     22  C   UNL     1      23.056   3.150  20.864  0.00  0.00    +0.016 A 
ATOM     23  C   UNL     1      23.483   1.850  23.295  0.00  0.00    +0.039 A 
ATOM     24  C   UNL     1      23.907   2.047  20.925  0.00  0.00    +0.039 A 
ATOM     25  C   UNL     1      24.120   1.396  22.140  0.00  0.00    +0.123 A 
ENDBRANCH  15  18
ENDBRANCH  12   6
ENDBRANCH  10  12
TORSDOF 7
ENDMDL
MODEL 5
REMARK VINA RESULT:      -6.7     27.509     30.463
REMARK  Name = 75536825
REMARK  7 active torsions:
REMARK  status: ('A' for Active; 'I' for Inactive)
REMARK    1  A    between atoms: O_3  and  C_9
REMARK    2  A    between atoms: N_5  and  C_8
REMARK    3  A    between atoms: N_5  and  C_13
REMARK    4  A    between atoms: N_6  and  C_12
REMARK    5  A    between atoms: C_10  and  C_12
REMARK    6  A    between atoms: C_13  and  C_14
REMARK    7  A    between atoms: C_15  and  C_18
REMARK                            x       y       z     vdW  Elec       q    Type
REMARK                         _______ _______ _______ _____ _____    ______ ____
ROOT
ATOM      2  O   UNL     1     -16.643   3.986  25.503  0.00  0.00    -0.371 OA
ATOM      8  C   UNL     1     -16.008   4.039  23.214  0.00  0.00    +0.111 C 
ATOM      9  C   UNL     1     -16.463   2.635  23.570  0.00  0.00    +0.164 C 
ATOM     10  C   UNL     1     -17.293   2.902  24.818  0.00  0.00    +0.165 C 
ATOM     11  C   UNL     1     -15.730   4.622  24.590  0.00  0.00    +0.181 C 
ENDROOT
BRANCH   9   3
ATOM      3  O   UNL     1     -17.229   2.032  22.545  0.00  0.00    -0.388 OA
ATOM     27  H   UNL     1     -16.619   1.682  21.873  0.00  0.00    +0.210 HD
ENDBRANCH   9   3
BRANCH   8   5
ATOM      5  N   UNL     1     -14.847   4.071  22.341  0.00  0.00    -0.305 NA
ATOM     26  H   UNL     1     -15.150   4.282  21.390  0.00  0.00    +0.123 HD
BRANCH   5  13
ATOM     13  C   UNL     1     -13.896   5.092  22.769  0.00  0.00    +0.116 C 
BRANCH  13  14
ATOM      7  N   UNL     1     -12.855   7.758  19.560  0.00  0.00    -0.263 NA
ATOM     14  C   UNL     1     -13.531   6.025  21.646  0.00  0.00    -0.031 A 
ATOM     16  C   UNL     1     -12.198   6.220  21.305  0.00  0.00    +0.024 A 
ATOM     17  C   UNL     1     -14.527   6.695  20.944  0.00  0.00    +0.024 A 
ATOM     19  C   UNL     1     -11.914   7.089  20.264  0.00  0.00    +0.111 A 
ATOM     20  C   UNL     1     -14.140   7.543  19.920  0.00  0.00    +0.111 A 
ENDBRANCH  13  14
ENDBRANCH   5  13
ENDBRANCH   8   5
BRANCH  10  12
ATOM     12  C   UNL     1     -17.397   1.700  25.740  0.00  0.00    +0.138 C 
BRANCH  12   6
ATOM      4  O   UNL     1     -17.630   0.285  28.229  0.00  0.00    -0.270 OA
ATOM      6  N   UNL     1     -16.561   1.855  26.895  0.00  0.00    -0.309 N 
ATOM     15  C   UNL     1     -16.747   1.124  28.064  0.00  0.00    +0.244 C 
ATOM     28  H   UNL     1     -15.856   2.583  26.851  0.00  0.00    +0.149 HD
BRANCH  15  18
ATOM      1  F   UNL     1     -13.211   2.243  32.280  0.00  0.00    -0.205 F 
ATOM     18  C   UNL     1     -15.812   1.421  29.180  0.00  0.00    +0.037 A 
ATOM     21  C   UNL     1     -15.632   0.492  30.205  0.00  0.00    +0.016 A 
ATOM     22  C   UNL     1     -15.113   2.627  29.203  0.00  0.00    +0.016 A 
ATOM     23  C   UNL     1     -14.754   0.770  31.252  0.00  0.00    +0.039 A 
ATOM     24  C   UNL     1     -14.235   2.905  30.250  0.00  0.00    +0.039 A 
ATOM     25  C   UNL     1     -14.055   1.976  31.275  0.00  0.00    +0.123 A 
ENDBRANCH  15  18
ENDBRANCH  12   6
ENDBRANCH  10  12
TORSDOF 7
ENDMDL
MODEL 6
REMARK VINA RESULT:      -6.7      3.199      7.321
REMARK  Name = 75536825
REMARK  7 active torsions:
REMARK  status: ('A' for Active; 'I' for Inactive)
REMARK    1  A    between atoms: O_3  and  C_9
REMARK    2  A    between atoms: N_5  and  C_8
REMARK    3  A    between atoms: N_5  and  C_13
REMARK    4  A    between atoms: N_6  and  C_12
REMARK    5  A    between atoms: C_10  and  C_12
REMARK    6  A    between atoms: C_13  and  C_14
REMARK    7  A    between atoms: C_15  and  C_18
REMARK                            x       y       z     vdW  Elec       q    Type
REMARK                         _______ _______ _______ _____ _____    ______ ____
ROOT
ATOM      2  O   UNL     1      14.298   7.314  18.395  0.00  0.00    -0.371 OA
ATOM      8  C   UNL     1      14.962   6.468  20.513  0.00  0.00    +0.111 C 
ATOM      9  C   UNL     1      13.567   7.056  20.630  0.00  0.00    +0.164 C 
ATOM     10  C   UNL     1      13.121   7.044  19.174  0.00  0.00    +0.165 C 
ATOM     11  C   UNL     1      15.454   7.114  19.228  0.00  0.00    +0.181 C 
ENDROOT
BRANCH   9   3
ATOM      3  O   UNL     1      12.714   6.282  21.451  0.00  0.00    -0.388 OA
ATOM     27  H   UNL     1      11.895   6.785  21.598  0.00  0.00    +0.210 HD
ENDBRANCH   9   3
BRANCH   8   5
ATOM      5  N   UNL     1      15.814   6.757  21.654  0.00  0.00    -0.305 NA
ATOM     26  H   UNL     1      16.523   6.029  21.734  0.00  0.00    +0.123 HD
BRANCH   5  13
ATOM     13  C   UNL     1      16.477   8.047  21.501  0.00  0.00    +0.116 C 
BRANCH  13  14
ATOM      7  N   UNL     1      20.760   7.668  21.585  0.00  0.00    -0.263 NA
ATOM     14  C   UNL     1      17.976   7.914  21.530  0.00  0.00    -0.031 A 
ATOM     16  C   UNL     1      18.576   6.702  21.210  0.00  0.00    +0.024 A 
ATOM     17  C   UNL     1      18.767   9.005  21.876  0.00  0.00    +0.024 A 
ATOM     19  C   UNL     1      19.959   6.631  21.252  0.00  0.00    +0.111 A 
ATOM     20  C   UNL     1      20.141   8.832  21.889  0.00  0.00    +0.111 A 
ENDBRANCH  13  14
ENDBRANCH   5  13
ENDBRANCH   8   5
BRANCH  10  12
ATOM     12  C   UNL     1      12.052   8.077  18.864  0.00  0.00    +0.138 C 
BRANCH  12   6
ATOM      4  O   UNL     1      12.786  10.786  19.475  0.00  0.00    -0.270 OA
ATOM      6  N   UNL     1      11.689   8.820  20.036  0.00  0.00    -0.309 N 
ATOM     15  C   UNL     1      12.091  10.135  20.251  0.00  0.00    +0.244 C 
ATOM     28  H   UNL     1      11.174   8.317  20.750  0.00  0.00    +0.149 HD
BRANCH  15  18
ATOM      1  F   UNL     1      10.431  12.481  25.074  0.00  0.00    -0.205 F 
ATOM     18  C   UNL     1      11.652  10.755  21.527  0.00  0.00    +0.037 A 
ATOM     21  C   UNL     1      11.516  12.140  21.618  0.00  0.00    +0.016 A 
ATOM     22  C   UNL     1      11.376   9.954  22.634  0.00  0.00    +0.016 A 
ATOM     23  C   UNL     1      11.104  12.724  22.816  0.00  0.00    +0.039 A 
ATOM     24  C   UNL     1      10.964  10.537  23.832  0.00  0.00    +0.039 A 
ATOM     25  C   UNL     1      10.828  11.922  23.924  0.00  0.00    +0.123 A 
ENDBRANCH  15  18
ENDBRANCH  12   6
ENDBRANCH  10  12
TORSDOF 7
ENDMDL
MODEL 7
REMARK VINA RESULT:      -6.5     27.666     30.089
REMARK  Name = 75536825
REMARK  7 active torsions:
REMARK  status: ('A' for Active; 'I' for Inactive)
REMARK    1  A    between atoms: O_3  and  C_9
REMARK    2  A    between atoms: N_5  and  C_8
REMARK    3  A    between atoms: N_5  and  C_13
REMARK    4  A    between atoms: N_6  and  C_12
REMARK    5  A    between atoms: C_10  and  C_12
REMARK    6  A    between atoms: C_13  and  C_14
REMARK    7  A    between atoms: C_15  and  C_18
REMARK                            x       y       z     vdW  Elec       q    Type
REMARK                         _______ _______ _______ _____ _____    ______ ____
ROOT
ATOM      2  O   UNL     1     -17.489   1.777  25.339  0.00  0.00    -0.371 OA
ATOM      8  C   UNL     1     -16.457   3.222  26.916  0.00  0.00    +0.111 C 
ATOM      9  C   UNL     1     -16.136   3.709  25.514  0.00  0.00    +0.164 C 
ATOM     10  C   UNL     1     -17.249   3.047  24.712  0.00  0.00    +0.165 C 
ATOM     11  C   UNL     1     -16.888   1.790  26.646  0.00  0.00    +0.181 C 
ENDROOT
BRANCH   9   3
ATOM      3  O   UNL     1     -16.171   5.118  25.403  0.00  0.00    -0.388 OA
ATOM     27  H   UNL     1     -15.965   5.498  26.274  0.00  0.00    +0.210 HD
ENDBRANCH   9   3
BRANCH   8   5
ATOM      5  N   UNL     1     -15.335   3.312  27.835  0.00  0.00    -0.305 NA
ATOM     26  H   UNL     1     -14.586   3.848  27.395  0.00  0.00    +0.123 HD
BRANCH   5  13
ATOM     13  C   UNL     1     -15.724   3.975  29.075  0.00  0.00    +0.116 C 
BRANCH  13  14
ATOM      7  N   UNL     1     -13.521   2.474  32.450  0.00  0.00    -0.263 NA
ATOM     14  C   UNL     1     -14.953   3.450  30.257  0.00  0.00    -0.031 A 
ATOM     16  C   UNL     1     -14.797   4.234  31.393  0.00  0.00    +0.024 A 
ATOM     17  C   UNL     1     -14.395   2.177  30.216  0.00  0.00    +0.024 A 
ATOM     19  C   UNL     1     -14.078   3.706  32.454  0.00  0.00    +0.111 A 
ATOM     20  C   UNL     1     -13.694   1.740  31.328  0.00  0.00    +0.111 A 
ENDBRANCH  13  14
ENDBRANCH   5  13
ENDBRANCH   8   5
BRANCH  10  12
ATOM     12  C   UNL     1     -16.895   2.840  23.250  0.00  0.00    +0.138 C 
BRANCH  12   6
ATOM      4  O   UNL     1     -17.062   5.112  21.500  0.00  0.00    -0.270 OA
ATOM      6  N   UNL     1     -15.814   3.693  22.849  0.00  0.00    -0.309 N 
ATOM     15  C   UNL     1     -15.987   4.777  21.993  0.00  0.00    +0.244 C 
ATOM     28  H   UNL     1     -14.887   3.430  23.164  0.00  0.00    +0.149 HD
BRANCH  15  18
ATOM      1  F   UNL     1     -11.361   7.689  20.712  0.00  0.00    -0.205 F 
ATOM     18  C   UNL     1     -14.763   5.547  21.654  0.00  0.00    +0.037 A 
ATOM     21  C   UNL     1     -14.867   6.751  20.957  0.00  0.00    +0.016 A 
ATOM     22  C   UNL     1     -13.509   5.068  22.033  0.00  0.00    +0.016 A 
ATOM     23  C   UNL     1     -13.718   7.474  20.638  0.00  0.00    +0.039 A 
ATOM     24  C   UNL     1     -12.361   5.792  21.715  0.00  0.00    +0.039 A 
ATOM     25  C   UNL     1     -12.464   6.995  21.017  0.00  0.00    +0.123 A 
ENDBRANCH  15  18
ENDBRANCH  12   6
ENDBRANCH  10  12
TORSDOF 7
ENDMDL
MODEL 8
REMARK VINA RESULT:      -6.5     26.056     27.909
REMARK  Name = 75536825
REMARK  7 active torsions:
REMARK  status: ('A' for Active; 'I' for Inactive)
REMARK    1  A    between atoms: O_3  and  C_9
REMARK    2  A    between atoms: N_5  and  C_8
REMARK    3  A    between atoms: N_5  and  C_13
REMARK    4  A    between atoms: N_6  and  C_12
REMARK    5  A    between atoms: C_10  and  C_12
REMARK    6  A    between atoms: C_13  and  C_14
REMARK    7  A    between atoms: C_15  and  C_18
REMARK                            x       y       z     vdW  Elec       q    Type
REMARK                         _______ _______ _______ _____ _____    ______ ____
ROOT
ATOM      2  O   UNL     1      -1.180 -11.468  15.130  0.00  0.00    -0.371 OA
ATOM      8  C   UNL     1      -3.239 -11.160  16.275  0.00  0.00    +0.111 C 
ATOM      9  C   UNL     1      -3.518 -11.745  14.902  0.00  0.00    +0.164 C 
ATOM     10  C   UNL     1      -2.163 -12.347  14.558  0.00  0.00    +0.165 C 
ATOM     11  C   UNL     1      -1.832 -10.616  16.089  0.00  0.00    +0.181 C 
ENDROOT
BRANCH   9   3
ATOM      3  O   UNL     1      -4.541 -12.722  14.923  0.00  0.00    -0.388 OA
ATOM     27  H   UNL     1      -5.177 -12.484  15.619  0.00  0.00    +0.210 HD
ENDBRANCH   9   3
BRANCH   8   5
ATOM      5  N   UNL     1      -4.191 -10.140  16.679  0.00  0.00    -0.305 NA
ATOM     26  H   UNL     1      -4.858  -9.988  15.922  0.00  0.00    +0.123 HD
BRANCH   5  13
ATOM     13  C   UNL     1      -4.920 -10.546  17.876  0.00  0.00    +0.116 C 
BRANCH  13  14
ATOM      7  N   UNL     1      -9.139  -9.799  17.511  0.00  0.00    -0.263 NA
ATOM     14  C   UNL     1      -6.398 -10.285  17.748  0.00  0.00    -0.031 A 
ATOM     16  C   UNL     1      -7.292 -10.894  18.620  0.00  0.00    +0.024 A 
ATOM     17  C   UNL     1      -6.872  -9.431  16.758  0.00  0.00    +0.024 A 
ATOM     19  C   UNL     1      -8.641 -10.622  18.461  0.00  0.00    +0.111 A 
ATOM     20  C   UNL     1      -8.239  -9.224  16.682  0.00  0.00    +0.111 A 
ENDBRANCH  13  14
ENDBRANCH   5  13
ENDBRANCH   8   5
BRANCH  10  12
ATOM     12  C   UNL     1      -1.926 -12.481  13.064  0.00  0.00    +0.138 C 
BRANCH  12   6
ATOM      4  O   UNL     1      -1.443  -9.922  11.851  0.00  0.00    -0.270 OA
ATOM      6  N   UNL     1      -2.864 -11.697  12.315  0.00  0.00    -0.309 N 
ATOM     15  C   UNL     1      -2.543 -10.462  11.760  0.00  0.00    +0.244 C 
ATOM     28  H   UNL     1      -3.813 -12.053  12.262  0.00  0.00    +0.149 HD
BRANCH  15  18
ATOM      1  F   UNL     1      -6.671  -7.825   9.017  0.00  0.00    -0.205 F 
ATOM     18  C   UNL     1      -3.636  -9.764  11.035  0.00  0.00    +0.037 A 
ATOM     21  C   UNL     1      -3.433  -9.323   9.727  0.00  0.00    +0.016 A 
ATOM     22  C   UNL     1      -4.863  -9.550  11.660  0.00  0.00    +0.016 A 
ATOM     23  C   UNL     1      -4.458  -8.667   9.046  0.00  0.00    +0.039 A 
ATOM     24  C   UNL     1      -5.888  -8.895  10.979  0.00  0.00    +0.039 A 
ATOM     25  C   UNL     1      -5.686  -8.453   9.672  0.00  0.00    +0.123 A 
ENDBRANCH  15  18
ENDBRANCH  12   6
ENDBRANCH  10  12
TORSDOF 7
ENDMDL
MODEL 9
REMARK VINA RESULT:      -6.4     26.332     29.176
REMARK  Name = 75536825
REMARK  7 active torsions:
REMARK  status: ('A' for Active; 'I' for Inactive)
REMARK    1  A    between atoms: O_3  and  C_9
REMARK    2  A    between atoms: N_5  and  C_8
REMARK    3  A    between atoms: N_5  and  C_13
REMARK    4  A    between atoms: N_6  and  C_12
REMARK    5  A    between atoms: C_10  and  C_12
REMARK    6  A    between atoms: C_13  and  C_14
REMARK    7  A    between atoms: C_15  and  C_18
REMARK                            x       y       z     vdW  Elec       q    Type
REMARK                         _______ _______ _______ _____ _____    ______ ____
ROOT
ATOM      2  O   UNL     1     -17.183   5.536  23.491  0.00  0.00    -0.371 OA
ATOM      8  C   UNL     1     -16.127   4.275  25.205  0.00  0.00    +0.111 C 
ATOM      9  C   UNL     1     -15.267   4.229  23.955  0.00  0.00    +0.164 C 
ATOM     10  C   UNL     1     -15.778   5.450  23.202  0.00  0.00    +0.165 C 
ATOM     11  C   UNL     1     -17.467   4.707  24.632  0.00  0.00    +0.181 C 
ENDROOT
BRANCH   9   3
ATOM      3  O   UNL     1     -13.885   4.323  24.239  0.00  0.00    -0.388 OA
ATOM     27  H   UNL     1     -13.402   3.791  23.583  0.00  0.00    +0.210 HD
ENDBRANCH   9   3
BRANCH   8   5
ATOM      5  N   UNL     1     -16.196   3.007  25.912  0.00  0.00    -0.305 NA
ATOM     26  H   UNL     1     -15.250   2.648  26.046  0.00  0.00    +0.123 HD
BRANCH   5  13
ATOM     13  C   UNL     1     -16.830   3.167  27.216  0.00  0.00    +0.116 C 
BRANCH  13  14
ATOM      7  N   UNL     1     -14.507   1.370  30.358  0.00  0.00    -0.263 NA
ATOM     14  C   UNL     1     -16.017   2.537  28.316  0.00  0.00    -0.031 A 
ATOM     16  C   UNL     1     -16.095   1.169  28.547  0.00  0.00    +0.024 A 
ATOM     17  C   UNL     1     -15.183   3.323  29.104  0.00  0.00    +0.024 A 
ATOM     19  C   UNL     1     -15.328   0.638  29.571  0.00  0.00    +0.111 A 
ATOM     20  C   UNL     1     -14.456   2.697  30.103  0.00  0.00    +0.111 A 
ENDBRANCH  13  14
ENDBRANCH   5  13
ENDBRANCH   8   5
BRANCH  10  12
ATOM     12  C   UNL     1     -15.567   5.362  21.701  0.00  0.00    +0.138 C 
BRANCH  12   6
ATOM      4  O   UNL     1     -12.701   5.456  21.876  0.00  0.00    -0.270 OA
ATOM      6  N   UNL     1     -14.714   6.415  21.232  0.00  0.00    -0.309 N 
ATOM     15  C   UNL     1     -13.329   6.377  21.359  0.00  0.00    +0.244 C 
ATOM     28  H   UNL     1     -15.173   7.238  20.858  0.00  0.00    +0.149 HD
BRANCH  15  18
ATOM      1  F   UNL     1     -10.537  10.843  19.414  0.00  0.00    -0.205 F 
ATOM     18  C   UNL     1     -12.590   7.560  20.845  0.00  0.00    +0.037 A 
ATOM     21  C   UNL     1     -11.610   7.397  19.866  0.00  0.00    +0.016 A 
ATOM     22  C   UNL     1     -12.877   8.831  21.339  0.00  0.00    +0.016 A 
ATOM     23  C   UNL     1     -10.916   8.506  19.383  0.00  0.00    +0.039 A 
ATOM     24  C   UNL     1     -12.183   9.940  20.857  0.00  0.00    +0.039 A 
ATOM     25  C   UNL     1     -11.202   9.778  19.878  0.00  0.00    +0.123 A 
ENDBRANCH  15  18
ENDBRANCH  12   6
ENDBRANCH  10  12
TORSDOF 7
ENDMDL
MODEL 10
REMARK VINA RESULT:      -6.4     26.570     28.031
REMARK  Name = 75536825
REMARK  7 active torsions:
REMARK  status: ('A' for Active; 'I' for Inactive)
REMARK    1  A    between atoms: O_3  and  C_9
REMARK    2  A    between atoms: N_5  and  C_8
REMARK    3  A    between atoms: N_5  and  C_13
REMARK    4  A    between atoms: N_6  and  C_12
REMARK    5  A    between atoms: C_10  and  C_12
REMARK    6  A    between atoms: C_13  and  C_14
REMARK    7  A    between atoms: C_15  and  C_18
REMARK                            x       y       z     vdW  Elec       q    Type
REMARK                         _______ _______ _______ _____ _____    ______ ____
ROOT
ATOM      2  O   UNL     1      -4.728 -11.236  18.788  0.00  0.00    -0.371 OA
ATOM      8  C   UNL     1      -6.881 -10.514  18.090  0.00  0.00    +0.111 C 
ATOM      9  C   UNL     1      -5.894 -10.297  16.957  0.00  0.00    +0.164 C 
ATOM     10  C   UNL     1      -4.778 -11.254  17.352  0.00  0.00    +0.165 C 
ATOM     11  C   UNL     1      -5.946 -10.650  19.281  0.00  0.00    +0.181 C 
ENDROOT
BRANCH   9   3
ATOM      3  O   UNL     1      -6.438 -10.613  15.690  0.00  0.00    -0.388 OA
ATOM     27  H   UNL     1      -5.834 -11.232  15.245  0.00  0.00    +0.210 HD
ENDBRANCH   9   3
BRANCH   8   5
ATOM      5  N   UNL     1      -7.840  -9.433  18.243  0.00  0.00    -0.305 NA
ATOM     26  H   UNL     1      -7.582  -8.668  17.619  0.00  0.00    +0.123 HD
BRANCH   5  13
ATOM     13  C   UNL     1      -9.189  -9.878  17.912  0.00  0.00    +0.116 C 
BRANCH  13  14
ATOM      7  N   UNL     1     -11.034  -7.340  14.971  0.00  0.00    -0.263 NA
ATOM     14  C   UNL     1      -9.835  -8.990  16.882  0.00  0.00    -0.031 A 
ATOM     16  C   UNL     1     -10.191  -9.504  15.641  0.00  0.00    +0.024 A 
ATOM     17  C   UNL     1     -10.080  -7.651  17.170  0.00  0.00    +0.024 A 
ATOM     19  C   UNL     1     -10.782  -8.646  14.727  0.00  0.00    +0.111 A 
ATOM     20  C   UNL     1     -10.676  -6.876  16.189  0.00  0.00    +0.111 A 
ENDBRANCH  13  14
ENDBRANCH   5  13
ENDBRANCH   8   5
BRANCH  10  12
ATOM     12  C   UNL     1      -3.423 -10.865  16.786  0.00  0.00    +0.138 C 
BRANCH  12   6
ATOM      4  O   UNL     1      -1.884 -11.881  14.584  0.00  0.00    -0.270 OA
ATOM      6  N   UNL     1      -3.527 -10.466  15.413  0.00  0.00    -0.309 N 
ATOM     15  C   UNL     1      -2.737 -11.014  14.406  0.00  0.00    +0.244 C 
ATOM     28  H   UNL     1      -4.164  -9.704  15.208  0.00  0.00    +0.149 HD
BRANCH  15  18
ATOM      1  F   UNL     1      -3.541  -8.974   9.238  0.00  0.00    -0.205 F 
ATOM     18  C   UNL     1      -2.949 -10.475  13.038  0.00  0.00    +0.037 A 
ATOM     21  C   UNL     1      -4.245 -10.293  12.554  0.00  0.00    +0.016 A 
ATOM     22  C   UNL     1      -1.855 -10.149  12.239  0.00  0.00    +0.016 A 
ATOM     23  C   UNL     1      -4.445  -9.787  11.270  0.00  0.00    +0.039 A 
ATOM     24  C   UNL     1      -2.054  -9.642  10.955  0.00  0.00    +0.039 A 
ATOM     25  C   UNL     1      -3.349  -9.461  10.470  0.00  0.00    +0.123 A 
ENDBRANCH  15  18
ENDBRANCH  12   6
ENDBRANCH  10  12
TORSDOF 7
ENDMDL
