MODEL 1
REMARK VINA RESULT:      -7.6      0.000      0.000
REMARK  Name = 25313072
REMARK  10 active torsions:
REMARK  status: ('A' for Active; 'I' for Inactive)
REMARK    1  A    between atoms: O_2  and  C_21
REMARK    2  A    between atoms: O_4  and  C_22
REMARK    3  A    between atoms: O_4  and  C_28
REMARK    4  A    between atoms: N_6  and  C_14
REMARK    5  A    between atoms: N_7  and  C_23
REMARK    6  A    between atoms: C_8  and  C_12
REMARK    7  A    between atoms: C_9  and  C_15
REMARK    8  A    between atoms: C_12  and  C_14
REMARK    9  A    between atoms: C_15  and  C_21
REMARK   10  A    between atoms: C_18  and  C_22
REMARK                            x       y       z     vdW  Elec       q    Type
REMARK                         _______ _______ _______ _____ _____    ______ ____
ROOT
ATOM      1  O   UNL     1      11.402   6.080  21.501  0.00  0.00    -0.272 OA
ATOM      5  N   UNL     1      11.418   8.389  21.236  0.00  0.00    -0.298 N 
ATOM      8  C   UNL     1      12.437  10.623  21.612  0.00  0.00    +0.011 C 
ATOM      9  C   UNL     1      11.355  10.895  22.689  0.00  0.00    +0.006 C 
ATOM     10  C   UNL     1      11.908   9.609  20.582  0.00  0.00    +0.111 C 
ATOM     11  C   UNL     1      10.835   9.588  23.310  0.00  0.00    +0.023 C 
ATOM     13  C   UNL     1      10.372   8.608  22.235  0.00  0.00    +0.108 C 
ATOM     18  C   UNL     1      11.849   7.093  20.955  0.00  0.00    +0.253 C 
ENDROOT
BRANCH   8  12
ATOM     12  C   UNL     1      13.779  10.150  22.184  0.00  0.00    +0.020 C 
BRANCH  12  14
ATOM     14  C   UNL     1      14.934  10.940  21.585  0.00  0.00    +0.085 C 
BRANCH  14   6
ATOM      6  N   UNL     1      15.996  10.026  21.165  0.00  0.00    -0.299 NA
ATOM      7  N   UNL     1      18.057   8.082  21.525  0.00  0.00    -0.327 N 
ATOM     16  C   UNL     1      15.659   8.644  21.524  0.00  0.00    +0.103 C 
ATOM     17  C   UNL     1      17.274  10.405  21.780  0.00  0.00    +0.103 C 
ATOM     19  C   UNL     1      16.736   7.670  21.040  0.00  0.00    +0.120 C 
ATOM     20  C   UNL     1      18.404   9.491  21.303  0.00  0.00    +0.120 C 
BRANCH   7  23
ATOM     23  C   UNL     1      19.098   7.148  21.581  0.00  0.00    +0.030 A 
ATOM     24  C   UNL     1      19.970   7.140  22.669  0.00  0.00    +0.023 A 
ATOM     25  C   UNL     1      19.263   6.224  20.549  0.00  0.00    +0.023 A 
ATOM     26  C   UNL     1      21.007   6.210  22.725  0.00  0.00    +0.002 A 
ATOM     27  C   UNL     1      20.300   5.294  20.605  0.00  0.00    +0.002 A 
ATOM     29  C   UNL     1      21.173   5.287  21.693  0.00  0.00    +0.000 A 
ENDBRANCH   7  23
ENDBRANCH  14   6
ENDBRANCH  12  14
ENDBRANCH   8  12
BRANCH   9  15
ATOM     15  C   UNL     1      11.819  11.862  23.777  0.00  0.00    +0.124 C 
BRANCH  15  21
ATOM      3  O   UNL     1      10.492  12.586  25.688  0.00  0.00    -0.251 OA
ATOM     21  C   UNL     1      10.657  12.507  24.480  0.00  0.00    +0.305 C 
BRANCH  21   2
ATOM      2  O   UNL     1       9.787  13.004  23.565  0.00  0.00    -0.481 OA
ATOM     35  H   UNL     1       9.821  13.984  23.522  0.00  0.00    +0.295 HD
ENDBRANCH  21   2
ENDBRANCH  15  21
ENDBRANCH   9  15
BRANCH  18  22
ATOM     22  C   UNL     1      12.932   6.951  19.916  0.00  0.00    +0.324 C 
BRANCH  22   4
ATOM      4  O   UNL     1      12.285   6.746  18.685  0.00  0.00    -0.483 OA
BRANCH   4  28
ATOM     28  C   UNL     1      12.492   7.683  17.697  0.00  0.00    +0.121 A 
ATOM     30  C   UNL     1      11.404   8.325  17.105  0.00  0.00    +0.045 A 
ATOM     31  C   UNL     1      13.790   7.990  17.288  0.00  0.00    +0.045 A 
ATOM     32  C   UNL     1      11.613   9.274  16.105  0.00  0.00    +0.004 A 
ATOM     33  C   UNL     1      13.999   8.940  16.288  0.00  0.00    +0.004 A 
ATOM     34  C   UNL     1      12.912   9.582  15.696  0.00  0.00    +0.000 A 
ENDBRANCH   4  28
ENDBRANCH  22   4
ENDBRANCH  18  22
TORSDOF 10
ENDMDL
MODEL 2
REMARK VINA RESULT:      -6.8     15.561     20.082
REMARK  Name = 25313072
REMARK  10 active torsions:
REMARK  status: ('A' for Active; 'I' for Inactive)
REMARK    1  A    between atoms: O_2  and  C_21
REMARK    2  A    between atoms: O_4  and  C_22
REMARK    3  A    between atoms: O_4  and  C_28
REMARK    4  A    between atoms: N_6  and  C_14
REMARK    5  A    between atoms: N_7  and  C_23
REMARK    6  A    between atoms: C_8  and  C_12
REMARK    7  A    between atoms: C_9  and  C_15
REMARK    8  A    between atoms: C_12  and  C_14
REMARK    9  A    between atoms: C_15  and  C_21
REMARK   10  A    between atoms: C_18  and  C_22
REMARK                            x       y       z     vdW  Elec       q    Type
REMARK                         _______ _______ _______ _____ _____    ______ ____
ROOT
ATOM      1  O   UNL     1      10.860   4.129   0.705  0.00  0.00    -0.272 OA
ATOM      5  N   UNL     1      13.176   3.939   0.692  0.00  0.00    -0.298 N 
ATOM      8  C   UNL     1      15.445   4.909   0.409  0.00  0.00    +0.011 C 
ATOM      9  C   UNL     1      15.522   4.229  -0.982  0.00  0.00    +0.006 C 
ATOM     10  C   UNL     1      14.489   4.123   1.323  0.00  0.00    +0.111 C 
ATOM     11  C   UNL     1      14.123   4.010  -1.583  0.00  0.00    +0.023 C 
ATOM     13  C   UNL     1      13.210   3.270  -0.608  0.00  0.00    +0.108 C 
ATOM     18  C   UNL     1      11.954   4.319   1.245  0.00  0.00    +0.253 C 
ENDROOT
BRANCH   8  12
ATOM     12  C   UNL     1      15.039   6.387   0.358  0.00  0.00    +0.020 C 
BRANCH  12  14
ATOM     14  C   UNL     1      15.985   7.240   1.190  0.00  0.00    +0.085 C 
BRANCH  14   6
ATOM      6  N   UNL     1      15.261   7.834   2.313  0.00  0.00    -0.299 NA
ATOM      7  N   UNL     1      13.275   7.960   4.362  0.00  0.00    -0.327 N 
ATOM     16  C   UNL     1      15.366   6.981   3.503  0.00  0.00    +0.103 C 
ATOM     17  C   UNL     1      13.849   8.037   1.966  0.00  0.00    +0.103 C 
ATOM     19  C   UNL     1      14.660   7.619   4.702  0.00  0.00    +0.120 C 
ATOM     20  C   UNL     1      13.094   8.711   3.114  0.00  0.00    +0.120 C 
BRANCH   7  23
ATOM     23  C   UNL     1      12.334   8.142   5.382  0.00  0.00    +0.030 A 
ATOM     24  C   UNL     1      11.585   9.317   5.437  0.00  0.00    +0.023 A 
ATOM     25  C   UNL     1      12.146   7.149   6.342  0.00  0.00    +0.023 A 
ATOM     26  C   UNL     1      10.647   9.499   6.453  0.00  0.00    +0.002 A 
ATOM     27  C   UNL     1      11.208   7.331   7.359  0.00  0.00    +0.002 A 
ATOM     29  C   UNL     1      10.459   8.506   7.415  0.00  0.00    +0.000 A 
ENDBRANCH   7  23
ENDBRANCH  14   6
ENDBRANCH  12  14
ENDBRANCH   8  12
BRANCH   9  15
ATOM     15  C   UNL     1      16.421   4.975  -1.968  0.00  0.00    +0.124 C 
BRANCH  15  21
ATOM      3  O   UNL     1      18.817   5.042  -2.406  0.00  0.00    -0.251 OA
ATOM     21  C   UNL     1      17.850   4.520  -1.871  0.00  0.00    +0.305 C 
BRANCH  21   2
ATOM      2  O   UNL     1      17.927   3.415  -1.086  0.00  0.00    -0.481 OA
ATOM     35  H   UNL     1      17.109   2.876  -1.131  0.00  0.00    +0.295 HD
ENDBRANCH  21   2
ENDBRANCH  15  21
ENDBRANCH   9  15
BRANCH  18  22
ATOM     22  C   UNL     1      12.003   5.006   2.586  0.00  0.00    +0.324 C 
BRANCH  22   4
ATOM      4  O   UNL     1      10.945   4.477   3.348  0.00  0.00    -0.483 OA
BRANCH   4  28
ATOM     28  C   UNL     1      10.026   5.368   3.858  0.00  0.00    +0.121 A 
ATOM     30  C   UNL     1       9.785   6.574   3.201  0.00  0.00    +0.045 A 
ATOM     31  C   UNL     1       9.337   5.063   5.032  0.00  0.00    +0.045 A 
ATOM     32  C   UNL     1       8.854   7.476   3.717  0.00  0.00    +0.004 A 
ATOM     33  C   UNL     1       8.407   5.965   5.548  0.00  0.00    +0.004 A 
ATOM     34  C   UNL     1       8.165   7.171   4.891  0.00  0.00    +0.000 A 
ENDBRANCH   4  28
ENDBRANCH  22   4
ENDBRANCH  18  22
TORSDOF 10
ENDMDL
MODEL 3
REMARK VINA RESULT:      -6.7     27.072     29.801
REMARK  Name = 25313072
REMARK  10 active torsions:
REMARK  status: ('A' for Active; 'I' for Inactive)
REMARK    1  A    between atoms: O_2  and  C_21
REMARK    2  A    between atoms: O_4  and  C_22
REMARK    3  A    between atoms: O_4  and  C_28
REMARK    4  A    between atoms: N_6  and  C_14
REMARK    5  A    between atoms: N_7  and  C_23
REMARK    6  A    between atoms: C_8  and  C_12
REMARK    7  A    between atoms: C_9  and  C_15
REMARK    8  A    between atoms: C_12  and  C_14
REMARK    9  A    between atoms: C_15  and  C_21
REMARK   10  A    between atoms: C_18  and  C_22
REMARK                            x       y       z     vdW  Elec       q    Type
REMARK                         _______ _______ _______ _____ _____    ______ ____
ROOT
ATOM      1  O   UNL     1      -2.002 -10.306  13.993  0.00  0.00    -0.272 OA
ATOM      5  N   UNL     1      -3.561 -11.466  15.268  0.00  0.00    -0.298 N 
ATOM      8  C   UNL     1      -5.893 -11.884  16.017  0.00  0.00    +0.011 C 
ATOM      9  C   UNL     1      -5.559 -11.155  17.343  0.00  0.00    +0.006 C 
ATOM     10  C   UNL     1      -4.611 -12.483  15.412  0.00  0.00    +0.111 C 
ATOM     11  C   UNL     1      -4.422 -10.136  17.158  0.00  0.00    +0.023 C 
ATOM     13  C   UNL     1      -3.199 -10.781  16.509  0.00  0.00    +0.108 C 
ATOM     18  C   UNL     1      -2.900 -11.149  14.083  0.00  0.00    +0.253 C 
ENDROOT
BRANCH   8  12
ATOM     12  C   UNL     1      -6.608 -11.003  14.985  0.00  0.00    +0.020 C 
BRANCH  12  14
ATOM     14  C   UNL     1      -6.967 -11.804  13.742  0.00  0.00    +0.085 C 
BRANCH  14   6
ATOM      6  N   UNL     1      -7.535 -10.919  12.726  0.00  0.00    -0.299 NA
ATOM      7  N   UNL     1      -7.805  -9.768  10.126  0.00  0.00    -0.327 N 
ATOM     16  C   UNL     1      -8.109 -11.699  11.624  0.00  0.00    +0.103 C 
ATOM     17  C   UNL     1      -6.509 -10.004  12.210  0.00  0.00    +0.103 C 
ATOM     19  C   UNL     1      -8.756 -10.786  10.580  0.00  0.00    +0.120 C 
ATOM     20  C   UNL     1      -7.104  -9.034  11.187  0.00  0.00    +0.120 C 
BRANCH   7  23
ATOM     23  C   UNL     1      -8.013  -9.119   8.904  0.00  0.00    +0.030 A 
ATOM     24  C   UNL     1      -8.357  -9.857   7.772  0.00  0.00    +0.023 A 
ATOM     25  C   UNL     1      -7.879  -7.733   8.818  0.00  0.00    +0.023 A 
ATOM     26  C   UNL     1      -8.565  -9.211   6.554  0.00  0.00    +0.002 A 
ATOM     27  C   UNL     1      -8.087  -7.087   7.600  0.00  0.00    +0.002 A 
ATOM     29  C   UNL     1      -8.429  -7.825   6.467  0.00  0.00    +0.000 A 
ENDBRANCH   7  23
ENDBRANCH  14   6
ENDBRANCH  12  14
ENDBRANCH   8  12
BRANCH   9  15
ATOM     15  C   UNL     1      -6.776 -10.493  17.989  0.00  0.00    +0.124 C 
BRANCH  15  21
ATOM      3  O   UNL     1      -5.979 -11.276  20.155  0.00  0.00    -0.251 OA
ATOM     21  C   UNL     1      -6.863 -10.802  19.457  0.00  0.00    +0.305 C 
BRANCH  21   2
ATOM      2  O   UNL     1      -8.096 -10.475  19.922  0.00  0.00    -0.481 OA
ATOM     35  H   UNL     1      -8.487  -9.724  19.426  0.00  0.00    +0.295 HD
ENDBRANCH  21   2
ENDBRANCH  15  21
ENDBRANCH   9  15
BRANCH  18  22
ATOM     22  C   UNL     1      -3.334 -11.895  12.847  0.00  0.00    +0.324 C 
BRANCH  22   4
ATOM      4  O   UNL     1      -2.558 -11.399  11.783  0.00  0.00    -0.483 OA
BRANCH   4  28
ATOM     28  C   UNL     1      -3.230 -10.860  10.708  0.00  0.00    +0.121 A 
ATOM     30  C   UNL     1      -4.007 -11.680   9.890  0.00  0.00    +0.045 A 
ATOM     31  C   UNL     1      -3.133  -9.495  10.438  0.00  0.00    +0.045 A 
ATOM     32  C   UNL     1      -4.688 -11.135   8.801  0.00  0.00    +0.004 A 
ATOM     33  C   UNL     1      -3.814  -8.950   9.349  0.00  0.00    +0.004 A 
ATOM     34  C   UNL     1      -4.591  -9.770   8.531  0.00  0.00    +0.000 A 
ENDBRANCH   4  28
ENDBRANCH  22   4
ENDBRANCH  18  22
TORSDOF 10
ENDMDL
MODEL 4
REMARK VINA RESULT:      -6.5     26.997     30.187
REMARK  Name = 25313072
REMARK  10 active torsions:
REMARK  status: ('A' for Active; 'I' for Inactive)
REMARK    1  A    between atoms: O_2  and  C_21
REMARK    2  A    between atoms: O_4  and  C_22
REMARK    3  A    between atoms: O_4  and  C_28
REMARK    4  A    between atoms: N_6  and  C_14
REMARK    5  A    between atoms: N_7  and  C_23
REMARK    6  A    between atoms: C_8  and  C_12
REMARK    7  A    between atoms: C_9  and  C_15
REMARK    8  A    between atoms: C_12  and  C_14
REMARK    9  A    between atoms: C_15  and  C_21
REMARK   10  A    between atoms: C_18  and  C_22
REMARK                            x       y       z     vdW  Elec       q    Type
REMARK                         _______ _______ _______ _____ _____    ______ ____
ROOT
ATOM      1  O   UNL     1      -4.032 -13.501   8.952  0.00  0.00    -0.272 OA
ATOM      5  N   UNL     1      -4.573 -11.362   8.223  0.00  0.00    -0.298 N 
ATOM      8  C   UNL     1      -6.195  -9.505   7.913  0.00  0.00    +0.011 C 
ATOM      9  C   UNL     1      -6.292  -9.889   6.415  0.00  0.00    +0.006 C 
ATOM     10  C   UNL     1      -4.830  -9.938   8.477  0.00  0.00    +0.111 C 
ATOM     11  C   UNL     1      -5.967 -11.375   6.189  0.00  0.00    +0.023 C 
ATOM     13  C   UNL     1      -4.625 -11.750   6.814  0.00  0.00    +0.108 C 
ATOM     18  C   UNL     1      -4.269 -12.314   9.194  0.00  0.00    +0.253 C 
ENDROOT
BRANCH   8  12
ATOM     12  C   UNL     1      -7.331 -10.071   8.775  0.00  0.00    +0.020 C 
BRANCH  12  14
ATOM     14  C   UNL     1      -7.903  -8.998   9.691  0.00  0.00    +0.085 C 
BRANCH  14   6
ATOM      6  N   UNL     1      -7.665  -9.359  11.088  0.00  0.00    -0.299 NA
ATOM      7  N   UNL     1      -6.295 -10.606  13.263  0.00  0.00    -0.327 N 
ATOM     16  C   UNL     1      -6.365  -8.848  11.538  0.00  0.00    +0.103 C 
ATOM     17  C   UNL     1      -7.715 -10.817  11.259  0.00  0.00    +0.103 C 
ATOM     19  C   UNL     1      -6.128  -9.171  13.016  0.00  0.00    +0.120 C 
ATOM     20  C   UNL     1      -7.524 -11.204  12.727  0.00  0.00    +0.120 C 
BRANCH   7  23
ATOM     23  C   UNL     1      -5.722 -11.186  14.400  0.00  0.00    +0.030 A 
ATOM     24  C   UNL     1      -5.574 -12.571  14.477  0.00  0.00    +0.023 A 
ATOM     25  C   UNL     1      -5.298 -10.380  15.456  0.00  0.00    +0.023 A 
ATOM     26  C   UNL     1      -5.003 -13.149  15.610  0.00  0.00    +0.002 A 
ATOM     27  C   UNL     1      -4.727 -10.959  16.589  0.00  0.00    +0.002 A 
ATOM     29  C   UNL     1      -4.580 -12.343  16.667  0.00  0.00    +0.000 A 
ENDBRANCH   7  23
ENDBRANCH  14   6
ENDBRANCH  12  14
ENDBRANCH   8  12
BRANCH   9  15
ATOM     15  C   UNL     1      -7.639  -9.531   5.788  0.00  0.00    +0.124 C 
BRANCH  15  21
ATOM      3  O   UNL     1      -8.616  -7.301   5.900  0.00  0.00    -0.251 OA
ATOM     21  C   UNL     1      -7.745  -8.059   5.500  0.00  0.00    +0.305 C 
BRANCH  21   2
ATOM      2  O   UNL     1      -6.711  -7.671   4.711  0.00  0.00    -0.481 OA
ATOM     35  H   UNL     1      -6.958  -7.662   3.762  0.00  0.00    +0.295 HD
ENDBRANCH  21   2
ENDBRANCH  15  21
ENDBRANCH   9  15
BRANCH  18  22
ATOM     22  C   UNL     1      -4.239 -11.835  10.624  0.00  0.00    +0.324 C 
BRANCH  22   4
ATOM      4  O   UNL     1      -2.925 -11.400  10.875  0.00  0.00    -0.483 OA
BRANCH   4  28
ATOM     28  C   UNL     1      -2.475 -11.467  12.175  0.00  0.00    +0.121 A 
ATOM     30  C   UNL     1      -2.288 -10.296  12.910  0.00  0.00    +0.045 A 
ATOM     31  C   UNL     1      -2.204 -12.706  12.756  0.00  0.00    +0.045 A 
ATOM     32  C   UNL     1      -1.832 -10.364  14.227  0.00  0.00    +0.004 A 
ATOM     33  C   UNL     1      -1.748 -12.774  14.072  0.00  0.00    +0.004 A 
ATOM     34  C   UNL     1      -1.561 -11.603  14.808  0.00  0.00    +0.000 A 
ENDBRANCH   4  28
ENDBRANCH  22   4
ENDBRANCH  18  22
TORSDOF 10
ENDMDL
MODEL 5
REMARK VINA RESULT:      -6.3     27.006     30.338
REMARK  Name = 25313072
REMARK  10 active torsions:
REMARK  status: ('A' for Active; 'I' for Inactive)
REMARK    1  A    between atoms: O_2  and  C_21
REMARK    2  A    between atoms: O_4  and  C_22
REMARK    3  A    between atoms: O_4  and  C_28
REMARK    4  A    between atoms: N_6  and  C_14
REMARK    5  A    between atoms: N_7  and  C_23
REMARK    6  A    between atoms: C_8  and  C_12
REMARK    7  A    between atoms: C_9  and  C_15
REMARK    8  A    between atoms: C_12  and  C_14
REMARK    9  A    between atoms: C_15  and  C_21
REMARK   10  A    between atoms: C_18  and  C_22
REMARK                            x       y       z     vdW  Elec       q    Type
REMARK                         _______ _______ _______ _____ _____    ______ ____
ROOT
ATOM      1  O   UNL     1      -1.823 -10.596  13.606  0.00  0.00    -0.272 OA
ATOM      5  N   UNL     1      -3.370 -11.576  15.036  0.00  0.00    -0.298 N 
ATOM      8  C   UNL     1      -5.613 -11.659  16.100  0.00  0.00    +0.011 C 
ATOM      9  C   UNL     1      -4.978 -11.099  17.398  0.00  0.00    +0.006 C 
ATOM     10  C   UNL     1      -4.551 -12.413  15.281  0.00  0.00    +0.111 C 
ATOM     11  C   UNL     1      -3.717 -10.272  17.100  0.00  0.00    +0.023 C 
ATOM     13  C   UNL     1      -2.727 -11.058  16.244  0.00  0.00    +0.108 C 
ATOM     18  C   UNL     1      -2.833 -11.282  13.784  0.00  0.00    +0.253 C 
ENDROOT
BRANCH   8  12
ATOM     12  C   UNL     1      -6.299 -10.595  15.233  0.00  0.00    +0.020 C 
BRANCH  12  14
ATOM     14  C   UNL     1      -7.756 -10.955  14.981  0.00  0.00    +0.085 C 
BRANCH  14   6
ATOM      6  N   UNL     1      -8.534 -10.764  16.205  0.00  0.00    -0.299 NA
ATOM      7  N   UNL     1     -10.888 -10.282  17.749  0.00  0.00    -0.327 N 
ATOM     16  C   UNL     1      -9.570 -11.797  16.323  0.00  0.00    +0.103 C 
ATOM     17  C   UNL     1      -9.152  -9.433  16.219  0.00  0.00    +0.103 C 
ATOM     19  C   UNL     1     -10.356 -11.642  17.627  0.00  0.00    +0.120 C 
ATOM     20  C   UNL     1      -9.922  -9.200  17.520  0.00  0.00    +0.120 C 
BRANCH   7  23
ATOM     23  C   UNL     1     -11.965 -10.032  18.606  0.00  0.00    +0.030 A 
ATOM     24  C   UNL     1     -13.242  -9.835  18.081  0.00  0.00    +0.023 A 
ATOM     25  C   UNL     1     -11.763  -9.981  19.985  0.00  0.00    +0.023 A 
ATOM     26  C   UNL     1     -14.317  -9.587  18.935  0.00  0.00    +0.002 A 
ATOM     27  C   UNL     1     -12.837  -9.732  20.839  0.00  0.00    +0.002 A 
ATOM     29  C   UNL     1     -14.114  -9.534  20.314  0.00  0.00    +0.000 A 
ENDBRANCH   7  23
ENDBRANCH  14   6
ENDBRANCH  12  14
ENDBRANCH   8  12
BRANCH   9  15
ATOM     15  C   UNL     1      -5.960 -10.297  18.251  0.00  0.00    +0.124 C 
BRANCH  15  21
ATOM      3  O   UNL     1      -6.690 -12.400  19.242  0.00  0.00    -0.251 OA
ATOM     21  C   UNL     1      -6.725 -11.179  19.198  0.00  0.00    +0.305 C 
BRANCH  21   2
ATOM      2  O   UNL     1      -7.484 -10.415  20.024  0.00  0.00    -0.481 OA
ATOM     35  H   UNL     1      -8.141  -9.882  19.529  0.00  0.00    +0.295 HD
ENDBRANCH  21   2
ENDBRANCH  15  21
ENDBRANCH   9  15
BRANCH  18  22
ATOM     22  C   UNL     1      -3.556 -11.850  12.588  0.00  0.00    +0.324 C 
BRANCH  22   4
ATOM      4  O   UNL     1      -2.806 -11.488  11.455  0.00  0.00    -0.483 OA
BRANCH   4  28
ATOM     28  C   UNL     1      -3.471 -10.842  10.436  0.00  0.00    +0.121 A 
ATOM     30  C   UNL     1      -4.206 -11.577   9.506  0.00  0.00    +0.045 A 
ATOM     31  C   UNL     1      -3.409  -9.452  10.335  0.00  0.00    +0.045 A 
ATOM     32  C   UNL     1      -4.879 -10.923   8.475  0.00  0.00    +0.004 A 
ATOM     33  C   UNL     1      -4.082  -8.798   9.304  0.00  0.00    +0.004 A 
ATOM     34  C   UNL     1      -4.817  -9.532   8.373  0.00  0.00    +0.000 A 
ENDBRANCH   4  28
ENDBRANCH  22   4
ENDBRANCH  18  22
TORSDOF 10
ENDMDL
MODEL 6
REMARK VINA RESULT:      -6.3     14.186     18.711
REMARK  Name = 25313072
REMARK  10 active torsions:
REMARK  status: ('A' for Active; 'I' for Inactive)
REMARK    1  A    between atoms: O_2  and  C_21
REMARK    2  A    between atoms: O_4  and  C_22
REMARK    3  A    between atoms: O_4  and  C_28
REMARK    4  A    between atoms: N_6  and  C_14
REMARK    5  A    between atoms: N_7  and  C_23
REMARK    6  A    between atoms: C_8  and  C_12
REMARK    7  A    between atoms: C_9  and  C_15
REMARK    8  A    between atoms: C_12  and  C_14
REMARK    9  A    between atoms: C_15  and  C_21
REMARK   10  A    between atoms: C_18  and  C_22
REMARK                            x       y       z     vdW  Elec       q    Type
REMARK                         _______ _______ _______ _____ _____    ______ ____
ROOT
ATOM      1  O   UNL     1       8.181  10.097   5.802  0.00  0.00    -0.272 OA
ATOM      5  N   UNL     1       9.725   8.479   6.433  0.00  0.00    -0.298 N 
ATOM      8  C   UNL     1      10.493   6.119   6.545  0.00  0.00    +0.011 C 
ATOM      9  C   UNL     1      10.063   6.088   8.033  0.00  0.00    +0.006 C 
ATOM     10  C   UNL     1      10.830   7.561   6.127  0.00  0.00    +0.111 C 
ATOM     11  C   UNL     1       8.940   7.099   8.319  0.00  0.00    +0.023 C 
ATOM     13  C   UNL     1       9.317   8.498   7.837  0.00  0.00    +0.108 C 
ATOM     18  C   UNL     1       9.092   9.315   5.515  0.00  0.00    +0.253 C 
ENDROOT
BRANCH   8  12
ATOM     12  C   UNL     1       9.459   5.515   5.586  0.00  0.00    +0.020 C 
BRANCH  12  14
ATOM     14  C   UNL     1      10.035   4.311   4.854  0.00  0.00    +0.085 C 
BRANCH  14   6
ATOM      6  N   UNL     1      10.876   4.759   3.744  0.00  0.00    -0.299 NA
ATOM      7  N   UNL     1      11.597   5.139   1.007  0.00  0.00    -0.327 N 
ATOM     16  C   UNL     1      10.158   5.734   2.915  0.00  0.00    +0.103 C 
ATOM     17  C   UNL     1      11.296   3.617   2.923  0.00  0.00    +0.103 C 
ATOM     19  C   UNL     1      11.047   6.254   1.782  0.00  0.00    +0.120 C 
ATOM     20  C   UNL     1      12.223   4.068   1.791  0.00  0.00    +0.120 C 
BRANCH   7  23
ATOM     23  C   UNL     1      12.064   5.361  -0.294  0.00  0.00    +0.030 A 
ATOM     24  C   UNL     1      11.754   4.458  -1.310  0.00  0.00    +0.023 A 
ATOM     25  C   UNL     1      12.839   6.487  -0.574  0.00  0.00    +0.023 A 
ATOM     26  C   UNL     1      12.219   4.679  -2.605  0.00  0.00    +0.002 A 
ATOM     27  C   UNL     1      13.303   6.708  -1.870  0.00  0.00    +0.002 A 
ATOM     29  C   UNL     1      12.994   5.804  -2.886  0.00  0.00    +0.000 A 
ENDBRANCH   7  23
ENDBRANCH  14   6
ENDBRANCH  12  14
ENDBRANCH   8  12
BRANCH   9  15
ATOM     15  C   UNL     1       9.668   4.693   8.517  0.00  0.00    +0.124 C 
BRANCH  15  21
ATOM      3  O   UNL     1       8.279   4.518  10.512  0.00  0.00    -0.251 OA
ATOM     21  C   UNL     1       9.373   4.679   9.991  0.00  0.00    +0.305 C 
BRANCH  21   2
ATOM      2  O   UNL     1      10.520   4.874  10.690  0.00  0.00    -0.481 OA
ATOM     35  H   UNL     1      10.482   4.461  11.579  0.00  0.00    +0.295 HD
ENDBRANCH  21   2
ENDBRANCH  15  21
ENDBRANCH   9  15
BRANCH  18  22
ATOM     22  C   UNL     1       9.567   9.234   4.086  0.00  0.00    +0.324 C 
BRANCH  22   4
ATOM      4  O   UNL     1       8.647   8.419   3.401  0.00  0.00    -0.483 OA
BRANCH   4  28
ATOM     28  C   UNL     1       7.958   8.988   2.353  0.00  0.00    +0.121 A 
ATOM     30  C   UNL     1       6.703   9.556   2.570  0.00  0.00    +0.045 A 
ATOM     31  C   UNL     1       8.515   8.995   1.074  0.00  0.00    +0.045 A 
ATOM     32  C   UNL     1       6.004  10.132   1.509  0.00  0.00    +0.004 A 
ATOM     33  C   UNL     1       7.817   9.571   0.013  0.00  0.00    +0.004 A 
ATOM     34  C   UNL     1       6.561  10.139   0.230  0.00  0.00    +0.000 A 
ENDBRANCH   4  28
ENDBRANCH  22   4
ENDBRANCH  18  22
TORSDOF 10
ENDMDL
MODEL 7
REMARK VINA RESULT:      -6.3      5.059     10.671
REMARK  Name = 25313072
REMARK  10 active torsions:
REMARK  status: ('A' for Active; 'I' for Inactive)
REMARK    1  A    between atoms: O_2  and  C_21
REMARK    2  A    between atoms: O_4  and  C_22
REMARK    3  A    between atoms: O_4  and  C_28
REMARK    4  A    between atoms: N_6  and  C_14
REMARK    5  A    between atoms: N_7  and  C_23
REMARK    6  A    between atoms: C_8  and  C_12
REMARK    7  A    between atoms: C_9  and  C_15
REMARK    8  A    between atoms: C_12  and  C_14
REMARK    9  A    between atoms: C_15  and  C_21
REMARK   10  A    between atoms: C_18  and  C_22
REMARK                            x       y       z     vdW  Elec       q    Type
REMARK                         _______ _______ _______ _____ _____    ______ ____
ROOT
ATOM      1  O   UNL     1      25.367   6.218  21.063  0.00  0.00    -0.272 OA
ATOM      5  N   UNL     1      23.526   5.695  22.381  0.00  0.00    -0.298 N 
ATOM      8  C   UNL     1      21.134   5.964  22.998  0.00  0.00    +0.011 C 
ATOM      9  C   UNL     1      21.581   6.822  24.209  0.00  0.00    +0.006 C 
ATOM     10  C   UNL     1      22.258   4.989  22.604  0.00  0.00    +0.111 C 
ATOM     11  C   UNL     1      22.937   7.502  23.952  0.00  0.00    +0.023 C 
ATOM     13  C   UNL     1      23.993   6.488  23.518  0.00  0.00    +0.108 C 
ATOM     18  C   UNL     1      24.289   5.635  21.216  0.00  0.00    +0.253 C 
ENDROOT
BRANCH   8  12
ATOM     12  C   UNL     1      20.693   6.788  21.781  0.00  0.00    +0.020 C 
BRANCH  12  14
ATOM     14  C   UNL     1      19.982   5.911  20.760  0.00  0.00    +0.085 C 
BRANCH  14   6
ATOM      6  N   UNL     1      18.557   6.235  20.734  0.00  0.00    -0.299 NA
ATOM      7  N   UNL     1      16.205   7.582  19.832  0.00  0.00    -0.327 N 
ATOM     16  C   UNL     1      17.983   5.929  19.418  0.00  0.00    +0.103 C 
ATOM     17  C   UNL     1      18.345   7.652  21.054  0.00  0.00    +0.103 C 
ATOM     19  C   UNL     1      16.479   6.211  19.393  0.00  0.00    +0.120 C 
ATOM     20  C   UNL     1      16.852   7.989  21.085  0.00  0.00    +0.120 C 
BRANCH   7  23
ATOM     23  C   UNL     1      14.993   8.192  19.489  0.00  0.00    +0.030 A 
ATOM     24  C   UNL     1      14.858   9.577  19.583  0.00  0.00    +0.023 A 
ATOM     25  C   UNL     1      13.920   7.415  19.053  0.00  0.00    +0.023 A 
ATOM     26  C   UNL     1      13.651  10.185  19.242  0.00  0.00    +0.002 A 
ATOM     27  C   UNL     1      12.713   8.023  18.711  0.00  0.00    +0.002 A 
ATOM     29  C   UNL     1      12.577   9.408  18.806  0.00  0.00    +0.000 A 
ENDBRANCH   7  23
ENDBRANCH  14   6
ENDBRANCH  12  14
ENDBRANCH   8  12
BRANCH   9  15
ATOM     15  C   UNL     1      20.535   7.850  24.637  0.00  0.00    +0.124 C 
BRANCH  15  21
ATOM      3  O   UNL     1      19.975   8.475  26.925  0.00  0.00    -0.251 OA
ATOM     21  C   UNL     1      20.082   7.626  26.053  0.00  0.00    +0.305 C 
BRANCH  21   2
ATOM      2  O   UNL     1      19.798   6.312  26.241  0.00  0.00    -0.481 OA
ATOM     35  H   UNL     1      18.879   6.177  26.556  0.00  0.00    +0.295 HD
ENDBRANCH  21   2
ENDBRANCH  15  21
ENDBRANCH   9  15
BRANCH  18  22
ATOM     22  C   UNL     1      23.738   4.800  20.089  0.00  0.00    +0.324 C 
BRANCH  22   4
ATOM      4  O   UNL     1      24.767   3.925  19.695  0.00  0.00    -0.483 OA
BRANCH   4  28
ATOM     28  C   UNL     1      25.040   2.857  20.520  0.00  0.00    +0.121 A 
ATOM     30  C   UNL     1      24.055   1.904  20.778  0.00  0.00    +0.045 A 
ATOM     31  C   UNL     1      26.303   2.728  21.100  0.00  0.00    +0.045 A 
ATOM     32  C   UNL     1      24.331   0.823  21.614  0.00  0.00    +0.004 A 
ATOM     33  C   UNL     1      26.579   1.647  21.935  0.00  0.00    +0.004 A 
ATOM     34  C   UNL     1      25.593   0.694  22.193  0.00  0.00    +0.000 A 
ENDBRANCH   4  28
ENDBRANCH  22   4
ENDBRANCH  18  22
TORSDOF 10
ENDMDL
MODEL 8
REMARK VINA RESULT:      -6.3     28.365     30.556
REMARK  Name = 25313072
REMARK  10 active torsions:
REMARK  status: ('A' for Active; 'I' for Inactive)
REMARK    1  A    between atoms: O_2  and  C_21
REMARK    2  A    between atoms: O_4  and  C_22
REMARK    3  A    between atoms: O_4  and  C_28
REMARK    4  A    between atoms: N_6  and  C_14
REMARK    5  A    between atoms: N_7  and  C_23
REMARK    6  A    between atoms: C_8  and  C_12
REMARK    7  A    between atoms: C_9  and  C_15
REMARK    8  A    between atoms: C_12  and  C_14
REMARK    9  A    between atoms: C_15  and  C_21
REMARK   10  A    between atoms: C_18  and  C_22
REMARK                            x       y       z     vdW  Elec       q    Type
REMARK                         _______ _______ _______ _____ _____    ______ ____
ROOT
ATOM      1  O   UNL     1     -14.052  -8.583  14.440  0.00  0.00    -0.272 OA
ATOM      5  N   UNL     1     -12.624  -8.499  16.271  0.00  0.00    -0.298 N 
ATOM      8  C   UNL     1     -10.531  -9.150  17.441  0.00  0.00    +0.011 C 
ATOM      9  C   UNL     1     -11.365 -10.123  18.312  0.00  0.00    +0.006 C 
ATOM     10  C   UNL     1     -11.422  -7.995  16.948  0.00  0.00    +0.111 C 
ATOM     11  C   UNL     1     -12.639 -10.585  17.585  0.00  0.00    +0.023 C 
ATOM     13  C   UNL     1     -13.451  -9.395  17.079  0.00  0.00    +0.108 C 
ATOM     18  C   UNL     1     -13.022  -8.166  14.977  0.00  0.00    +0.253 C 
ENDROOT
BRANCH   8  12
ATOM     12  C   UNL     1      -9.827  -9.822  16.256  0.00  0.00    +0.020 C 
BRANCH  12  14
ATOM     14  C   UNL     1      -8.325  -9.899  16.488  0.00  0.00    +0.085 C 
BRANCH  14   6
ATOM      6  N   UNL     1      -7.641 -10.190  15.228  0.00  0.00    -0.299 NA
ATOM      7  N   UNL     1      -6.092  -9.595  12.904  0.00  0.00    -0.327 N 
ATOM     16  C   UNL     1      -6.206  -9.909  15.344  0.00  0.00    +0.103 C 
ATOM     17  C   UNL     1      -8.219  -9.400  14.135  0.00  0.00    +0.103 C 
ATOM     19  C   UNL     1      -5.469 -10.262  14.050  0.00  0.00    +0.120 C 
ATOM     20  C   UNL     1      -7.550  -9.738  12.801  0.00  0.00    +0.120 C 
BRANCH   7  23
ATOM     23  C   UNL     1      -5.363  -9.418  11.722  0.00  0.00    +0.030 A 
ATOM     24  C   UNL     1      -5.924  -8.716  10.656  0.00  0.00    +0.023 A 
ATOM     25  C   UNL     1      -4.076  -9.942  11.612  0.00  0.00    +0.023 A 
ATOM     26  C   UNL     1      -5.198  -8.539   9.478  0.00  0.00    +0.002 A 
ATOM     27  C   UNL     1      -3.349  -9.765  10.435  0.00  0.00    +0.002 A 
ATOM     29  C   UNL     1      -3.910  -9.064   9.367  0.00  0.00    +0.000 A 
ENDBRANCH   7  23
ENDBRANCH  14   6
ENDBRANCH  12  14
ENDBRANCH   8  12
BRANCH   9  15
ATOM     15  C   UNL     1     -10.561 -11.325  18.808  0.00  0.00    +0.124 C 
BRANCH  15  21
ATOM      3  O   UNL     1      -8.391 -11.269  19.916  0.00  0.00    -0.251 OA
ATOM     21  C   UNL     1      -9.565 -10.932  19.862  0.00  0.00    +0.305 C 
BRANCH  21   2
ATOM      2  O   UNL     1     -10.161 -10.126  20.777  0.00  0.00    -0.481 OA
ATOM     35  H   UNL     1     -10.575 -10.639  21.503  0.00  0.00    +0.295 HD
ENDBRANCH  21   2
ENDBRANCH  15  21
ENDBRANCH   9  15
BRANCH  18  22
ATOM     22  C   UNL     1     -12.115  -7.240  14.208  0.00  0.00    +0.324 C 
BRANCH  22   4
ATOM      4  O   UNL     1     -12.863  -6.082  13.931  0.00  0.00    -0.483 OA
BRANCH   4  28
ATOM     28  C   UNL     1     -12.550  -5.386  12.784  0.00  0.00    +0.121 A 
ATOM     30  C   UNL     1     -12.370  -6.069  11.581  0.00  0.00    +0.045 A 
ATOM     31  C   UNL     1     -12.412  -3.998  12.825  0.00  0.00    +0.045 A 
ATOM     32  C   UNL     1     -12.053  -5.365  10.419  0.00  0.00    +0.004 A 
ATOM     33  C   UNL     1     -12.095  -3.295  11.663  0.00  0.00    +0.004 A 
ATOM     34  C   UNL     1     -11.915  -3.978  10.460  0.00  0.00    +0.000 A 
ENDBRANCH   4  28
ENDBRANCH  22   4
ENDBRANCH  18  22
TORSDOF 10
ENDMDL
MODEL 9
REMARK VINA RESULT:      -6.3     16.050     20.363
REMARK  Name = 25313072
REMARK  10 active torsions:
REMARK  status: ('A' for Active; 'I' for Inactive)
REMARK    1  A    between atoms: O_2  and  C_21
REMARK    2  A    between atoms: O_4  and  C_22
REMARK    3  A    between atoms: O_4  and  C_28
REMARK    4  A    between atoms: N_6  and  C_14
REMARK    5  A    between atoms: N_7  and  C_23
REMARK    6  A    between atoms: C_8  and  C_12
REMARK    7  A    between atoms: C_9  and  C_15
REMARK    8  A    between atoms: C_12  and  C_14
REMARK    9  A    between atoms: C_15  and  C_21
REMARK   10  A    between atoms: C_18  and  C_22
REMARK                            x       y       z     vdW  Elec       q    Type
REMARK                         _______ _______ _______ _____ _____    ______ ____
ROOT
ATOM      1  O   UNL     1      10.408   3.700   1.717  0.00  0.00    -0.272 OA
ATOM      5  N   UNL     1      12.713   3.917   1.521  0.00  0.00    -0.298 N 
ATOM      8  C   UNL     1      14.734   5.137   0.746  0.00  0.00    +0.011 C 
ATOM      9  C   UNL     1      14.875   4.103  -0.399  0.00  0.00    +0.006 C 
ATOM     10  C   UNL     1      13.994   4.503   1.937  0.00  0.00    +0.111 C 
ATOM     11  C   UNL     1      13.518   3.478  -0.768  0.00  0.00    +0.023 C 
ATOM     13  C   UNL     1      12.815   2.912   0.463  0.00  0.00    +0.108 C 
ATOM     18  C   UNL     1      11.469   4.226   2.067  0.00  0.00    +0.253 C 
ENDROOT
BRANCH   8  12
ATOM     12  C   UNL     1      14.045   6.442   0.326  0.00  0.00    +0.020 C 
BRANCH  12  14
ATOM     14  C   UNL     1      14.586   7.622   1.120  0.00  0.00    +0.085 C 
BRANCH  14   6
ATOM      6  N   UNL     1      13.477   8.427   1.631  0.00  0.00    -0.299 NA
ATOM      7  N   UNL     1      10.990   8.898   2.956  0.00  0.00    -0.327 N 
ATOM     16  C   UNL     1      13.375   8.296   3.089  0.00  0.00    +0.103 C 
ATOM     17  C   UNL     1      12.214   8.020   1.003  0.00  0.00    +0.103 C 
ATOM     19  C   UNL     1      12.253   9.177   3.645  0.00  0.00    +0.120 C 
ATOM     20  C   UNL     1      11.054   8.893   1.489  0.00  0.00    +0.120 C 
BRANCH   7  23
ATOM     23  C   UNL     1       9.777   9.246   3.560  0.00  0.00    +0.030 A 
ATOM     24  C   UNL     1       9.761  10.162   4.612  0.00  0.00    +0.023 A 
ATOM     25  C   UNL     1       8.585   8.679   3.111  0.00  0.00    +0.023 A 
ATOM     26  C   UNL     1       8.552  10.510   5.215  0.00  0.00    +0.002 A 
ATOM     27  C   UNL     1       7.377   9.027   3.714  0.00  0.00    +0.002 A 
ATOM     29  C   UNL     1       7.360   9.942   4.766  0.00  0.00    +0.000 A 
ENDBRANCH   7  23
ENDBRANCH  14   6
ENDBRANCH  12  14
ENDBRANCH   8  12
BRANCH   9  15
ATOM     15  C   UNL     1      15.563   4.669  -1.641  0.00  0.00    +0.124 C 
BRANCH  15  21
ATOM      3  O   UNL     1      17.653   5.913  -1.494  0.00  0.00    -0.251 OA
ATOM     21  C   UNL     1      17.038   4.860  -1.421  0.00  0.00    +0.305 C 
BRANCH  21   2
ATOM      2  O   UNL     1      17.614   3.668  -1.120  0.00  0.00    -0.481 OA
ATOM     35  H   UNL     1      17.457   3.411  -0.187  0.00  0.00    +0.295 HD
ENDBRANCH  21   2
ENDBRANCH  15  21
ENDBRANCH   9  15
BRANCH  18  22
ATOM     22  C   UNL     1      11.447   5.275   3.150  0.00  0.00    +0.324 C 
BRANCH  22   4
ATOM      4  O   UNL     1      10.597   4.792   4.161  0.00  0.00    -0.483 OA
BRANCH   4  28
ATOM     28  C   UNL     1      10.216   5.679   5.144  0.00  0.00    +0.121 A 
ATOM     30  C   UNL     1       8.864   5.855   5.440  0.00  0.00    +0.045 A 
ATOM     31  C   UNL     1      11.183   6.402   5.844  0.00  0.00    +0.045 A 
ATOM     32  C   UNL     1       8.478   6.753   6.435  0.00  0.00    +0.004 A 
ATOM     33  C   UNL     1      10.797   7.300   6.839  0.00  0.00    +0.004 A 
ATOM     34  C   UNL     1       9.445   7.476   7.135  0.00  0.00    +0.000 A 
ENDBRANCH   4  28
ENDBRANCH  22   4
ENDBRANCH  18  22
TORSDOF 10
ENDMDL
MODEL 10
REMARK VINA RESULT:      -6.3     14.900     19.161
REMARK  Name = 25313072
REMARK  10 active torsions:
REMARK  status: ('A' for Active; 'I' for Inactive)
REMARK    1  A    between atoms: O_2  and  C_21
REMARK    2  A    between atoms: O_4  and  C_22
REMARK    3  A    between atoms: O_4  and  C_28
REMARK    4  A    between atoms: N_6  and  C_14
REMARK    5  A    between atoms: N_7  and  C_23
REMARK    6  A    between atoms: C_8  and  C_12
REMARK    7  A    between atoms: C_9  and  C_15
REMARK    8  A    between atoms: C_12  and  C_14
REMARK    9  A    between atoms: C_15  and  C_21
REMARK   10  A    between atoms: C_18  and  C_22
REMARK                            x       y       z     vdW  Elec       q    Type
REMARK                         _______ _______ _______ _____ _____    ______ ____
ROOT
ATOM      1  O   UNL     1      15.213   9.217   4.338  0.00  0.00    -0.272 OA
ATOM      5  N   UNL     1      13.623   8.264   5.739  0.00  0.00    -0.298 N 
ATOM      8  C   UNL     1      11.351   7.351   6.162  0.00  0.00    +0.011 C 
ATOM      9  C   UNL     1      10.995   8.673   6.889  0.00  0.00    +0.006 C 
ATOM     10  C   UNL     1      12.869   7.106   6.235  0.00  0.00    +0.111 C 
ATOM     11  C   UNL     1      11.843   9.849   6.373  0.00  0.00    +0.023 C 
ATOM     13  C   UNL     1      13.334   9.523   6.427  0.00  0.00    +0.108 C 
ATOM     18  C   UNL     1      14.573   8.233   4.720  0.00  0.00    +0.253 C 
ENDROOT
BRANCH   8  12
ATOM     12  C   UNL     1      10.872   7.293   4.706  0.00  0.00    +0.020 C 
BRANCH  12  14
ATOM     14  C   UNL     1      10.061   6.031   4.451  0.00  0.00    +0.085 C 
BRANCH  14   6
ATOM      6  N   UNL     1      10.168   5.646   3.044  0.00  0.00    -0.299 NA
ATOM      7  N   UNL     1      11.521   5.031   0.605  0.00  0.00    -0.327 N 
ATOM     16  C   UNL     1      10.923   4.395   2.908  0.00  0.00    +0.103 C 
ATOM     17  C   UNL     1      10.819   6.709   2.269  0.00  0.00    +0.103 C 
ATOM     19  C   UNL     1      10.995   3.951   1.445  0.00  0.00    +0.120 C 
ATOM     20  C   UNL     1      10.886   6.342   0.785  0.00  0.00    +0.120 C 
BRANCH   7  23
ATOM     23  C   UNL     1      12.072   4.732  -0.646  0.00  0.00    +0.030 A 
ATOM     24  C   UNL     1      12.482   5.762  -1.492  0.00  0.00    +0.023 A 
ATOM     25  C   UNL     1      12.211   3.404  -1.048  0.00  0.00    +0.023 A 
ATOM     26  C   UNL     1      13.030   5.465  -2.738  0.00  0.00    +0.002 A 
ATOM     27  C   UNL     1      12.759   3.106  -2.294  0.00  0.00    +0.002 A 
ATOM     29  C   UNL     1      13.169   4.136  -3.141  0.00  0.00    +0.000 A 
ENDBRANCH   7  23
ENDBRANCH  14   6
ENDBRANCH  12  14
ENDBRANCH   8  12
BRANCH   9  15
ATOM     15  C   UNL     1       9.507   9.014   6.824  0.00  0.00    +0.124 C 
BRANCH  15  21
ATOM      3  O   UNL     1       8.859   7.328   8.461  0.00  0.00    -0.251 OA
ATOM     21  C   UNL     1       8.660   7.918   7.409  0.00  0.00    +0.305 C 
BRANCH  21   2
ATOM      2  O   UNL     1       7.609   7.663   6.589  0.00  0.00    -0.481 OA
ATOM     35  H   UNL     1       7.889   7.209   5.766  0.00  0.00    +0.295 HD
ENDBRANCH  21   2
ENDBRANCH  15  21
ENDBRANCH   9  15
BRANCH  18  22
ATOM     22  C   UNL     1      14.811   6.899   4.058  0.00  0.00    +0.324 C 
BRANCH  22   4
ATOM      4  O   UNL     1      14.395   7.032   2.722  0.00  0.00    -0.483 OA
BRANCH   4  28
ATOM     28  C   UNL     1      14.840   6.088   1.823  0.00  0.00    +0.121 A 
ATOM     30  C   UNL     1      14.655   4.731   2.089  0.00  0.00    +0.045 A 
ATOM     31  C   UNL     1      15.476   6.488   0.648  0.00  0.00    +0.045 A 
ATOM     32  C   UNL     1      15.105   3.774   1.179  0.00  0.00    +0.004 A 
ATOM     33  C   UNL     1      15.926   5.531  -0.261  0.00  0.00    +0.004 A 
ATOM     34  C   UNL     1      15.741   4.174   0.004  0.00  0.00    +0.000 A 
ENDBRANCH   4  28
ENDBRANCH  22   4
ENDBRANCH  18  22
TORSDOF 10
ENDMDL
