MODEL 1
REMARK VINA RESULT:      -7.2      0.000      0.000
REMARK  Name = 75536639
REMARK  7 active torsions:
REMARK  status: ('A' for Active; 'I' for Inactive)
REMARK    1  A    between atoms: O_3  and  C_8
REMARK    2  A    between atoms: N_5  and  C_7
REMARK    3  A    between atoms: N_5  and  C_12
REMARK    4  A    between atoms: N_6  and  C_11
REMARK    5  A    between atoms: C_9  and  C_11
REMARK    6  A    between atoms: C_12  and  C_13
REMARK    7  A    between atoms: C_14  and  C_17
REMARK                            x       y       z     vdW  Elec       q    Type
REMARK                         _______ _______ _______ _____ _____    ______ ____
ROOT
ATOM      2  O   UNL     1     -16.873   3.971  25.436  0.00  0.00    -0.371 OA
ATOM      7  C   UNL     1     -16.099   4.019  23.191  0.00  0.00    +0.111 C 
ATOM      8  C   UNL     1     -16.507   2.600  23.544  0.00  0.00    +0.164 C 
ATOM      9  C   UNL     1     -17.426   2.848  24.732  0.00  0.00    +0.165 C 
ATOM     10  C   UNL     1     -15.937   4.637  24.571  0.00  0.00    +0.181 C 
ENDROOT
BRANCH   8   3
ATOM      3  O   UNL     1     -17.179   1.947  22.485  0.00  0.00    -0.388 OA
ATOM     27  H   UNL     1     -16.745   2.191  21.649  0.00  0.00    +0.210 HD
ENDBRANCH   8   3
BRANCH   7   5
ATOM      5  N   UNL     1     -14.888   4.095  22.391  0.00  0.00    -0.305 NA
ATOM     26  H   UNL     1     -15.143   4.246  21.415  0.00  0.00    +0.123 HD
BRANCH   5  12
ATOM     12  C   UNL     1     -14.035   5.193  22.832  0.00  0.00    +0.116 C 
BRANCH  12  13
ATOM     13  C   UNL     1     -13.597   6.059  21.681  0.00  0.00    -0.034 A 
ATOM     15  C   UNL     1     -14.548   6.730  20.911  0.00  0.00    +0.005 A 
ATOM     16  C   UNL     1     -12.241   6.191  21.384  0.00  0.00    +0.005 A 
ATOM     18  C   UNL     1     -14.142   7.533  19.845  0.00  0.00    +0.000 A 
ATOM     19  C   UNL     1     -11.835   6.993  20.318  0.00  0.00    +0.000 A 
ATOM     20  C   UNL     1     -12.786   7.664  19.548  0.00  0.00    +0.000 A 
ENDBRANCH  12  13
ENDBRANCH   5  12
ENDBRANCH   7   5
BRANCH   9  11
ATOM     11  C   UNL     1     -17.530   1.656  25.668  0.00  0.00    +0.138 C 
BRANCH  11   6
ATOM      4  O   UNL     1     -17.759   0.296  28.187  0.00  0.00    -0.270 OA
ATOM      6  N   UNL     1     -16.670   1.810  26.806  0.00  0.00    -0.309 N 
ATOM     14  C   UNL     1     -16.857   1.107  27.993  0.00  0.00    +0.244 C 
ATOM     28  H   UNL     1     -15.947   2.517  26.737  0.00  0.00    +0.149 HD
BRANCH  14  17
ATOM      1  F   UNL     1     -13.221   2.208  32.127  0.00  0.00    -0.205 F 
ATOM     17  C   UNL     1     -15.895   1.399  29.087  0.00  0.00    +0.037 A 
ATOM     21  C   UNL     1     -15.664   0.450  30.083  0.00  0.00    +0.016 A 
ATOM     22  C   UNL     1     -15.224   2.621  29.118  0.00  0.00    +0.016 A 
ATOM     23  C   UNL     1     -14.761   0.723  31.110  0.00  0.00    +0.039 A 
ATOM     24  C   UNL     1     -14.320   2.894  30.145  0.00  0.00    +0.039 A 
ATOM     25  C   UNL     1     -14.089   1.945  31.141  0.00  0.00    +0.123 A 
ENDBRANCH  14  17
ENDBRANCH  11   6
ENDBRANCH   9  11
TORSDOF 7
ENDMDL
MODEL 2
REMARK VINA RESULT:      -7.1      1.601      2.204
REMARK  Name = 75536639
REMARK  7 active torsions:
REMARK  status: ('A' for Active; 'I' for Inactive)
REMARK    1  A    between atoms: O_3  and  C_8
REMARK    2  A    between atoms: N_5  and  C_7
REMARK    3  A    between atoms: N_5  and  C_12
REMARK    4  A    between atoms: N_6  and  C_11
REMARK    5  A    between atoms: C_9  and  C_11
REMARK    6  A    between atoms: C_12  and  C_13
REMARK    7  A    between atoms: C_14  and  C_17
REMARK                            x       y       z     vdW  Elec       q    Type
REMARK                         _______ _______ _______ _____ _____    ______ ____
ROOT
ATOM      2  O   UNL     1     -17.472   5.605  23.933  0.00  0.00    -0.371 OA
ATOM      7  C   UNL     1     -15.903   4.314  22.703  0.00  0.00    +0.111 C 
ATOM      8  C   UNL     1     -15.735   4.018  24.182  0.00  0.00    +0.164 C 
ATOM      9  C   UNL     1     -17.084   4.470  24.725  0.00  0.00    +0.165 C 
ATOM     10  C   UNL     1     -16.664   5.630  22.744  0.00  0.00    +0.181 C 
ENDROOT
BRANCH   8   3
ATOM      3  O   UNL     1     -15.494   2.649  24.440  0.00  0.00    -0.388 OA
ATOM     27  H   UNL     1     -16.143   2.124  23.941  0.00  0.00    +0.210 HD
ENDBRANCH   8   3
BRANCH   7   5
ATOM      5  N   UNL     1     -14.644   4.411  21.981  0.00  0.00    -0.305 NA
ATOM     26  H   UNL     1     -14.840   4.548  20.989  0.00  0.00    +0.123 HD
BRANCH   5  12
ATOM     12  C   UNL     1     -13.845   5.531  22.465  0.00  0.00    +0.116 C 
BRANCH  12  13
ATOM     13  C   UNL     1     -13.324   6.377  21.335  0.00  0.00    -0.034 A 
ATOM     15  C   UNL     1     -11.950   6.479  21.115  0.00  0.00    +0.005 A 
ATOM     16  C   UNL     1     -14.215   7.061  20.507  0.00  0.00    +0.005 A 
ATOM     18  C   UNL     1     -11.468   7.264  20.067  0.00  0.00    +0.000 A 
ATOM     19  C   UNL     1     -13.733   7.844  19.460  0.00  0.00    +0.000 A 
ATOM     20  C   UNL     1     -12.359   7.946  19.240  0.00  0.00    +0.000 A 
ENDBRANCH  12  13
ENDBRANCH   5  12
ENDBRANCH   7   5
BRANCH   9  11
ATOM     11  C   UNL     1     -17.039   4.859  26.192  0.00  0.00    +0.138 C 
BRANCH  11   6
ATOM      4  O   UNL     1     -17.307   4.326  29.001  0.00  0.00    -0.270 OA
ATOM      6  N   UNL     1     -16.284   3.912  26.960  0.00  0.00    -0.309 N 
ATOM     14  C   UNL     1     -16.482   3.719  28.325  0.00  0.00    +0.244 C 
ATOM     28  H   UNL     1     -15.536   3.427  26.476  0.00  0.00    +0.149 HD
BRANCH  14  17
ATOM      1  F   UNL     1     -13.148  -0.058  30.804  0.00  0.00    -0.205 F 
ATOM     17  C   UNL     1     -15.600   2.719  28.980  0.00  0.00    +0.037 A 
ATOM     21  C   UNL     1     -14.517   3.144  29.752  0.00  0.00    +0.016 A 
ATOM     22  C   UNL     1     -15.853   1.356  28.825  0.00  0.00    +0.016 A 
ATOM     23  C   UNL     1     -13.689   2.206  30.367  0.00  0.00    +0.039 A 
ATOM     24  C   UNL     1     -15.024   0.418  29.441  0.00  0.00    +0.039 A 
ATOM     25  C   UNL     1     -13.943   0.843  30.212  0.00  0.00    +0.123 A 
ENDBRANCH  14  17
ENDBRANCH  11   6
ENDBRANCH   9  11
TORSDOF 7
ENDMDL
MODEL 3
REMARK VINA RESULT:      -7.0     28.339     31.756
REMARK  Name = 75536639
REMARK  7 active torsions:
REMARK  status: ('A' for Active; 'I' for Inactive)
REMARK    1  A    between atoms: O_3  and  C_8
REMARK    2  A    between atoms: N_5  and  C_7
REMARK    3  A    between atoms: N_5  and  C_12
REMARK    4  A    between atoms: N_6  and  C_11
REMARK    5  A    between atoms: C_9  and  C_11
REMARK    6  A    between atoms: C_12  and  C_13
REMARK    7  A    between atoms: C_14  and  C_17
REMARK                            x       y       z     vdW  Elec       q    Type
REMARK                         _______ _______ _______ _____ _____    ______ ____
ROOT
ATOM      2  O   UNL     1      11.068   8.893  20.675  0.00  0.00    -0.371 OA
ATOM      7  C   UNL     1      12.696   7.395  21.542  0.00  0.00    +0.111 C 
ATOM      8  C   UNL     1      13.271   8.799  21.532  0.00  0.00    +0.164 C 
ATOM      9  C   UNL     1      12.000   9.636  21.478  0.00  0.00    +0.165 C 
ATOM     10  C   UNL     1      11.538   7.538  20.566  0.00  0.00    +0.181 C 
ENDROOT
BRANCH   8   3
ATOM      3  O   UNL     1      14.040   9.082  22.685  0.00  0.00    -0.388 OA
ATOM     27  H   UNL     1      14.981   8.997  22.454  0.00  0.00    +0.210 HD
ENDBRANCH   8   3
BRANCH   7   5
ATOM      5  N   UNL     1      13.649   6.372  21.143  0.00  0.00    -0.305 NA
ATOM     26  H   UNL     1      13.150   5.497  20.984  0.00  0.00    +0.123 HD
BRANCH   5  12
ATOM     12  C   UNL     1      14.344   6.750  19.918  0.00  0.00    +0.116 C 
BRANCH  12  13
ATOM     13  C   UNL     1      15.828   6.519  20.023  0.00  0.00    -0.034 A 
ATOM     15  C   UNL     1      16.510   6.877  21.186  0.00  0.00    +0.005 A 
ATOM     16  C   UNL     1      16.522   5.948  18.955  0.00  0.00    +0.005 A 
ATOM     18  C   UNL     1      17.886   6.662  21.282  0.00  0.00    +0.000 A 
ATOM     19  C   UNL     1      17.896   5.733  19.052  0.00  0.00    +0.000 A 
ATOM     20  C   UNL     1      18.578   6.091  20.215  0.00  0.00    +0.000 A 
ENDBRANCH  12  13
ENDBRANCH   5  12
ENDBRANCH   7   5
BRANCH   9  11
ATOM     11  C   UNL     1      12.213  11.013  20.875  0.00  0.00    +0.138 C 
BRANCH  11   6
ATOM      4  O   UNL     1      14.903  11.668  20.114  0.00  0.00    -0.270 OA
ATOM      6  N   UNL     1      12.777  10.924  19.559  0.00  0.00    -0.309 N 
ATOM     14  C   UNL     1      14.097  11.265  19.280  0.00  0.00    +0.244 C 
ATOM     28  H   UNL     1      12.144  10.665  18.810  0.00  0.00    +0.149 HD
BRANCH  14  17
ATOM      1  F   UNL     1      15.699  10.801  13.918  0.00  0.00    -0.205 F 
ATOM     17  C   UNL     1      14.520  11.142  17.861  0.00  0.00    +0.037 A 
ATOM     21  C   UNL     1      15.453  12.035  17.332  0.00  0.00    +0.016 A 
ATOM     22  C   UNL     1      13.986  10.135  17.058  0.00  0.00    +0.016 A 
ATOM     23  C   UNL     1      15.851  11.920  16.001  0.00  0.00    +0.039 A 
ATOM     24  C   UNL     1      14.384  10.020  15.726  0.00  0.00    +0.039 A 
ATOM     25  C   UNL     1      15.316  10.912  15.198  0.00  0.00    +0.123 A 
ENDBRANCH  14  17
ENDBRANCH  11   6
ENDBRANCH   9  11
TORSDOF 7
ENDMDL
MODEL 4
REMARK VINA RESULT:      -6.9     27.291     29.847
REMARK  Name = 75536639
REMARK  7 active torsions:
REMARK  status: ('A' for Active; 'I' for Inactive)
REMARK    1  A    between atoms: O_3  and  C_8
REMARK    2  A    between atoms: N_5  and  C_7
REMARK    3  A    between atoms: N_5  and  C_12
REMARK    4  A    between atoms: N_6  and  C_11
REMARK    5  A    between atoms: C_9  and  C_11
REMARK    6  A    between atoms: C_12  and  C_13
REMARK    7  A    between atoms: C_14  and  C_17
REMARK                            x       y       z     vdW  Elec       q    Type
REMARK                         _______ _______ _______ _____ _____    ______ ____
ROOT
ATOM      2  O   UNL     1      10.431   7.902  21.869  0.00  0.00    -0.371 OA
ATOM      7  C   UNL     1      12.600   6.933  21.842  0.00  0.00    +0.111 C 
ATOM      8  C   UNL     1      12.729   8.439  21.707  0.00  0.00    +0.164 C 
ATOM      9  C   UNL     1      11.388   8.899  22.263  0.00  0.00    +0.165 C 
ATOM     10  C   UNL     1      11.143   6.721  21.461  0.00  0.00    +0.181 C 
ENDROOT
BRANCH   8   3
ATOM      3  O   UNL     1      13.814   8.962  22.447  0.00  0.00    -0.388 OA
ATOM     27  H   UNL     1      13.780   9.933  22.397  0.00  0.00    +0.210 HD
ENDBRANCH   8   3
BRANCH   7   5
ATOM      5  N   UNL     1      13.520   6.190  20.997  0.00  0.00    -0.305 NA
ATOM     26  H   UNL     1      12.988   5.553  20.405  0.00  0.00    +0.123 HD
BRANCH   5  12
ATOM     12  C   UNL     1      14.295   7.089  20.148  0.00  0.00    +0.116 C 
BRANCH  12  13
ATOM     13  C   UNL     1      15.756   6.727  20.137  0.00  0.00    -0.034 A 
ATOM     15  C   UNL     1      16.314   6.111  19.016  0.00  0.00    +0.005 A 
ATOM     16  C   UNL     1      16.552   7.006  21.248  0.00  0.00    +0.005 A 
ATOM     18  C   UNL     1      17.669   5.776  19.006  0.00  0.00    +0.000 A 
ATOM     19  C   UNL     1      17.906   6.671  21.238  0.00  0.00    +0.000 A 
ATOM     20  C   UNL     1      18.464   6.056  20.117  0.00  0.00    +0.000 A 
ENDBRANCH  12  13
ENDBRANCH   5  12
ENDBRANCH   7   5
BRANCH   9  11
ATOM     11  C   UNL     1      10.957  10.259  21.741  0.00  0.00    +0.138 C 
BRANCH  11   6
ATOM      4  O   UNL     1      13.154  11.873  22.644  0.00  0.00    -0.270 OA
ATOM      6  N   UNL     1      10.928  11.235  22.792  0.00  0.00    -0.309 N 
ATOM     14  C   UNL     1      12.047  11.975  23.164  0.00  0.00    +0.244 C 
ATOM     28  H   UNL     1      10.061  11.319  23.311  0.00  0.00    +0.149 HD
BRANCH  14  17
ATOM      1  F   UNL     1      11.335  15.578  27.412  0.00  0.00    -0.205 F 
ATOM     17  C   UNL     1      11.858  12.928  24.289  0.00  0.00    +0.037 A 
ATOM     21  C   UNL     1      12.892  13.793  24.651  0.00  0.00    +0.016 A 
ATOM     22  C   UNL     1      10.649  12.958  24.983  0.00  0.00    +0.016 A 
ATOM     23  C   UNL     1      12.715  14.687  25.705  0.00  0.00    +0.039 A 
ATOM     24  C   UNL     1      10.472  13.853  26.038  0.00  0.00    +0.039 A 
ATOM     25  C   UNL     1      11.505  14.718  26.399  0.00  0.00    +0.123 A 
ENDBRANCH  14  17
ENDBRANCH  11   6
ENDBRANCH   9  11
TORSDOF 7
ENDMDL
MODEL 5
REMARK VINA RESULT:      -6.9      2.902      8.814
REMARK  Name = 75536639
REMARK  7 active torsions:
REMARK  status: ('A' for Active; 'I' for Inactive)
REMARK    1  A    between atoms: O_3  and  C_8
REMARK    2  A    between atoms: N_5  and  C_7
REMARK    3  A    between atoms: N_5  and  C_12
REMARK    4  A    between atoms: N_6  and  C_11
REMARK    5  A    between atoms: C_9  and  C_11
REMARK    6  A    between atoms: C_12  and  C_13
REMARK    7  A    between atoms: C_14  and  C_17
REMARK                            x       y       z     vdW  Elec       q    Type
REMARK                         _______ _______ _______ _____ _____    ______ ____
ROOT
ATOM      2  O   UNL     1     -17.634   1.842  25.261  0.00  0.00    -0.371 OA
ATOM      7  C   UNL     1     -16.472   3.167  26.854  0.00  0.00    +0.111 C 
ATOM      8  C   UNL     1     -16.110   3.641  25.459  0.00  0.00    +0.164 C 
ATOM      9  C   UNL     1     -17.281   3.095  24.652  0.00  0.00    +0.165 C 
ATOM     10  C   UNL     1     -17.032   1.783  26.566  0.00  0.00    +0.181 C 
ENDROOT
BRANCH   8   3
ATOM      3  O   UNL     1     -16.019   5.049  25.368  0.00  0.00    -0.388 OA
ATOM     27  H   UNL     1     -15.629   5.276  24.506  0.00  0.00    +0.210 HD
ENDBRANCH   8   3
BRANCH   7   5
ATOM      5  N   UNL     1     -15.344   3.142  27.772  0.00  0.00    -0.305 NA
ATOM     26  H   UNL     1     -14.647   3.818  27.460  0.00  0.00    +0.123 HD
BRANCH   5  12
ATOM     12  C   UNL     1     -15.762   3.482  29.127  0.00  0.00    +0.116 C 
BRANCH  12  13
ATOM     13  C   UNL     1     -15.432   2.388  30.107  0.00  0.00    -0.034 A 
ATOM     15  C   UNL     1     -15.095   2.708  31.422  0.00  0.00    +0.005 A 
ATOM     16  C   UNL     1     -15.461   1.055  29.698  0.00  0.00    +0.005 A 
ATOM     18  C   UNL     1     -14.789   1.693  32.330  0.00  0.00    +0.000 A 
ATOM     19  C   UNL     1     -15.156   0.041  30.606  0.00  0.00    +0.000 A 
ATOM     20  C   UNL     1     -14.819   0.360  31.921  0.00  0.00    +0.000 A 
ENDBRANCH  12  13
ENDBRANCH   5  12
ENDBRANCH   7   5
BRANCH   9  11
ATOM     11  C   UNL     1     -16.949   2.878  23.186  0.00  0.00    +0.138 C 
BRANCH  11   6
ATOM      4  O   UNL     1     -17.044   5.250  21.571  0.00  0.00    -0.270 OA
ATOM      6  N   UNL     1     -15.833   3.682  22.779  0.00  0.00    -0.309 N 
ATOM     14  C   UNL     1     -15.973   4.822  21.991  0.00  0.00    +0.244 C 
ATOM     28  H   UNL     1     -14.912   3.344  23.034  0.00  0.00    +0.149 HD
BRANCH  14  17
ATOM      1  F   UNL     1     -11.222   7.494  20.642  0.00  0.00    -0.205 F 
ATOM     17  C   UNL     1     -14.716   5.530  21.635  0.00  0.00    +0.037 A 
ATOM     21  C   UNL     1     -13.492   5.058  22.110  0.00  0.00    +0.016 A 
ATOM     22  C   UNL     1     -14.760   6.664  20.825  0.00  0.00    +0.016 A 
ATOM     23  C   UNL     1     -12.312   5.721  21.775  0.00  0.00    +0.039 A 
ATOM     24  C   UNL     1     -13.579   7.328  20.490  0.00  0.00    +0.039 A 
ATOM     25  C   UNL     1     -12.356   6.856  20.965  0.00  0.00    +0.123 A 
ENDBRANCH  14  17
ENDBRANCH  11   6
ENDBRANCH   9  11
TORSDOF 7
ENDMDL
MODEL 6
REMARK VINA RESULT:      -6.7     27.628     30.591
REMARK  Name = 75536639
REMARK  7 active torsions:
REMARK  status: ('A' for Active; 'I' for Inactive)
REMARK    1  A    between atoms: O_3  and  C_8
REMARK    2  A    between atoms: N_5  and  C_7
REMARK    3  A    between atoms: N_5  and  C_12
REMARK    4  A    between atoms: N_6  and  C_11
REMARK    5  A    between atoms: C_9  and  C_11
REMARK    6  A    between atoms: C_12  and  C_13
REMARK    7  A    between atoms: C_14  and  C_17
REMARK                            x       y       z     vdW  Elec       q    Type
REMARK                         _______ _______ _______ _____ _____    ______ ____
ROOT
ATOM      2  O   UNL     1      12.255   9.078  20.455  0.00  0.00    -0.371 OA
ATOM      7  C   UNL     1      13.221   6.942  20.070  0.00  0.00    +0.111 C 
ATOM      8  C   UNL     1      12.457   6.910  21.381  0.00  0.00    +0.164 C 
ATOM      9  C   UNL     1      11.517   8.095  21.200  0.00  0.00    +0.165 C 
ATOM     10  C   UNL     1      13.398   8.438  19.861  0.00  0.00    +0.181 C 
ENDROOT
BRANCH   8   3
ATOM      3  O   UNL     1      11.749   5.701  21.570  0.00  0.00    -0.388 OA
ATOM     27  H   UNL     1      11.237   5.771  22.395  0.00  0.00    +0.210 HD
ENDBRANCH   8   3
BRANCH   7   5
ATOM      5  N   UNL     1      14.484   6.223  20.114  0.00  0.00    -0.305 NA
ATOM     26  H   UNL     1      14.337   5.272  19.778  0.00  0.00    +0.123 HD
BRANCH   5  12
ATOM     12  C   UNL     1      15.487   6.871  19.276  0.00  0.00    +0.116 C 
BRANCH  12  13
ATOM     13  C   UNL     1      16.816   6.979  19.975  0.00  0.00    -0.034 A 
ATOM     15  C   UNL     1      17.830   6.065  19.690  0.00  0.00    +0.005 A 
ATOM     16  C   UNL     1      17.032   7.993  20.908  0.00  0.00    +0.005 A 
ATOM     18  C   UNL     1      19.062   6.166  20.338  0.00  0.00    +0.000 A 
ATOM     19  C   UNL     1      18.263   8.094  21.555  0.00  0.00    +0.000 A 
ATOM     20  C   UNL     1      19.277   7.179  21.271  0.00  0.00    +0.000 A 
ENDBRANCH  12  13
ENDBRANCH   5  12
ENDBRANCH   7   5
BRANCH   9  11
ATOM     11  C   UNL     1      11.048   8.694  22.514  0.00  0.00    +0.138 C 
BRANCH  11   6
ATOM      4  O   UNL     1      10.353  11.148  23.834  0.00  0.00    -0.270 OA
ATOM      6  N   UNL     1      11.955   9.701  22.983  0.00  0.00    -0.309 N 
ATOM     14  C   UNL     1      11.528  10.865  23.615  0.00  0.00    +0.244 C 
ATOM     28  H   UNL     1      12.937   9.563  22.770  0.00  0.00    +0.149 HD
BRANCH  14  17
ATOM      1  F   UNL     1      15.550  14.476  25.137  0.00  0.00    -0.205 F 
ATOM     17  C   UNL     1      12.592  11.821  24.017  0.00  0.00    +0.037 A 
ATOM     21  C   UNL     1      12.709  12.213  25.351  0.00  0.00    +0.016 A 
ATOM     22  C   UNL     1      13.474  12.327  23.062  0.00  0.00    +0.016 A 
ATOM     23  C   UNL     1      13.708  13.110  25.730  0.00  0.00    +0.039 A 
ATOM     24  C   UNL     1      14.473  13.224  23.441  0.00  0.00    +0.039 A 
ATOM     25  C   UNL     1      14.590  13.615  24.774  0.00  0.00    +0.123 A 
ENDBRANCH  14  17
ENDBRANCH  11   6
ENDBRANCH   9  11
TORSDOF 7
ENDMDL
MODEL 7
REMARK VINA RESULT:      -6.7      8.649     11.326
REMARK  Name = 75536639
REMARK  7 active torsions:
REMARK  status: ('A' for Active; 'I' for Inactive)
REMARK    1  A    between atoms: O_3  and  C_8
REMARK    2  A    between atoms: N_5  and  C_7
REMARK    3  A    between atoms: N_5  and  C_12
REMARK    4  A    between atoms: N_6  and  C_11
REMARK    5  A    between atoms: C_9  and  C_11
REMARK    6  A    between atoms: C_12  and  C_13
REMARK    7  A    between atoms: C_14  and  C_17
REMARK                            x       y       z     vdW  Elec       q    Type
REMARK                         _______ _______ _______ _____ _____    ______ ____
ROOT
ATOM      2  O   UNL     1     -10.917  10.528  15.325  0.00  0.00    -0.371 OA
ATOM      7  C   UNL     1      -9.804   9.567  17.191  0.00  0.00    +0.111 C 
ATOM      8  C   UNL     1     -10.711   8.523  16.564  0.00  0.00    +0.164 C 
ATOM      9  C   UNL     1     -10.898   9.099  15.167  0.00  0.00    +0.165 C 
ATOM     10  C   UNL     1     -10.385  10.851  16.621  0.00  0.00    +0.181 C 
ENDROOT
BRANCH   8   3
ATOM      3  O   UNL     1     -10.123   7.238  16.530  0.00  0.00    -0.388 OA
ATOM     27  H   UNL     1      -9.362   7.265  15.924  0.00  0.00    +0.210 HD
ENDBRANCH   8   3
BRANCH   7   5
ATOM      5  N   UNL     1      -9.803   9.541  18.644  0.00  0.00    -0.305 NA
ATOM     26  H   UNL     1      -9.039  10.124  18.986  0.00  0.00    +0.123 HD
BRANCH   5  12
ATOM     12  C   UNL     1     -11.061  10.047  19.180  0.00  0.00    +0.116 C 
BRANCH  12  13
ATOM     13  C   UNL     1     -11.753   9.027  20.044  0.00  0.00    -0.034 A 
ATOM     15  C   UNL     1     -11.381   7.684  19.972  0.00  0.00    +0.005 A 
ATOM     16  C   UNL     1     -12.767   9.424  20.915  0.00  0.00    +0.005 A 
ATOM     18  C   UNL     1     -12.022   6.739  20.774  0.00  0.00    +0.000 A 
ATOM     19  C   UNL     1     -13.408   8.479  21.716  0.00  0.00    +0.000 A 
ATOM     20  C   UNL     1     -13.036   7.137  21.645  0.00  0.00    +0.000 A 
ENDBRANCH  12  13
ENDBRANCH   5  12
ENDBRANCH   7   5
BRANCH   9  11
ATOM     11  C   UNL     1     -12.181   8.640  14.496  0.00  0.00    +0.138 C 
BRANCH  11   6
ATOM      4  O   UNL     1     -14.844   9.583  15.011  0.00  0.00    -0.270 OA
ATOM      6  N   UNL     1     -13.108   8.108  15.452  0.00  0.00    -0.309 N 
ATOM     14  C   UNL     1     -14.385   8.631  15.635  0.00  0.00    +0.244 C 
ATOM     28  H   UNL     1     -12.767   7.364  16.051  0.00  0.00    +0.149 HD
BRANCH  14  17
ATOM      1  F   UNL     1     -17.519   6.184  19.600  0.00  0.00    -0.205 F 
ATOM     17  C   UNL     1     -15.215   7.982  16.684  0.00  0.00    +0.037 A 
ATOM     21  C   UNL     1     -14.836   8.069  18.024  0.00  0.00    +0.016 A 
ATOM     22  C   UNL     1     -16.371   7.288  16.329  0.00  0.00    +0.016 A 
ATOM     23  C   UNL     1     -15.614   7.461  19.009  0.00  0.00    +0.039 A 
ATOM     24  C   UNL     1     -17.149   6.681  17.315  0.00  0.00    +0.039 A 
ATOM     25  C   UNL     1     -16.771   6.767  18.654  0.00  0.00    +0.123 A 
ENDBRANCH  14  17
ENDBRANCH  11   6
ENDBRANCH   9  11
TORSDOF 7
ENDMDL
MODEL 8
REMARK VINA RESULT:      -6.6     19.582     21.930
REMARK  Name = 75536639
REMARK  7 active torsions:
REMARK  status: ('A' for Active; 'I' for Inactive)
REMARK    1  A    between atoms: O_3  and  C_8
REMARK    2  A    between atoms: N_5  and  C_7
REMARK    3  A    between atoms: N_5  and  C_12
REMARK    4  A    between atoms: N_6  and  C_11
REMARK    5  A    between atoms: C_9  and  C_11
REMARK    6  A    between atoms: C_12  and  C_13
REMARK    7  A    between atoms: C_14  and  C_17
REMARK                            x       y       z     vdW  Elec       q    Type
REMARK                         _______ _______ _______ _____ _____    ______ ____
ROOT
ATOM      2  O   UNL     1      -9.622  -7.444   5.886  0.00  0.00    -0.371 OA
ATOM      7  C   UNL     1      -9.530  -5.897   7.686  0.00  0.00    +0.111 C 
ATOM      8  C   UNL     1      -8.332  -6.826   7.769  0.00  0.00    +0.164 C 
ATOM      9  C   UNL     1      -8.262  -7.342   6.339  0.00  0.00    +0.165 C 
ATOM     10  C   UNL     1     -10.459  -6.686   6.777  0.00  0.00    +0.181 C 
ENDROOT
BRANCH   8   3
ATOM      3  O   UNL     1      -7.146  -6.154   8.146  0.00  0.00    -0.388 OA
ATOM     27  H   UNL     1      -7.381  -5.255   8.434  0.00  0.00    +0.210 HD
ENDBRANCH   8   3
BRANCH   7   5
ATOM      5  N   UNL     1     -10.124  -5.595   8.978  0.00  0.00    -0.305 NA
ATOM     26  H   UNL     1      -9.511  -5.943   9.715  0.00  0.00    +0.123 HD
BRANCH   5  12
ATOM     12  C   UNL     1     -10.304  -4.158   9.150  0.00  0.00    +0.116 C 
BRANCH  12  13
ATOM     13  C   UNL     1     -11.662  -3.827   9.710  0.00  0.00    -0.034 A 
ATOM     15  C   UNL     1     -12.737  -3.604   8.849  0.00  0.00    +0.005 A 
ATOM     16  C   UNL     1     -11.844  -3.741  11.090  0.00  0.00    +0.005 A 
ATOM     18  C   UNL     1     -13.995  -3.297   9.369  0.00  0.00    +0.000 A 
ATOM     19  C   UNL     1     -13.101  -3.435  11.610  0.00  0.00    +0.000 A 
ATOM     20  C   UNL     1     -14.176  -3.212  10.749  0.00  0.00    +0.000 A 
ENDBRANCH  12  13
ENDBRANCH   5  12
ENDBRANCH   7   5
BRANCH   9  11
ATOM     11  C   UNL     1      -7.579  -8.693   6.221  0.00  0.00    +0.138 C 
BRANCH  11   6
ATOM      4  O   UNL     1      -5.520 -10.691   6.339  0.00  0.00    -0.270 OA
ATOM      6  N   UNL     1      -6.648  -8.902   7.293  0.00  0.00    -0.309 N 
ATOM     14  C   UNL     1      -5.678  -9.900   7.264  0.00  0.00    +0.244 C 
ATOM     28  H   UNL     1      -6.770  -8.328   8.119  0.00  0.00    +0.149 HD
BRANCH  14  17
ATOM      1  F   UNL     1      -2.390 -10.281  11.800  0.00  0.00    -0.205 F 
ATOM     17  C   UNL     1      -4.808 -10.002   8.464  0.00  0.00    +0.037 A 
ATOM     21  C   UNL     1      -4.284  -8.846   9.045  0.00  0.00    +0.016 A 
ATOM     22  C   UNL     1      -4.514 -11.251   9.010  0.00  0.00    +0.016 A 
ATOM     23  C   UNL     1      -3.467  -8.940  10.171  0.00  0.00    +0.039 A 
ATOM     24  C   UNL     1      -3.697 -11.345  10.137  0.00  0.00    +0.039 A 
ATOM     25  C   UNL     1      -3.174 -10.190  10.717  0.00  0.00    +0.123 A 
ENDBRANCH  14  17
ENDBRANCH  11   6
ENDBRANCH   9  11
TORSDOF 7
ENDMDL
MODEL 9
REMARK VINA RESULT:      -6.6     17.928     19.922
REMARK  Name = 75536639
REMARK  7 active torsions:
REMARK  status: ('A' for Active; 'I' for Inactive)
REMARK    1  A    between atoms: O_3  and  C_8
REMARK    2  A    between atoms: N_5  and  C_7
REMARK    3  A    between atoms: N_5  and  C_12
REMARK    4  A    between atoms: N_6  and  C_11
REMARK    5  A    between atoms: C_9  and  C_11
REMARK    6  A    between atoms: C_12  and  C_13
REMARK    7  A    between atoms: C_14  and  C_17
REMARK                            x       y       z     vdW  Elec       q    Type
REMARK                         _______ _______ _______ _____ _____    ______ ____
ROOT
ATOM      2  O   UNL     1      -6.486 -11.308  18.350  0.00  0.00    -0.371 OA
ATOM      7  C   UNL     1      -8.441 -10.091  17.768  0.00  0.00    +0.111 C 
ATOM      8  C   UNL     1      -7.286  -9.612  16.908  0.00  0.00    +0.164 C 
ATOM      9  C   UNL     1      -6.331 -10.793  17.017  0.00  0.00    +0.165 C 
ATOM     10  C   UNL     1      -7.704 -10.781  18.905  0.00  0.00    +0.181 C 
ENDROOT
BRANCH   8   3
ATOM      3  O   UNL     1      -7.668  -9.365  15.569  0.00  0.00    -0.388 OA
ATOM     27  H   UNL     1      -7.076  -9.868  14.984  0.00  0.00    +0.210 HD
ENDBRANCH   8   3
BRANCH   7   5
ATOM      5  N   UNL     1      -9.311  -9.019  18.226  0.00  0.00    -0.305 NA
ATOM     26  H   UNL     1      -9.048  -8.154  17.755  0.00  0.00    +0.123 HD
BRANCH   5  12
ATOM     12  C   UNL     1     -10.708  -9.314  17.928  0.00  0.00    +0.116 C 
BRANCH  12  13
ATOM     13  C   UNL     1     -11.346  -8.227  17.104  0.00  0.00    -0.034 A 
ATOM     15  C   UNL     1     -10.604  -7.105  16.734  0.00  0.00    +0.005 A 
ATOM     16  C   UNL     1     -12.680  -8.342  16.712  0.00  0.00    +0.005 A 
ATOM     18  C   UNL     1     -11.196  -6.099  15.970  0.00  0.00    +0.000 A 
ATOM     19  C   UNL     1     -13.271  -7.336  15.948  0.00  0.00    +0.000 A 
ATOM     20  C   UNL     1     -12.529  -6.214  15.578  0.00  0.00    +0.000 A 
ENDBRANCH  12  13
ENDBRANCH   5  12
ENDBRANCH   7   5
BRANCH   9  11
ATOM     11  C   UNL     1      -4.880 -10.414  16.779  0.00  0.00    +0.138 C 
BRANCH  11   6
ATOM      4  O   UNL     1      -3.591 -12.065  14.815  0.00  0.00    -0.270 OA
ATOM      6  N   UNL     1      -4.646 -10.084  15.403  0.00  0.00    -0.309 N 
ATOM     14  C   UNL     1      -4.010 -10.950  14.518  0.00  0.00    +0.244 C 
ATOM     28  H   UNL     1      -4.905  -9.149  15.109  0.00  0.00    +0.149 HD
BRANCH  14  17
ATOM      1  F   UNL     1      -3.298  -9.051   9.282  0.00  0.00    -0.205 F 
ATOM     17  C   UNL     1      -3.821 -10.449  13.132  0.00  0.00    +0.037 A 
ATOM     21  C   UNL     1      -4.904  -9.917  12.430  0.00  0.00    +0.016 A 
ATOM     22  C   UNL     1      -2.563 -10.508  12.533  0.00  0.00    +0.016 A 
ATOM     23  C   UNL     1      -4.727  -9.445  11.129  0.00  0.00    +0.039 A 
ATOM     24  C   UNL     1      -2.387 -10.036  11.232  0.00  0.00    +0.039 A 
ATOM     25  C   UNL     1      -3.469  -9.505  10.531  0.00  0.00    +0.123 A 
ENDBRANCH  14  17
ENDBRANCH  11   6
ENDBRANCH   9  11
TORSDOF 7
ENDMDL
MODEL 10
REMARK VINA RESULT:      -6.6     31.381     35.650
REMARK  Name = 75536639
REMARK  7 active torsions:
REMARK  status: ('A' for Active; 'I' for Inactive)
REMARK    1  A    between atoms: O_3  and  C_8
REMARK    2  A    between atoms: N_5  and  C_7
REMARK    3  A    between atoms: N_5  and  C_12
REMARK    4  A    between atoms: N_6  and  C_11
REMARK    5  A    between atoms: C_9  and  C_11
REMARK    6  A    between atoms: C_12  and  C_13
REMARK    7  A    between atoms: C_14  and  C_17
REMARK                            x       y       z     vdW  Elec       q    Type
REMARK                         _______ _______ _______ _____ _____    ______ ____
ROOT
ATOM      2  O   UNL     1      13.654   7.746   5.484  0.00  0.00    -0.371 OA
ATOM      7  C   UNL     1      15.537   7.921   4.047  0.00  0.00    +0.111 C 
ATOM      8  C   UNL     1      14.402   7.252   3.295  0.00  0.00    +0.164 C 
ATOM      9  C   UNL     1      13.202   7.696   4.120  0.00  0.00    +0.165 C 
ATOM     10  C   UNL     1      15.092   7.737   5.489  0.00  0.00    +0.181 C 
ENDROOT
BRANCH   8   3
ATOM      3  O   UNL     1      14.307   7.684   1.952  0.00  0.00    -0.388 OA
ATOM     27  H   UNL     1      14.227   6.900   1.382  0.00  0.00    +0.210 HD
ENDBRANCH   8   3
BRANCH   7   5
ATOM      5  N   UNL     1      16.840   7.335   3.778  0.00  0.00    -0.305 NA
ATOM     26  H   UNL     1      16.798   6.820   2.899  0.00  0.00    +0.123 HD
BRANCH   5  12
ATOM     12  C   UNL     1      17.868   8.365   3.674  0.00  0.00    +0.116 C 
BRANCH  12  13
ATOM     13  C   UNL     1      18.940   8.194   4.717  0.00  0.00    -0.034 A 
ATOM     15  C   UNL     1      18.774   8.749   5.986  0.00  0.00    +0.005 A 
ATOM     16  C   UNL     1      20.100   7.481   4.414  0.00  0.00    +0.005 A 
ATOM     18  C   UNL     1      19.768   8.590   6.952  0.00  0.00    +0.000 A 
ATOM     19  C   UNL     1      21.093   7.322   5.380  0.00  0.00    +0.000 A 
ATOM     20  C   UNL     1      20.927   7.877   6.649  0.00  0.00    +0.000 A 
ENDBRANCH  12  13
ENDBRANCH   5  12
ENDBRANCH   7   5
BRANCH   9  11
ATOM     11  C   UNL     1      12.015   6.755   4.007  0.00  0.00    +0.138 C 
BRANCH  11   6
ATOM      4  O   UNL     1      10.073   4.734   4.631  0.00  0.00    -0.270 OA
ATOM      6  N   UNL     1      11.430   6.497   5.292  0.00  0.00    -0.309 N 
ATOM     14  C   UNL     1      10.491   5.491   5.503  0.00  0.00    +0.244 C 
ATOM     28  H   UNL     1      11.680   7.132   6.041  0.00  0.00    +0.149 HD
BRANCH  14  17
ATOM      1  F   UNL     1       8.489   5.032  10.729  0.00  0.00    -0.205 F 
ATOM     17  C   UNL     1       9.962   5.369   6.886  0.00  0.00    +0.037 A 
ATOM     21  C   UNL     1       9.430   6.487   7.530  0.00  0.00    +0.016 A 
ATOM     22  C   UNL     1       9.998   4.138   7.541  0.00  0.00    +0.016 A 
ATOM     23  C   UNL     1       8.933   6.373   8.828  0.00  0.00    +0.039 A 
ATOM     24  C   UNL     1       9.500   4.025   8.839  0.00  0.00    +0.039 A 
ATOM     25  C   UNL     1       8.968   5.142   9.482  0.00  0.00    +0.123 A 
ENDBRANCH  14  17
ENDBRANCH  11   6
ENDBRANCH   9  11
TORSDOF 7
ENDMDL
