MODEL 1
REMARK VINA RESULT:      -7.7      0.000      0.000
REMARK  Name = 45783508
REMARK  5 active torsions:
REMARK  status: ('A' for Active; 'I' for Inactive)
REMARK    1  A    between atoms: N_3  and  C_13
REMARK    2  A    between atoms: C_9  and  C_14
REMARK    3  A    between atoms: C_13  and  C_15
REMARK    4  A    between atoms: C_16  and  C_21
REMARK    5  A    between atoms: C_25  and  C_31
REMARK                            x       y       z     vdW  Elec       q    Type
REMARK                         _______ _______ _______ _____ _____    ______ ____
ROOT
ATOM      1  O   UNL     1      14.897   8.518  19.933  0.00  0.00    -0.336 OA
ATOM      4  N   UNL     1      15.933   6.778  18.975  0.00  0.00    -0.190 NA
ATOM      6  N   UNL     1      16.090   8.335  20.644  0.00  0.00    -0.056 NA
ATOM     14  C   UNL     1      14.883   7.560  18.969  0.00  0.00    +0.245 A 
ATOM     16  C   UNL     1      16.644   7.292  20.020  0.00  0.00    +0.204 A 
ENDROOT
BRANCH  16  21
ATOM      2  O   UNL     1      24.102   4.409  22.476  0.00  0.00    -0.377 OA
ATOM      5  N   UNL     1      21.547   5.211  21.624  0.00  0.00    -0.311 N 
ATOM      7  N   UNL     1      19.824   6.812  21.888  0.00  0.00    -0.240 NA
ATOM     19  C   UNL     1      21.931   5.334  23.036  0.00  0.00    +0.134 C 
ATOM     20  C   UNL     1      22.664   5.165  20.673  0.00  0.00    +0.134 C 
ATOM     21  C   UNL     1      17.907   6.739  20.416  0.00  0.00    +0.041 A 
ATOM     22  C   UNL     1      22.997   4.297  23.372  0.00  0.00    +0.178 C 
ATOM     23  C   UNL     1      23.692   4.137  21.136  0.00  0.00    +0.178 C 
ATOM     24  C   UNL     1      20.314   5.741  21.225  0.00  0.00    +0.121 A 
ATOM     27  C   UNL     1      18.445   5.638  19.758  0.00  0.00    +0.016 A 
ATOM     28  C   UNL     1      19.671   5.123  20.165  0.00  0.00    +0.044 A 
ATOM     30  C   UNL     1      18.629   7.284  21.466  0.00  0.00    +0.124 A 
ENDBRANCH  16  21
BRANCH  14   9
ATOM      3  N   UNL     1      12.588   8.415  18.530  0.00  0.00    -0.287 NA
ATOM      9  C   UNL     1      13.679   7.545  18.050  0.00  0.00    +0.146 C 
ATOM     10  C   UNL     1      14.004   8.067  16.638  0.00  0.00    +0.030 C 
ATOM     11  C   UNL     1      13.004   9.188  16.389  0.00  0.00    +0.017 C 
ATOM     12  C   UNL     1      11.868   8.871  17.340  0.00  0.00    +0.085 C 
BRANCH   3  13
ATOM     13  C   UNL     1      11.707   7.757  19.485  0.00  0.00    +0.120 C 
BRANCH  13  15
ATOM     15  C   UNL     1      11.429   8.626  20.683  0.00  0.00    -0.032 A 
ATOM     17  C   UNL     1      11.761   9.979  20.656  0.00  0.00    +0.023 A 
ATOM     18  C   UNL     1      10.835   8.075  21.819  0.00  0.00    +0.005 A 
ATOM     25  C   UNL     1      11.503  10.783  21.767  0.00  0.00    +0.052 A 
ATOM     26  C   UNL     1      10.576   8.878  22.929  0.00  0.00    +0.002 A 
ATOM     29  C   UNL     1      10.910  10.233  22.903  0.00  0.00    +0.019 A 
BRANCH  25  31
ATOM      8  N   UNL     1      12.121  13.297  21.720  0.00  0.00    -0.191 NA
ATOM     31  C   UNL     1      11.844  12.171  21.741  0.00  0.00    +0.099 C 
ENDBRANCH  25  31
ENDBRANCH  13  15
ENDBRANCH   3  13
ENDBRANCH  14   9
TORSDOF 5
ENDMDL
MODEL 2
REMARK VINA RESULT:      -7.4      1.830      3.746
REMARK  Name = 45783508
REMARK  5 active torsions:
REMARK  status: ('A' for Active; 'I' for Inactive)
REMARK    1  A    between atoms: N_3  and  C_13
REMARK    2  A    between atoms: C_9  and  C_14
REMARK    3  A    between atoms: C_13  and  C_15
REMARK    4  A    between atoms: C_16  and  C_21
REMARK    5  A    between atoms: C_25  and  C_31
REMARK                            x       y       z     vdW  Elec       q    Type
REMARK                         _______ _______ _______ _____ _____    ______ ____
ROOT
ATOM      1  O   UNL     1      14.412   6.950  19.452  0.00  0.00    -0.336 OA
ATOM      4  N   UNL     1      15.616   7.510  21.256  0.00  0.00    -0.190 NA
ATOM      6  N   UNL     1      15.682   6.390  19.262  0.00  0.00    -0.056 NA
ATOM     14  C   UNL     1      14.459   7.591  20.650  0.00  0.00    +0.245 A 
ATOM     16  C   UNL     1      16.333   6.763  20.367  0.00  0.00    +0.204 A 
ENDROOT
BRANCH  16  21
ATOM      2  O   UNL     1      24.356   5.035  21.986  0.00  0.00    -0.377 OA
ATOM      5  N   UNL     1      21.639   5.448  21.397  0.00  0.00    -0.311 N 
ATOM      7  N   UNL     1      19.691   6.666  21.964  0.00  0.00    -0.240 NA
ATOM     19  C   UNL     1      22.110   5.480  22.788  0.00  0.00    +0.134 C 
ATOM     20  C   UNL     1      22.665   5.712  20.382  0.00  0.00    +0.134 C 
ATOM     21  C   UNL     1      17.702   6.409  20.613  0.00  0.00    +0.041 A 
ATOM     22  C   UNL     1      23.364   4.624  22.927  0.00  0.00    +0.178 C 
ATOM     23  C   UNL     1      23.890   4.845  20.650  0.00  0.00    +0.178 C 
ATOM     24  C   UNL     1      20.304   5.784  21.144  0.00  0.00    +0.121 A 
ATOM     27  C   UNL     1      18.368   5.506  19.791  0.00  0.00    +0.016 A 
ATOM     28  C   UNL     1      19.694   5.182  20.055  0.00  0.00    +0.044 A 
ATOM     30  C   UNL     1      18.402   6.956  21.677  0.00  0.00    +0.124 A 
ENDBRANCH  16  21
BRANCH  14   9
ATOM      3  N   UNL     1      12.420   8.839  19.960  0.00  0.00    -0.287 NA
ATOM      9  C   UNL     1      13.189   8.287  21.093  0.00  0.00    +0.146 C 
ATOM     10  C   UNL     1      12.209   7.337  21.806  0.00  0.00    +0.030 C 
ATOM     11  C   UNL     1      10.899   7.469  21.040  0.00  0.00    +0.017 C 
ATOM     12  C   UNL     1      11.014   8.822  20.366  0.00  0.00    +0.085 C 
BRANCH   3  13
ATOM     13  C   UNL     1      12.859  10.169  19.561  0.00  0.00    +0.120 C 
BRANCH  13  15
ATOM     15  C   UNL     1      13.322  10.202  18.129  0.00  0.00    -0.032 A 
ATOM     17  C   UNL     1      14.385  11.024  17.757  0.00  0.00    +0.023 A 
ATOM     18  C   UNL     1      12.686   9.408  17.174  0.00  0.00    +0.005 A 
ATOM     25  C   UNL     1      14.812  11.054  16.429  0.00  0.00    +0.052 A 
ATOM     26  C   UNL     1      13.115   9.436  15.847  0.00  0.00    +0.002 A 
ATOM     29  C   UNL     1      14.178  10.259  15.475  0.00  0.00    +0.019 A 
BRANCH  25  31
ATOM      8  N   UNL     1      16.787  12.579  15.737  0.00  0.00    -0.191 NA
ATOM     31  C   UNL     1      15.902  11.896  16.047  0.00  0.00    +0.099 C 
ENDBRANCH  25  31
ENDBRANCH  13  15
ENDBRANCH   3  13
ENDBRANCH  14   9
TORSDOF 5
ENDMDL
MODEL 3
REMARK VINA RESULT:      -7.4     27.255     31.877
REMARK  Name = 45783508
REMARK  5 active torsions:
REMARK  status: ('A' for Active; 'I' for Inactive)
REMARK    1  A    between atoms: N_3  and  C_13
REMARK    2  A    between atoms: C_9  and  C_14
REMARK    3  A    between atoms: C_13  and  C_15
REMARK    4  A    between atoms: C_16  and  C_21
REMARK    5  A    between atoms: C_25  and  C_31
REMARK                            x       y       z     vdW  Elec       q    Type
REMARK                         _______ _______ _______ _____ _____    ______ ____
ROOT
ATOM      1  O   UNL     1     -14.976   4.178  24.083  0.00  0.00    -0.336 OA
ATOM      4  N   UNL     1     -15.663   4.729  22.023  0.00  0.00    -0.190 NA
ATOM      6  N   UNL     1     -13.994   5.028  23.559  0.00  0.00    -0.056 NA
ATOM     14  C   UNL     1     -15.922   4.054  23.114  0.00  0.00    +0.245 A 
ATOM     16  C   UNL     1     -14.471   5.311  22.343  0.00  0.00    +0.204 A 
ENDROOT
BRANCH  16  21
ATOM      2  O   UNL     1     -10.762  10.309  16.756  0.00  0.00    -0.377 OA
ATOM      5  N   UNL     1     -11.879   8.669  18.746  0.00  0.00    -0.311 N 
ATOM      7  N   UNL     1     -13.890   7.825  19.666  0.00  0.00    -0.240 NA
ATOM     19  C   UNL     1     -12.536   9.926  18.365  0.00  0.00    +0.134 C 
ATOM     20  C   UNL     1     -10.983   8.099  17.734  0.00  0.00    +0.134 C 
ATOM     21  C   UNL     1     -13.781   6.168  21.424  0.00  0.00    +0.041 A 
ATOM     22  C   UNL     1     -11.501  10.905  17.822  0.00  0.00    +0.178 C 
ATOM     23  C   UNL     1     -10.030   9.176  17.224  0.00  0.00    +0.178 C 
ATOM     24  C   UNL     1     -12.538   7.826  19.648  0.00  0.00    +0.121 A 
ATOM     27  C   UNL     1     -12.391   6.198  21.375  0.00  0.00    +0.016 A 
ATOM     28  C   UNL     1     -11.750   7.040  20.473  0.00  0.00    +0.044 A 
ATOM     30  C   UNL     1     -14.478   6.994  20.556  0.00  0.00    +0.124 A 
ENDBRANCH  16  21
BRANCH  14   9
ATOM      3  N   UNL     1     -17.325   3.024  24.893  0.00  0.00    -0.287 NA
ATOM      9  C   UNL     1     -17.110   3.172  23.440  0.00  0.00    +0.146 C 
ATOM     10  C   UNL     1     -18.436   3.742  22.903  0.00  0.00    +0.030 C 
ATOM     11  C   UNL     1     -19.354   3.821  24.116  0.00  0.00    +0.017 C 
ATOM     12  C   UNL     1     -18.761   2.812  25.078  0.00  0.00    +0.085 C 
BRANCH   3  13
ATOM     13  C   UNL     1     -16.532   1.955  25.484  0.00  0.00    +0.120 C 
BRANCH  13  15
ATOM     15  C   UNL     1     -16.287   2.185  26.952  0.00  0.00    -0.032 A 
ATOM     17  C   UNL     1     -16.159   1.098  27.817  0.00  0.00    +0.023 A 
ATOM     18  C   UNL     1     -16.187   3.486  27.446  0.00  0.00    +0.005 A 
ATOM     25  C   UNL     1     -15.932   1.313  29.177  0.00  0.00    +0.052 A 
ATOM     26  C   UNL     1     -15.958   3.700  28.805  0.00  0.00    +0.002 A 
ATOM     29  C   UNL     1     -15.832   2.613  29.670  0.00  0.00    +0.019 A 
BRANCH  25  31
ATOM      8  N   UNL     1     -15.695  -0.704  30.784  0.00  0.00    -0.191 NA
ATOM     31  C   UNL     1     -15.801   0.200  30.064  0.00  0.00    +0.099 C 
ENDBRANCH  25  31
ENDBRANCH  13  15
ENDBRANCH   3  13
ENDBRANCH  14   9
TORSDOF 5
ENDMDL
MODEL 4
REMARK VINA RESULT:      -7.2      4.347      8.603
REMARK  Name = 45783508
REMARK  5 active torsions:
REMARK  status: ('A' for Active; 'I' for Inactive)
REMARK    1  A    between atoms: N_3  and  C_13
REMARK    2  A    between atoms: C_9  and  C_14
REMARK    3  A    between atoms: C_13  and  C_15
REMARK    4  A    between atoms: C_16  and  C_21
REMARK    5  A    between atoms: C_25  and  C_31
REMARK                            x       y       z     vdW  Elec       q    Type
REMARK                         _______ _______ _______ _____ _____    ______ ____
ROOT
ATOM      1  O   UNL     1      12.980  10.526  19.237  0.00  0.00    -0.336 OA
ATOM      4  N   UNL     1      13.659   9.314  17.479  0.00  0.00    -0.190 NA
ATOM      6  N   UNL     1      13.662  11.412  18.393  0.00  0.00    -0.056 NA
ATOM     14  C   UNL     1      13.026   9.313  18.624  0.00  0.00    +0.245 A 
ATOM     16  C   UNL     1      14.031  10.624  17.379  0.00  0.00    +0.204 A 
ENDROOT
BRANCH  16  21
ATOM      2  O   UNL     1      18.390  13.106  10.686  0.00  0.00    -0.377 OA
ATOM      5  N   UNL     1      16.881  12.440  12.961  0.00  0.00    -0.311 N 
ATOM      7  N   UNL     1      15.516  10.793  13.974  0.00  0.00    -0.240 NA
ATOM     19  C   UNL     1      16.412  12.060  11.622  0.00  0.00    +0.134 C 
ATOM     20  C   UNL     1      18.324  12.680  13.074  0.00  0.00    +0.134 C 
ATOM     21  C   UNL     1      14.773  11.112  16.253  0.00  0.00    +0.041 A 
ATOM     22  C   UNL     1      16.968  13.031  10.587  0.00  0.00    +0.178 C 
ATOM     23  C   UNL     1      18.779  13.618  11.961  0.00  0.00    +0.178 C 
ATOM     24  C   UNL     1      16.162  11.976  14.069  0.00  0.00    +0.121 A 
ATOM     27  C   UNL     1      15.451  12.325  16.312  0.00  0.00    +0.016 A 
ATOM     28  C   UNL     1      16.162  12.772  15.203  0.00  0.00    +0.044 A 
ATOM     30  C   UNL     1      14.835  10.391  15.071  0.00  0.00    +0.124 A 
ENDBRANCH  16  21
BRANCH  14   9
ATOM      3  N   UNL     1      13.092   7.731  20.544  0.00  0.00    -0.287 NA
ATOM      9  C   UNL     1      12.348   8.167  19.346  0.00  0.00    +0.146 C 
ATOM     10  C   UNL     1      10.948   8.540  19.869  0.00  0.00    +0.030 C 
ATOM     11  C   UNL     1      10.982   8.222  21.357  0.00  0.00    +0.017 C 
ATOM     12  C   UNL     1      12.098   7.204  21.479  0.00  0.00    +0.085 C 
BRANCH   3  13
ATOM     13  C   UNL     1      14.137   6.760  20.249  0.00  0.00    +0.120 C 
BRANCH  13  15
ATOM     15  C   UNL     1      15.501   7.270  20.629  0.00  0.00    -0.032 A 
ATOM     17  C   UNL     1      16.627   6.472  20.426  0.00  0.00    +0.023 A 
ATOM     18  C   UNL     1      15.639   8.543  21.183  0.00  0.00    +0.005 A 
ATOM     25  C   UNL     1      17.891   6.947  20.779  0.00  0.00    +0.052 A 
ATOM     26  C   UNL     1      16.902   9.018  21.534  0.00  0.00    +0.002 A 
ATOM     29  C   UNL     1      18.028   8.219  21.332  0.00  0.00    +0.019 A 
BRANCH  25  31
ATOM      8  N   UNL     1      19.982   5.466  20.403  0.00  0.00    -0.191 NA
ATOM     31  C   UNL     1      19.044   6.130  20.571  0.00  0.00    +0.099 C 
ENDBRANCH  25  31
ENDBRANCH  13  15
ENDBRANCH   3  13
ENDBRANCH  14   9
TORSDOF 5
ENDMDL
MODEL 5
REMARK VINA RESULT:      -7.2     26.606     30.663
REMARK  Name = 45783508
REMARK  5 active torsions:
REMARK  status: ('A' for Active; 'I' for Inactive)
REMARK    1  A    between atoms: N_3  and  C_13
REMARK    2  A    between atoms: C_9  and  C_14
REMARK    3  A    between atoms: C_13  and  C_15
REMARK    4  A    between atoms: C_16  and  C_21
REMARK    5  A    between atoms: C_25  and  C_31
REMARK                            x       y       z     vdW  Elec       q    Type
REMARK                         _______ _______ _______ _____ _____    ______ ____
ROOT
ATOM      1  O   UNL     1      -4.972 -11.229  17.189  0.00  0.00    -0.336 OA
ATOM      4  N   UNL     1      -5.586 -10.218  15.287  0.00  0.00    -0.190 NA
ATOM      6  N   UNL     1      -6.287 -10.788  17.389  0.00  0.00    -0.056 NA
ATOM     14  C   UNL     1      -4.637 -10.852  15.927  0.00  0.00    +0.245 A 
ATOM     16  C   UNL     1      -6.578 -10.203  16.224  0.00  0.00    +0.204 A 
ENDROOT
BRANCH  16  21
ATOM      2  O   UNL     1     -13.913  -6.654  14.332  0.00  0.00    -0.377 OA
ATOM      5  N   UNL     1     -11.510  -7.876  15.130  0.00  0.00    -0.311 N 
ATOM      7  N   UNL     1      -9.676  -9.197  14.429  0.00  0.00    -0.240 NA
ATOM     19  C   UNL     1     -12.408  -8.551  14.183  0.00  0.00    +0.134 C 
ATOM     20  C   UNL     1     -11.660  -6.418  15.202  0.00  0.00    +0.134 C 
ATOM     21  C   UNL     1      -7.850  -9.593  15.964  0.00  0.00    +0.041 A 
ATOM     22  C   UNL     1     -13.840  -8.078  14.404  0.00  0.00    +0.178 C 
ATOM     23  C   UNL     1     -13.132  -6.058  15.368  0.00  0.00    +0.178 C 
ATOM     24  C   UNL     1     -10.269  -8.464  15.398  0.00  0.00    +0.121 A 
ATOM     27  C   UNL     1      -8.492  -8.830  16.935  0.00  0.00    +0.016 A 
ATOM     28  C   UNL     1      -9.725  -8.252  16.654  0.00  0.00    +0.044 A 
ATOM     30  C   UNL     1      -8.480  -9.745  14.739  0.00  0.00    +0.124 A 
ENDBRANCH  16  21
BRANCH  14   9
ATOM      3  N   UNL     1      -2.893 -10.589  14.172  0.00  0.00    -0.287 NA
ATOM      9  C   UNL     1      -3.244 -11.218  15.460  0.00  0.00    +0.146 C 
ATOM     10  C   UNL     1      -2.149 -10.748  16.437  0.00  0.00    +0.030 C 
ATOM     11  C   UNL     1      -1.196  -9.913  15.593  0.00  0.00    +0.017 C 
ATOM     12  C   UNL     1      -1.441 -10.408  14.182  0.00  0.00    +0.085 C 
BRANCH   3  13
ATOM     13  C   UNL     1      -3.342 -11.356  13.017  0.00  0.00    +0.120 C 
BRANCH  13  15
ATOM     15  C   UNL     1      -3.769 -10.463  11.882  0.00  0.00    -0.032 A 
ATOM     17  C   UNL     1      -5.118 -10.163  11.699  0.00  0.00    +0.023 A 
ATOM     18  C   UNL     1      -2.812  -9.935  11.015  0.00  0.00    +0.005 A 
ATOM     25  C   UNL     1      -5.512  -9.335  10.647  0.00  0.00    +0.052 A 
ATOM     26  C   UNL     1      -3.205  -9.106   9.964  0.00  0.00    +0.002 A 
ATOM     29  C   UNL     1      -4.556  -8.807   9.781  0.00  0.00    +0.019 A 
BRANCH  25  31
ATOM      8  N   UNL     1      -8.017  -8.776  10.306  0.00  0.00    -0.191 NA
ATOM     31  C   UNL     1      -6.894  -9.027  10.459  0.00  0.00    +0.099 C 
ENDBRANCH  25  31
ENDBRANCH  13  15
ENDBRANCH   3  13
ENDBRANCH  14   9
TORSDOF 5
ENDMDL
MODEL 6
REMARK VINA RESULT:      -7.1      2.731     11.428
REMARK  Name = 45783508
REMARK  5 active torsions:
REMARK  status: ('A' for Active; 'I' for Inactive)
REMARK    1  A    between atoms: N_3  and  C_13
REMARK    2  A    between atoms: C_9  and  C_14
REMARK    3  A    between atoms: C_13  and  C_15
REMARK    4  A    between atoms: C_16  and  C_21
REMARK    5  A    between atoms: C_25  and  C_31
REMARK                            x       y       z     vdW  Elec       q    Type
REMARK                         _______ _______ _______ _____ _____    ______ ____
ROOT
ATOM      1  O   UNL     1      21.198   5.230  21.271  0.00  0.00    -0.336 OA
ATOM      4  N   UNL     1      19.770   6.667  22.227  0.00  0.00    -0.190 NA
ATOM      6  N   UNL     1      20.126   5.365  20.380  0.00  0.00    -0.056 NA
ATOM     14  C   UNL     1      20.908   6.029  22.332  0.00  0.00    +0.245 A 
ATOM     16  C   UNL     1      19.327   6.228  21.013  0.00  0.00    +0.204 A 
ENDROOT
BRANCH  16  21
ATOM      2  O   UNL     1      11.982   9.004  18.130  0.00  0.00    -0.377 OA
ATOM      5  N   UNL     1      14.490   8.022  18.935  0.00  0.00    -0.311 N 
ATOM      7  N   UNL     1      16.297   8.305  20.437  0.00  0.00    -0.240 NA
ATOM     19  C   UNL     1      14.231   9.468  18.914  0.00  0.00    +0.134 C 
ATOM     20  C   UNL     1      13.296   7.174  19.032  0.00  0.00    +0.134 C 
ATOM     21  C   UNL     1      18.079   6.671  20.463  0.00  0.00    +0.041 A 
ATOM     22  C   UNL     1      13.153   9.783  17.883  0.00  0.00    +0.178 C 
ATOM     23  C   UNL     1      12.267   7.612  17.995  0.00  0.00    +0.178 C 
ATOM     24  C   UNL     1      15.707   7.577  19.463  0.00  0.00    +0.121 A 
ATOM     27  C   UNL     1      17.441   5.949  19.460  0.00  0.00    +0.016 A 
ATOM     28  C   UNL     1      16.231   6.404  18.945  0.00  0.00    +0.044 A 
ATOM     30  C   UNL     1      17.471   7.833  20.912  0.00  0.00    +0.124 A 
ENDBRANCH  16  21
BRANCH  14   9
ATOM      3  N   UNL     1      23.016   5.083  23.256  0.00  0.00    -0.287 NA
ATOM      9  C   UNL     1      21.928   6.061  23.451  0.00  0.00    +0.146 C 
ATOM     10  C   UNL     1      22.641   7.422  23.566  0.00  0.00    +0.030 C 
ATOM     11  C   UNL     1      24.127   7.100  23.486  0.00  0.00    +0.017 C 
ATOM     12  C   UNL     1      24.200   5.646  23.906  0.00  0.00    +0.085 C 
BRANCH   3  13
ATOM     13  C   UNL     1      22.692   3.755  23.761  0.00  0.00    +0.120 C 
BRANCH  13  15
ATOM     15  C   UNL     1      23.442   2.677  23.026  0.00  0.00    -0.032 A 
ATOM     17  C   UNL     1      24.161   1.717  23.737  0.00  0.00    +0.023 A 
ATOM     18  C   UNL     1      23.415   2.637  21.631  0.00  0.00    +0.005 A 
ATOM     25  C   UNL     1      24.856   0.718  23.054  0.00  0.00    +0.052 A 
ATOM     26  C   UNL     1      24.108   1.637  20.949  0.00  0.00    +0.002 A 
ATOM     29  C   UNL     1      24.829   0.678  21.661  0.00  0.00    +0.019 A 
BRANCH  25  31
ATOM      8  N   UNL     1      26.192  -1.064  24.374  0.00  0.00    -0.191 NA
ATOM     31  C   UNL     1      25.593  -0.266  23.783  0.00  0.00    +0.099 C 
ENDBRANCH  25  31
ENDBRANCH  13  15
ENDBRANCH   3  13
ENDBRANCH  14   9
TORSDOF 5
ENDMDL
MODEL 7
REMARK VINA RESULT:      -6.8     15.061     20.720
REMARK  Name = 45783508
REMARK  5 active torsions:
REMARK  status: ('A' for Active; 'I' for Inactive)
REMARK    1  A    between atoms: N_3  and  C_13
REMARK    2  A    between atoms: C_9  and  C_14
REMARK    3  A    between atoms: C_13  and  C_15
REMARK    4  A    between atoms: C_16  and  C_21
REMARK    5  A    between atoms: C_25  and  C_31
REMARK                            x       y       z     vdW  Elec       q    Type
REMARK                         _______ _______ _______ _____ _____    ______ ____
ROOT
ATOM      1  O   UNL     1      10.446   8.902   2.014  0.00  0.00    -0.336 OA
ATOM      4  N   UNL     1       8.605   7.778   2.618  0.00  0.00    -0.190 NA
ATOM      6  N   UNL     1       9.402   9.836   2.016  0.00  0.00    -0.056 NA
ATOM     14  C   UNL     1       9.890   7.717   2.379  0.00  0.00    +0.245 A 
ATOM     16  C   UNL     1       8.351   9.098   2.382  0.00  0.00    +0.204 A 
ENDROOT
BRANCH  16  21
ATOM      2  O   UNL     1       0.681  12.407   2.818  0.00  0.00    -0.377 OA
ATOM      5  N   UNL     1       3.227  11.216   2.825  0.00  0.00    -0.311 N 
ATOM      7  N   UNL     1       4.952  10.309   1.483  0.00  0.00    -0.240 NA
ATOM     19  C   UNL     1       2.199  10.766   1.878  0.00  0.00    +0.134 C 
ATOM     20  C   UNL     1       3.044  12.575   3.348  0.00  0.00    +0.134 C 
ATOM     21  C   UNL     1       7.033   9.648   2.521  0.00  0.00    +0.041 A 
ATOM     22  C   UNL     1       0.814  11.033   2.454  0.00  0.00    +0.178 C 
ATOM     23  C   UNL     1       1.612  12.747   3.846  0.00  0.00    +0.178 C 
ATOM     24  C   UNL     1       4.515  10.683   2.706  0.00  0.00    +0.121 A 
ATOM     27  C   UNL     1       6.548  10.045   3.763  0.00  0.00    +0.016 A 
ATOM     28  C   UNL     1       5.266  10.574   3.865  0.00  0.00    +0.044 A 
ATOM     30  C   UNL     1       6.202   9.799   1.422  0.00  0.00    +0.124 A 
ENDBRANCH  16  21
BRANCH  14   9
ATOM      3  N   UNL     1      10.614   5.715   3.669  0.00  0.00    -0.287 NA
ATOM      9  C   UNL     1      10.826   6.528   2.455  0.00  0.00    +0.146 C 
ATOM     10  C   UNL     1      10.629   5.543   1.286  0.00  0.00    +0.030 C 
ATOM     11  C   UNL     1      10.374   4.194   1.942  0.00  0.00    +0.017 C 
ATOM     12  C   UNL     1      10.987   4.344   3.320  0.00  0.00    +0.085 C 
BRANCH   3  13
ATOM     13  C   UNL     1      11.351   6.207   4.825  0.00  0.00    +0.120 C 
BRANCH  13  15
ATOM     15  C   UNL     1      10.446   6.467   6.000  0.00  0.00    -0.032 A 
ATOM     17  C   UNL     1      10.570   5.703   7.159  0.00  0.00    +0.023 A 
ATOM     18  C   UNL     1       9.484   7.475   5.927  0.00  0.00    +0.005 A 
ATOM     25  C   UNL     1       9.731   5.945   8.247  0.00  0.00    +0.052 A 
ATOM     26  C   UNL     1       8.646   7.718   7.015  0.00  0.00    +0.002 A 
ATOM     29  C   UNL     1       8.769   6.952   8.175  0.00  0.00    +0.019 A 
BRANCH  25  31
ATOM      8  N   UNL     1       9.960   4.527  10.402  0.00  0.00    -0.191 NA
ATOM     31  C   UNL     1       9.857   5.162   9.436  0.00  0.00    +0.099 C 
ENDBRANCH  25  31
ENDBRANCH  13  15
ENDBRANCH   3  13
ENDBRANCH  14   9
TORSDOF 5
ENDMDL
MODEL 8
REMARK VINA RESULT:      -6.8      2.050      4.238
REMARK  Name = 45783508
REMARK  5 active torsions:
REMARK  status: ('A' for Active; 'I' for Inactive)
REMARK    1  A    between atoms: N_3  and  C_13
REMARK    2  A    between atoms: C_9  and  C_14
REMARK    3  A    between atoms: C_13  and  C_15
REMARK    4  A    between atoms: C_16  and  C_21
REMARK    5  A    between atoms: C_25  and  C_31
REMARK                            x       y       z     vdW  Elec       q    Type
REMARK                         _______ _______ _______ _____ _____    ______ ____
ROOT
ATOM      1  O   UNL     1      16.222  11.941  21.012  0.00  0.00    -0.336 OA
ATOM      4  N   UNL     1      15.851  10.013  22.091  0.00  0.00    -0.190 NA
ATOM      6  N   UNL     1      17.362  11.154  20.808  0.00  0.00    -0.056 NA
ATOM     14  C   UNL     1      15.382  11.194  21.777  0.00  0.00    +0.245 A 
ATOM     16  C   UNL     1      17.068  10.034  21.474  0.00  0.00    +0.204 A 
ENDROOT
BRANCH  16  21
ATOM      2  O   UNL     1      22.603   3.773  21.825  0.00  0.00    -0.377 OA
ATOM      5  N   UNL     1      20.623   5.767  21.772  0.00  0.00    -0.311 N 
ATOM      7  N   UNL     1      20.190   8.082  21.996  0.00  0.00    -0.240 NA
ATOM     19  C   UNL     1      21.723   5.839  22.742  0.00  0.00    +0.134 C 
ATOM     20  C   UNL     1      20.895   4.961  20.576  0.00  0.00    +0.134 C 
ATOM     21  C   UNL     1      17.966   8.918  21.543  0.00  0.00    +0.041 A 
ATOM     22  C   UNL     1      22.243   4.437  23.037  0.00  0.00    +0.178 C 
ATOM     23  C   UNL     1      21.461   3.605  20.986  0.00  0.00    +0.178 C 
ATOM     24  C   UNL     1      19.734   6.845  21.698  0.00  0.00    +0.121 A 
ATOM     27  C   UNL     1      17.535   7.630  21.244  0.00  0.00    +0.016 A 
ATOM     28  C   UNL     1      18.430   6.568  21.321  0.00  0.00    +0.044 A 
ATOM     30  C   UNL     1      19.292   9.090  21.911  0.00  0.00    +0.124 A 
ENDBRANCH  16  21
BRANCH  14   9
ATOM      3  N   UNL     1      12.921  10.898  21.998  0.00  0.00    -0.287 NA
ATOM      9  C   UNL     1      14.057  11.830  22.143  0.00  0.00    +0.146 C 
ATOM     10  C   UNL     1      14.003  12.287  23.613  0.00  0.00    +0.030 C 
ATOM     11  C   UNL     1      12.770  11.609  24.195  0.00  0.00    +0.017 C 
ATOM     12  C   UNL     1      11.917  11.313  22.978  0.00  0.00    +0.085 C 
BRANCH   3  13
ATOM     13  C   UNL     1      12.383  10.855  20.645  0.00  0.00    +0.120 C 
BRANCH  13  15
ATOM     15  C   UNL     1      12.830   9.624  19.901  0.00  0.00    -0.032 A 
ATOM     17  C   UNL     1      13.055   9.682  18.526  0.00  0.00    +0.023 A 
ATOM     18  C   UNL     1      13.022   8.426  20.590  0.00  0.00    +0.005 A 
ATOM     25  C   UNL     1      13.469   8.541  17.839  0.00  0.00    +0.052 A 
ATOM     26  C   UNL     1      13.437   7.286  19.903  0.00  0.00    +0.002 A 
ATOM     29  C   UNL     1      13.661   7.344  18.527  0.00  0.00    +0.019 A 
BRANCH  25  31
ATOM      8  N   UNL     1      13.886   8.648  15.285  0.00  0.00    -0.191 NA
ATOM     31  C   UNL     1      13.700   8.600  16.430  0.00  0.00    +0.099 C 
ENDBRANCH  25  31
ENDBRANCH  13  15
ENDBRANCH   3  13
ENDBRANCH  14   9
TORSDOF 5
ENDMDL
MODEL 9
REMARK VINA RESULT:      -6.7     28.350     31.361
REMARK  Name = 45783508
REMARK  5 active torsions:
REMARK  status: ('A' for Active; 'I' for Inactive)
REMARK    1  A    between atoms: N_3  and  C_13
REMARK    2  A    between atoms: C_9  and  C_14
REMARK    3  A    between atoms: C_13  and  C_15
REMARK    4  A    between atoms: C_16  and  C_21
REMARK    5  A    between atoms: C_25  and  C_31
REMARK                            x       y       z     vdW  Elec       q    Type
REMARK                         _______ _______ _______ _____ _____    ______ ____
ROOT
ATOM      1  O   UNL     1     -12.208  -7.706  13.482  0.00  0.00    -0.336 OA
ATOM      4  N   UNL     1     -11.480  -7.387  15.577  0.00  0.00    -0.190 NA
ATOM      6  N   UNL     1     -11.048  -8.480  13.614  0.00  0.00    -0.056 NA
ATOM     14  C   UNL     1     -12.391  -7.096  14.683  0.00  0.00    +0.245 A 
ATOM     16  C   UNL     1     -10.678  -8.240  14.875  0.00  0.00    +0.204 A 
ENDROOT
BRANCH  16  21
ATOM      2  O   UNL     1      -3.875 -11.413  18.564  0.00  0.00    -0.377 OA
ATOM      5  N   UNL     1      -6.181 -10.500  17.241  0.00  0.00    -0.311 N 
ATOM      7  N   UNL     1      -8.091  -9.112  17.399  0.00  0.00    -0.240 NA
ATOM     19  C   UNL     1      -6.212 -10.773  18.684  0.00  0.00    +0.134 C 
ATOM     20  C   UNL     1      -4.851 -10.228  16.685  0.00  0.00    +0.134 C 
ATOM     21  C   UNL     1      -9.513  -8.834  15.464  0.00  0.00    +0.041 A 
ATOM     22  C   UNL     1      -5.160 -11.820  19.033  0.00  0.00    +0.178 C 
ATOM     23  C   UNL     1      -3.871 -11.305  17.141  0.00  0.00    +0.178 C 
ATOM     24  C   UNL     1      -7.313  -9.928  16.652  0.00  0.00    +0.121 A 
ATOM     27  C   UNL     1      -8.688  -9.678  14.727  0.00  0.00    +0.016 A 
ATOM     28  C   UNL     1      -7.565 -10.239  15.326  0.00  0.00    +0.044 A 
ATOM     30  C   UNL     1      -9.174  -8.586  16.784  0.00  0.00    +0.124 A 
ENDBRANCH  16  21
BRANCH  14   9
ATOM      3  N   UNL     1     -13.954  -5.546  13.522  0.00  0.00    -0.287 NA
ATOM      9  C   UNL     1     -13.598  -6.189  14.803  0.00  0.00    +0.146 C 
ATOM     10  C   UNL     1     -14.870  -6.948  15.226  0.00  0.00    +0.030 C 
ATOM     11  C   UNL     1     -15.903  -6.621  14.157  0.00  0.00    +0.017 C 
ATOM     12  C   UNL     1     -15.400  -5.323  13.559  0.00  0.00    +0.085 C 
BRANCH   3  13
ATOM     13  C   UNL     1     -13.215  -4.316  13.273  0.00  0.00    +0.120 C 
BRANCH  13  15
ATOM     15  C   UNL     1     -13.057  -4.046  11.800  0.00  0.00    -0.032 A 
ATOM     17  C   UNL     1     -11.884  -4.419  11.143  0.00  0.00    +0.023 A 
ATOM     18  C   UNL     1     -14.085  -3.423  11.092  0.00  0.00    +0.005 A 
ATOM     25  C   UNL     1     -11.739  -4.167   9.779  0.00  0.00    +0.052 A 
ATOM     26  C   UNL     1     -13.941  -3.172   9.728  0.00  0.00    +0.002 A 
ATOM     29  C   UNL     1     -12.767  -3.545   9.072  0.00  0.00    +0.019 A 
BRANCH  25  31
ATOM      8  N   UNL     1      -9.563  -4.860   8.558  0.00  0.00    -0.191 NA
ATOM     31  C   UNL     1     -10.538  -4.549   9.105  0.00  0.00    +0.099 C 
ENDBRANCH  25  31
ENDBRANCH  13  15
ENDBRANCH   3  13
ENDBRANCH  14   9
TORSDOF 5
ENDMDL
MODEL 10
REMARK VINA RESULT:      -6.7     29.438     31.967
REMARK  Name = 45783508
REMARK  5 active torsions:
REMARK  status: ('A' for Active; 'I' for Inactive)
REMARK    1  A    between atoms: N_3  and  C_13
REMARK    2  A    between atoms: C_9  and  C_14
REMARK    3  A    between atoms: C_13  and  C_15
REMARK    4  A    between atoms: C_16  and  C_21
REMARK    5  A    between atoms: C_25  and  C_31
REMARK                            x       y       z     vdW  Elec       q    Type
REMARK                         _______ _______ _______ _____ _____    ______ ____
ROOT
ATOM      1  O   UNL     1     -13.758  -6.128  13.290  0.00  0.00    -0.336 OA
ATOM      4  N   UNL     1     -11.766  -5.383  13.995  0.00  0.00    -0.190 NA
ATOM      6  N   UNL     1     -13.170  -7.189  13.989  0.00  0.00    -0.056 NA
ATOM     14  C   UNL     1     -12.865  -5.104  13.341  0.00  0.00    +0.245 A 
ATOM     16  C   UNL     1     -12.000  -6.673  14.374  0.00  0.00    +0.204 A 
ENDROOT
BRANCH  16  21
ATOM      2  O   UNL     1      -6.445 -11.312  18.568  0.00  0.00    -0.377 OA
ATOM      5  N   UNL     1      -8.258  -9.614  17.252  0.00  0.00    -0.311 N 
ATOM      7  N   UNL     1      -9.376  -9.171  15.214  0.00  0.00    -0.240 NA
ATOM     19  C   UNL     1      -7.089 -10.148  16.539  0.00  0.00    +0.134 C 
ATOM     20  C   UNL     1      -8.685 -10.390  18.422  0.00  0.00    +0.134 C 
ATOM     21  C   UNL     1     -11.040  -7.419  15.136  0.00  0.00    +0.041 A 
ATOM     22  C   UNL     1      -5.973 -10.449  17.533  0.00  0.00    +0.178 C 
ATOM     23  C   UNL     1      -7.483 -10.679  19.316  0.00  0.00    +0.178 C 
ATOM     24  C   UNL     1      -9.198  -8.879  16.522  0.00  0.00    +0.121 A 
ATOM     27  C   UNL     1     -10.829  -7.148  16.484  0.00  0.00    +0.016 A 
ATOM     28  C   UNL     1      -9.892  -7.888  17.197  0.00  0.00    +0.044 A 
ATOM     30  C   UNL     1     -10.294  -8.431  14.553  0.00  0.00    +0.124 A 
ENDBRANCH  16  21
BRANCH  14   9
ATOM      3  N   UNL     1     -13.162  -3.909  11.178  0.00  0.00    -0.287 NA
ATOM      9  C   UNL     1     -13.271  -3.820  12.648  0.00  0.00    +0.146 C 
ATOM     10  C   UNL     1     -14.741  -3.443  12.910  0.00  0.00    +0.030 C 
ATOM     11  C   UNL     1     -15.362  -3.282  11.529  0.00  0.00    +0.017 C 
ATOM     12  C   UNL     1     -14.173  -3.002  10.633  0.00  0.00    +0.085 C 
BRANCH   3  13
ATOM     13  C   UNL     1     -11.827  -3.605  10.682  0.00  0.00    +0.120 C 
BRANCH  13  15
ATOM     15  C   UNL     1     -11.265  -4.733   9.858  0.00  0.00    -0.032 A 
ATOM     17  C   UNL     1     -11.765  -6.026  10.010  0.00  0.00    +0.023 A 
ATOM     18  C   UNL     1     -10.244  -4.483   8.941  0.00  0.00    +0.005 A 
ATOM     25  C   UNL     1     -11.243  -7.070   9.246  0.00  0.00    +0.052 A 
ATOM     26  C   UNL     1      -9.722  -5.527   8.176  0.00  0.00    +0.002 A 
ATOM     29  C   UNL     1     -10.223  -6.821   8.329  0.00  0.00    +0.019 A 
BRANCH  25  31
ATOM      8  N   UNL     1     -12.172  -9.471   9.527  0.00  0.00    -0.191 NA
ATOM     31  C   UNL     1     -11.755  -8.395   9.401  0.00  0.00    +0.099 C 
ENDBRANCH  25  31
ENDBRANCH  13  15
ENDBRANCH   3  13
ENDBRANCH  14   9
TORSDOF 5
ENDMDL
