MODEL 1
REMARK VINA RESULT:      -6.9      0.000      0.000
REMARK  Name = 40777506
REMARK  11 active torsions:
REMARK  status: ('A' for Active; 'I' for Inactive)
REMARK    1  A    between atoms: O_3  and  C_27
REMARK    2  A    between atoms: O_3  and  C_28
REMARK    3  A    between atoms: N_5  and  C_16
REMARK    4  A    between atoms: C_7  and  C_11
REMARK    5  A    between atoms: C_8  and  C_13
REMARK    6  A    between atoms: C_11  and  C_14
REMARK    7  A    between atoms: C_13  and  C_15
REMARK    8  A    between atoms: C_16  and  C_18
REMARK    9  A    between atoms: C_16  and  C_19
REMARK   10  A    between atoms: C_16  and  C_20
REMARK   11  A    between atoms: C_21  and  C_22
REMARK                            x       y       z     vdW  Elec       q    Type
REMARK                         _______ _______ _______ _____ _____    ______ ____
ROOT
ATOM      4  N   UNL     1      13.786   8.553  16.039  0.00  0.00    -0.316 NA
ATOM      7  C   UNL     1      13.839   9.359  18.877  0.00  0.00    +0.004 C 
ATOM      8  C   UNL     1      14.553   8.089  18.355  0.00  0.00    +0.012 C 
ATOM      9  C   UNL     1      13.686  10.360  17.720  0.00  0.00    +0.019 C 
ATOM     10  C   UNL     1      13.876   7.537  17.089  0.00  0.00    +0.085 C 
ATOM     12  C   UNL     1      13.044   9.730  16.484  0.00  0.00    +0.081 C 
ATOM     29  H   UNL     1      13.326   8.154  15.222  0.00  0.00    +0.122 HD
ENDROOT
BRANCH   7  11
ATOM     11  C   UNL     1      12.486   9.084  19.543  0.00  0.00    +0.099 C 
BRANCH  11  14
ATOM      1  O   UNL     1      12.860   8.926  21.928  0.00  0.00    -0.276 OA
ATOM      5  N   UNL     1      11.869  10.838  21.053  0.00  0.00    -0.311 N 
ATOM     14  C   UNL     1      12.441   9.576  20.975  0.00  0.00    +0.214 C 
ATOM     30  H   UNL     1      11.555  11.284  20.196  0.00  0.00    +0.149 HD
BRANCH   5  16
ATOM     16  C   UNL     1      11.698  11.550  22.298  0.00  0.00    +0.026 C 
ATOM     18  C   UNL     1      10.962  12.868  22.031  0.00  0.00    +0.031 C 
ATOM     19  C   UNL     1      10.878  10.685  23.261  0.00  0.00    +0.031 C 
ATOM     20  C   UNL     1      13.074  11.843  22.908  0.00  0.00    +0.031 C 
ENDBRANCH   5  16
ENDBRANCH  11  14
ENDBRANCH   7  11
BRANCH   8  13
ATOM     13  C   UNL     1      14.682   6.995  19.415  0.00  0.00    +0.064 C 
BRANCH  13  15
ATOM      2  O   UNL     1      17.924   5.477  19.029  0.00  0.00    -0.354 OA
ATOM      6  N   UNL     1      16.621   5.719  18.610  0.00  0.00    -0.083 NA
ATOM     15  C   UNL     1      16.100   6.520  19.543  0.00  0.00    +0.085 A 
ATOM     17  C   UNL     1      17.018   6.815  20.566  0.00  0.00    +0.076 A 
ATOM     21  C   UNL     1      18.148   6.134  20.195  0.00  0.00    +0.167 A 
BRANCH  21  22
ATOM     22  C   UNL     1      19.459   5.979  20.753  0.00  0.00    +0.020 A 
ATOM     23  C   UNL     1      20.291   4.952  20.308  0.00  0.00    +0.015 A 
ATOM     24  C   UNL     1      19.904   6.858  21.742  0.00  0.00    +0.015 A 
ATOM     25  C   UNL     1      21.567   4.802  20.851  0.00  0.00    +0.046 A 
ATOM     26  C   UNL     1      21.180   6.708  22.285  0.00  0.00    +0.046 A 
ATOM     27  C   UNL     1      22.012   5.680  21.839  0.00  0.00    +0.120 A 
BRANCH  27   3
ATOM      3  O   UNL     1      23.258   5.536  22.367  0.00  0.00    -0.495 OA
ATOM     28  C   UNL     1      23.359   5.489  23.789  0.00  0.00    +0.277 C 
ENDBRANCH  27   3
ENDBRANCH  21  22
ENDBRANCH  13  15
ENDBRANCH   8  13
TORSDOF 7
ENDMDL
MODEL 2
REMARK VINA RESULT:      -6.8      2.070      2.694
REMARK  Name = 40777506
REMARK  11 active torsions:
REMARK  status: ('A' for Active; 'I' for Inactive)
REMARK    1  A    between atoms: O_3  and  C_27
REMARK    2  A    between atoms: O_3  and  C_28
REMARK    3  A    between atoms: N_5  and  C_16
REMARK    4  A    between atoms: C_7  and  C_11
REMARK    5  A    between atoms: C_8  and  C_13
REMARK    6  A    between atoms: C_11  and  C_14
REMARK    7  A    between atoms: C_13  and  C_15
REMARK    8  A    between atoms: C_16  and  C_18
REMARK    9  A    between atoms: C_16  and  C_19
REMARK   10  A    between atoms: C_16  and  C_20
REMARK   11  A    between atoms: C_21  and  C_22
REMARK                            x       y       z     vdW  Elec       q    Type
REMARK                         _______ _______ _______ _____ _____    ______ ____
ROOT
ATOM      4  N   UNL     1      11.950   7.307  17.485  0.00  0.00    -0.316 NA
ATOM      7  C   UNL     1      14.026   8.924  18.820  0.00  0.00    +0.004 C 
ATOM      8  C   UNL     1      13.977   7.380  18.918  0.00  0.00    +0.012 C 
ATOM      9  C   UNL     1      13.309   9.368  17.535  0.00  0.00    +0.019 C 
ATOM     10  C   UNL     1      12.547   6.845  18.739  0.00  0.00    +0.085 C 
ATOM     12  C   UNL     1      11.911   8.765  17.407  0.00  0.00    +0.081 C 
ATOM     29  H   UNL     1      11.002   6.940  17.407  0.00  0.00    +0.122 HD
ENDROOT
BRANCH   7  11
ATOM     11  C   UNL     1      13.447   9.643  20.044  0.00  0.00    +0.099 C 
BRANCH  11  14
ATOM      1  O   UNL     1      14.038  11.743  21.091  0.00  0.00    -0.276 OA
ATOM      5  N   UNL     1      15.719  10.252  20.498  0.00  0.00    -0.311 N 
ATOM     14  C   UNL     1      14.402  10.675  20.607  0.00  0.00    +0.214 C 
ATOM     30  H   UNL     1      15.906   9.345  20.078  0.00  0.00    +0.149 HD
BRANCH   5  16
ATOM     16  C   UNL     1      16.841  11.039  20.954  0.00  0.00    +0.026 C 
ATOM     18  C   UNL     1      16.600  11.474  22.404  0.00  0.00    +0.031 C 
ATOM     19  C   UNL     1      18.115  10.191  20.872  0.00  0.00    +0.031 C 
ATOM     20  C   UNL     1      16.985  12.279  20.063  0.00  0.00    +0.031 C 
ENDBRANCH   5  16
ENDBRANCH  11  14
ENDBRANCH   7  11
BRANCH   8  13
ATOM     13  C   UNL     1      14.596   6.841  20.207  0.00  0.00    +0.064 C 
BRANCH  13  15
ATOM      2  O   UNL     1      17.802   5.704  19.029  0.00  0.00    -0.354 OA
ATOM      6  N   UNL     1      16.434   5.895  18.880  0.00  0.00    -0.083 NA
ATOM     15  C   UNL     1      16.040   6.480  20.013  0.00  0.00    +0.085 A 
ATOM     17  C   UNL     1      17.106   6.682  20.908  0.00  0.00    +0.076 A 
ATOM     21  C   UNL     1      18.191   6.176  20.241  0.00  0.00    +0.167 A 
BRANCH  21  22
ATOM     22  C   UNL     1      19.587   6.048  20.540  0.00  0.00    +0.020 A 
ATOM     23  C   UNL     1      20.223   4.817  20.387  0.00  0.00    +0.015 A 
ATOM     24  C   UNL     1      20.309   7.157  20.982  0.00  0.00    +0.015 A 
ATOM     25  C   UNL     1      21.582   4.693  20.677  0.00  0.00    +0.046 A 
ATOM     26  C   UNL     1      21.667   7.033  21.272  0.00  0.00    +0.046 A 
ATOM     27  C   UNL     1      22.304   5.802  21.119  0.00  0.00    +0.120 A 
BRANCH  27   3
ATOM      3  O   UNL     1      23.631   5.682  21.400  0.00  0.00    -0.495 OA
ATOM     28  C   UNL     1      24.174   6.579  22.367  0.00  0.00    +0.277 C 
ENDBRANCH  27   3
ENDBRANCH  21  22
ENDBRANCH  13  15
ENDBRANCH   8  13
TORSDOF 7
ENDMDL
MODEL 3
REMARK VINA RESULT:      -6.6     27.404     29.735
REMARK  Name = 40777506
REMARK  11 active torsions:
REMARK  status: ('A' for Active; 'I' for Inactive)
REMARK    1  A    between atoms: O_3  and  C_27
REMARK    2  A    between atoms: O_3  and  C_28
REMARK    3  A    between atoms: N_5  and  C_16
REMARK    4  A    between atoms: C_7  and  C_11
REMARK    5  A    between atoms: C_8  and  C_13
REMARK    6  A    between atoms: C_11  and  C_14
REMARK    7  A    between atoms: C_13  and  C_15
REMARK    8  A    between atoms: C_16  and  C_18
REMARK    9  A    between atoms: C_16  and  C_19
REMARK   10  A    between atoms: C_16  and  C_20
REMARK   11  A    between atoms: C_21  and  C_22
REMARK                            x       y       z     vdW  Elec       q    Type
REMARK                         _______ _______ _______ _____ _____    ______ ____
ROOT
ATOM      4  N   UNL     1      -3.626  -9.049   9.591  0.00  0.00    -0.316 NA
ATOM      7  C   UNL     1      -4.127 -11.384  11.326  0.00  0.00    +0.004 C 
ATOM      8  C   UNL     1      -3.238 -10.194  11.761  0.00  0.00    +0.012 C 
ATOM      9  C   UNL     1      -5.118 -10.903  10.253  0.00  0.00    +0.019 C 
ATOM     10  C   UNL     1      -2.610  -9.482  10.551  0.00  0.00    +0.085 C 
ATOM     12  C   UNL     1      -4.426 -10.171   9.105  0.00  0.00    +0.081 C 
ATOM     29  H   UNL     1      -3.173  -8.591   8.802  0.00  0.00    +0.122 HD
ENDROOT
BRANCH   7  11
ATOM     11  C   UNL     1      -3.338 -12.603  10.833  0.00  0.00    +0.099 C 
BRANCH  11  14
ATOM      1  O   UNL     1      -4.467 -14.223  12.230  0.00  0.00    -0.276 OA
ATOM      5  N   UNL     1      -2.144 -14.221  12.135  0.00  0.00    -0.311 N 
ATOM     14  C   UNL     1      -3.412 -13.763  11.804  0.00  0.00    +0.214 C 
ATOM     30  H   UNL     1      -1.337 -13.763  11.720  0.00  0.00    +0.149 HD
BRANCH   5  16
ATOM     16  C   UNL     1      -1.916 -15.320  13.043  0.00  0.00    +0.026 C 
ATOM     18  C   UNL     1      -2.616 -15.030  14.376  0.00  0.00    +0.031 C 
ATOM     19  C   UNL     1      -2.481 -16.605  12.429  0.00  0.00    +0.031 C 
ATOM     20  C   UNL     1      -0.408 -15.478  13.279  0.00  0.00    +0.031 C 
ENDBRANCH   5  16
ENDBRANCH  11  14
ENDBRANCH   7  11
BRANCH   8  13
ATOM     13  C   UNL     1      -2.160 -10.588  12.771  0.00  0.00    +0.064 C 
BRANCH  13  15
ATOM      2  O   UNL     1      -2.694 -10.646  16.331  0.00  0.00    -0.354 OA
ATOM      6  N   UNL     1      -1.872 -10.606  15.212  0.00  0.00    -0.083 NA
ATOM     15  C   UNL     1      -2.707 -10.623  14.169  0.00  0.00    +0.085 A 
ATOM     17  C   UNL     1      -4.055 -10.674  14.565  0.00  0.00    +0.076 A 
ATOM     21  C   UNL     1      -3.991 -10.688  15.934  0.00  0.00    +0.167 A 
BRANCH  21  22
ATOM     22  C   UNL     1      -4.963 -10.733  16.987  0.00  0.00    +0.020 A 
ATOM     23  C   UNL     1      -4.624 -11.274  18.227  0.00  0.00    +0.015 A 
ATOM     24  C   UNL     1      -6.247 -10.232  16.772  0.00  0.00    +0.015 A 
ATOM     25  C   UNL     1      -5.569 -11.317  19.252  0.00  0.00    +0.046 A 
ATOM     26  C   UNL     1      -7.192 -10.274  17.796  0.00  0.00    +0.046 A 
ATOM     27  C   UNL     1      -6.853 -10.816  19.036  0.00  0.00    +0.120 A 
BRANCH  27   3
ATOM      3  O   UNL     1      -7.775 -10.855  20.037  0.00  0.00    -0.495 OA
ATOM     28  C   UNL     1      -9.142 -11.006  19.656  0.00  0.00    +0.277 C 
ENDBRANCH  27   3
ENDBRANCH  21  22
ENDBRANCH  13  15
ENDBRANCH   8  13
TORSDOF 7
ENDMDL
MODEL 4
REMARK VINA RESULT:      -6.5      2.432      3.188
REMARK  Name = 40777506
REMARK  11 active torsions:
REMARK  status: ('A' for Active; 'I' for Inactive)
REMARK    1  A    between atoms: O_3  and  C_27
REMARK    2  A    between atoms: O_3  and  C_28
REMARK    3  A    between atoms: N_5  and  C_16
REMARK    4  A    between atoms: C_7  and  C_11
REMARK    5  A    between atoms: C_8  and  C_13
REMARK    6  A    between atoms: C_11  and  C_14
REMARK    7  A    between atoms: C_13  and  C_15
REMARK    8  A    between atoms: C_16  and  C_18
REMARK    9  A    between atoms: C_16  and  C_19
REMARK   10  A    between atoms: C_16  and  C_20
REMARK   11  A    between atoms: C_21  and  C_22
REMARK                            x       y       z     vdW  Elec       q    Type
REMARK                         _______ _______ _______ _____ _____    ______ ____
ROOT
ATOM      4  N   UNL     1      12.106   6.011  20.531  0.00  0.00    -0.316 NA
ATOM      7  C   UNL     1      11.581   8.865  21.068  0.00  0.00    +0.004 C 
ATOM      8  C   UNL     1      12.623   8.387  20.028  0.00  0.00    +0.012 C 
ATOM      9  C   UNL     1      10.527   7.763  21.264  0.00  0.00    +0.019 C 
ATOM     10  C   UNL     1      13.177   6.995  20.377  0.00  0.00    +0.085 C 
ATOM     12  C   UNL     1      11.152   6.402  21.567  0.00  0.00    +0.081 C 
ATOM     29  H   UNL     1      12.510   5.106  20.769  0.00  0.00    +0.122 HD
ENDROOT
BRANCH   7  11
ATOM     11  C   UNL     1      12.189   9.283  22.412  0.00  0.00    +0.099 C 
BRANCH  11  14
ATOM      1  O   UNL     1      11.078  11.411  22.122  0.00  0.00    -0.276 OA
ATOM      5  N   UNL     1      12.488  11.100  23.944  0.00  0.00    -0.311 N 
ATOM     14  C   UNL     1      11.839  10.709  22.781  0.00  0.00    +0.214 C 
ATOM     30  H   UNL     1      13.098  10.434  24.409  0.00  0.00    +0.149 HD
BRANCH   5  16
ATOM     16  C   UNL     1      12.338  12.413  24.526  0.00  0.00    +0.026 C 
ATOM     18  C   UNL     1      12.709  13.475  23.485  0.00  0.00    +0.031 C 
ATOM     19  C   UNL     1      10.883  12.604  24.966  0.00  0.00    +0.031 C 
ATOM     20  C   UNL     1      13.266  12.537  25.741  0.00  0.00    +0.031 C 
ENDBRANCH   5  16
ENDBRANCH  11  14
ENDBRANCH   7  11
BRANCH   8  13
ATOM     13  C   UNL     1      13.764   9.383  19.822  0.00  0.00    +0.064 C 
BRANCH  13  15
ATOM      2  O   UNL     1      16.679   8.627  21.795  0.00  0.00    -0.354 OA
ATOM      6  N   UNL     1      15.481   9.296  21.578  0.00  0.00    -0.083 NA
ATOM     15  C   UNL     1      15.054   8.864  20.388  0.00  0.00    +0.085 A 
ATOM     17  C   UNL     1      15.933   7.930  19.813  0.00  0.00    +0.076 A 
ATOM     21  C   UNL     1      16.938   7.817  20.738  0.00  0.00    +0.167 A 
BRANCH  21  22
ATOM     22  C   UNL     1      18.150   7.055  20.820  0.00  0.00    +0.020 A 
ATOM     23  C   UNL     1      18.375   6.004  19.931  0.00  0.00    +0.015 A 
ATOM     24  C   UNL     1      19.105   7.368  21.788  0.00  0.00    +0.015 A 
ATOM     25  C   UNL     1      19.555   5.264  20.011  0.00  0.00    +0.046 A 
ATOM     26  C   UNL     1      20.285   6.628  21.867  0.00  0.00    +0.046 A 
ATOM     27  C   UNL     1      20.510   5.577  20.979  0.00  0.00    +0.120 A 
BRANCH  27   3
ATOM      3  O   UNL     1      21.663   4.857  21.054  0.00  0.00    -0.495 OA
ATOM     28  C   UNL     1      21.550   3.490  21.448  0.00  0.00    +0.277 C 
ENDBRANCH  27   3
ENDBRANCH  21  22
ENDBRANCH  13  15
ENDBRANCH   8  13
TORSDOF 7
ENDMDL
MODEL 5
REMARK VINA RESULT:      -6.3      3.213     10.201
REMARK  Name = 40777506
REMARK  11 active torsions:
REMARK  status: ('A' for Active; 'I' for Inactive)
REMARK    1  A    between atoms: O_3  and  C_27
REMARK    2  A    between atoms: O_3  and  C_28
REMARK    3  A    between atoms: N_5  and  C_16
REMARK    4  A    between atoms: C_7  and  C_11
REMARK    5  A    between atoms: C_8  and  C_13
REMARK    6  A    between atoms: C_11  and  C_14
REMARK    7  A    between atoms: C_13  and  C_15
REMARK    8  A    between atoms: C_16  and  C_18
REMARK    9  A    between atoms: C_16  and  C_19
REMARK   10  A    between atoms: C_16  and  C_20
REMARK   11  A    between atoms: C_21  and  C_22
REMARK                            x       y       z     vdW  Elec       q    Type
REMARK                         _______ _______ _______ _____ _____    ______ ____
ROOT
ATOM      4  N   UNL     1      20.548   8.996  22.373  0.00  0.00    -0.316 NA
ATOM      7  C   UNL     1      21.573   6.594  20.999  0.00  0.00    +0.004 C 
ATOM      8  C   UNL     1      20.065   6.934  21.076  0.00  0.00    +0.012 C 
ATOM      9  C   UNL     1      22.388   7.890  21.152  0.00  0.00    +0.019 C 
ATOM     10  C   UNL     1      19.737   7.780  22.317  0.00  0.00    +0.085 C 
ATOM     12  C   UNL     1      21.978   8.695  22.383  0.00  0.00    +0.081 C 
ATOM     29  H   UNL     1      20.309   9.524  23.211  0.00  0.00    +0.122 HD
ENDROOT
BRANCH   7  11
ATOM     11  C   UNL     1      22.027   5.541  22.016  0.00  0.00    +0.099 C 
BRANCH  11  14
ATOM      1  O   UNL     1      21.870   3.486  20.750  0.00  0.00    -0.276 OA
ATOM      5  N   UNL     1      23.948   4.204  21.506  0.00  0.00    -0.311 N 
ATOM     14  C   UNL     1      22.572   4.296  21.348  0.00  0.00    +0.214 C 
ATOM     30  H   UNL     1      24.429   4.935  22.022  0.00  0.00    +0.149 HD
BRANCH   5  16
ATOM     16  C   UNL     1      24.731   3.115  20.971  0.00  0.00    +0.026 C 
ATOM     18  C   UNL     1      26.121   3.125  21.619  0.00  0.00    +0.031 C 
ATOM     19  C   UNL     1      24.025   1.791  21.279  0.00  0.00    +0.031 C 
ATOM     20  C   UNL     1      24.871   3.288  19.454  0.00  0.00    +0.031 C 
ENDBRANCH   5  16
ENDBRANCH  11  14
ENDBRANCH   7  11
BRANCH   8  13
ATOM     13  C   UNL     1      19.168   5.698  21.014  0.00  0.00    +0.064 C 
BRANCH  13  15
ATOM      2  O   UNL     1      16.631   5.882  18.467  0.00  0.00    -0.354 OA
ATOM      6  N   UNL     1      17.872   5.474  18.939  0.00  0.00    -0.083 NA
ATOM     15  C   UNL     1      17.944   5.951  20.184  0.00  0.00    +0.085 A 
ATOM     17  C   UNL     1      16.787   6.663  20.550  0.00  0.00    +0.076 A 
ATOM     21  C   UNL     1      15.994   6.590  19.434  0.00  0.00    +0.167 A 
BRANCH  21  22
ATOM     22  C   UNL     1      14.691   7.080  19.091  0.00  0.00    +0.020 A 
ATOM     23  C   UNL     1      13.624   6.900  19.971  0.00  0.00    +0.015 A 
ATOM     24  C   UNL     1      14.492   7.739  17.878  0.00  0.00    +0.015 A 
ATOM     25  C   UNL     1      12.357   7.378  19.637  0.00  0.00    +0.046 A 
ATOM     26  C   UNL     1      13.225   8.217  17.544  0.00  0.00    +0.046 A 
ATOM     27  C   UNL     1      12.158   8.037  18.424  0.00  0.00    +0.120 A 
BRANCH  27   3
ATOM      3  O   UNL     1      10.922   8.506  18.099  0.00  0.00    -0.495 OA
ATOM     28  C   UNL     1      10.585   8.544  16.713  0.00  0.00    +0.277 C 
ENDBRANCH  27   3
ENDBRANCH  21  22
ENDBRANCH  13  15
ENDBRANCH   8  13
TORSDOF 7
ENDMDL
MODEL 6
REMARK VINA RESULT:      -6.3     30.348     32.355
REMARK  Name = 40777506
REMARK  11 active torsions:
REMARK  status: ('A' for Active; 'I' for Inactive)
REMARK    1  A    between atoms: O_3  and  C_27
REMARK    2  A    between atoms: O_3  and  C_28
REMARK    3  A    between atoms: N_5  and  C_16
REMARK    4  A    between atoms: C_7  and  C_11
REMARK    5  A    between atoms: C_8  and  C_13
REMARK    6  A    between atoms: C_11  and  C_14
REMARK    7  A    between atoms: C_13  and  C_15
REMARK    8  A    between atoms: C_16  and  C_18
REMARK    9  A    between atoms: C_16  and  C_19
REMARK   10  A    between atoms: C_16  and  C_20
REMARK   11  A    between atoms: C_21  and  C_22
REMARK                            x       y       z     vdW  Elec       q    Type
REMARK                         _______ _______ _______ _____ _____    ______ ____
ROOT
ATOM      4  N   UNL     1     -13.791   9.999  31.091  0.00  0.00    -0.316 NA
ATOM      7  C   UNL     1     -11.773   9.081  33.038  0.00  0.00    +0.004 C 
ATOM      8  C   UNL     1     -13.131   8.366  32.842  0.00  0.00    +0.012 C 
ATOM      9  C   UNL     1     -11.417   9.843  31.751  0.00  0.00    +0.019 C 
ATOM     10  C   UNL     1     -14.211   9.331  32.323  0.00  0.00    +0.085 C 
ATOM     12  C   UNL     1     -12.551  10.749  31.275  0.00  0.00    +0.081 C 
ATOM     29  H   UNL     1     -14.527  10.634  30.784  0.00  0.00    +0.122 HD
ENDROOT
BRANCH   7  11
ATOM     11  C   UNL     1     -11.731  10.014  34.254  0.00  0.00    +0.099 C 
BRANCH  11  14
ATOM      1  O   UNL     1      -9.433   9.569  34.864  0.00  0.00    -0.276 OA
ATOM      5  N   UNL     1     -11.085   9.466  36.495  0.00  0.00    -0.311 N 
ATOM     14  C   UNL     1     -10.607   9.663  35.207  0.00  0.00    +0.214 C 
ATOM     30  H   UNL     1     -12.081   9.569  36.666  0.00  0.00    +0.149 HD
BRANCH   5  16
ATOM     16  C   UNL     1     -10.233   9.118  37.607  0.00  0.00    +0.026 C 
ATOM     18  C   UNL     1     -11.027   9.242  38.913  0.00  0.00    +0.031 C 
ATOM     19  C   UNL     1      -9.744   7.676  37.433  0.00  0.00    +0.031 C 
ATOM     20  C   UNL     1      -9.032  10.071  37.643  0.00  0.00    +0.031 C 
ENDBRANCH   5  16
ENDBRANCH  11  14
ENDBRANCH   7  11
BRANCH   8  13
ATOM     13  C   UNL     1     -13.616   7.642  34.098  0.00  0.00    +0.064 C 
BRANCH  13  15
ATOM      2  O   UNL     1     -14.234   4.100  34.274  0.00  0.00    -0.354 OA
ATOM      6  N   UNL     1     -14.090   5.353  34.856  0.00  0.00    -0.083 NA
ATOM     15  C   UNL     1     -13.833   6.180  33.839  0.00  0.00    +0.085 A 
ATOM     17  C   UNL     1     -13.803   5.511  32.602  0.00  0.00    +0.076 A 
ATOM     21  C   UNL     1     -14.061   4.206  32.932  0.00  0.00    +0.167 A 
BRANCH  21  22
ATOM     22  C   UNL     1     -14.183   2.985  32.191  0.00  0.00    +0.020 A 
ATOM     23  C   UNL     1     -13.776   2.935  30.857  0.00  0.00    +0.015 A 
ATOM     24  C   UNL     1     -14.706   1.847  32.804  0.00  0.00    +0.015 A 
ATOM     25  C   UNL     1     -13.893   1.746  30.137  0.00  0.00    +0.046 A 
ATOM     26  C   UNL     1     -14.824   0.658  32.084  0.00  0.00    +0.046 A 
ATOM     27  C   UNL     1     -14.417   0.608  30.751  0.00  0.00    +0.120 A 
BRANCH  27   3
ATOM      3  O   UNL     1     -14.529  -0.553  30.048  0.00  0.00    -0.495 OA
ATOM     28  C   UNL     1     -13.395  -0.962  29.285  0.00  0.00    +0.277 C 
ENDBRANCH  27   3
ENDBRANCH  21  22
ENDBRANCH  13  15
ENDBRANCH   8  13
TORSDOF 7
ENDMDL
MODEL 7
REMARK VINA RESULT:      -6.2     18.336     22.025
REMARK  Name = 40777506
REMARK  11 active torsions:
REMARK  status: ('A' for Active; 'I' for Inactive)
REMARK    1  A    between atoms: O_3  and  C_27
REMARK    2  A    between atoms: O_3  and  C_28
REMARK    3  A    between atoms: N_5  and  C_16
REMARK    4  A    between atoms: C_7  and  C_11
REMARK    5  A    between atoms: C_8  and  C_13
REMARK    6  A    between atoms: C_11  and  C_14
REMARK    7  A    between atoms: C_13  and  C_15
REMARK    8  A    between atoms: C_16  and  C_18
REMARK    9  A    between atoms: C_16  and  C_19
REMARK   10  A    between atoms: C_16  and  C_20
REMARK   11  A    between atoms: C_21  and  C_22
REMARK                            x       y       z     vdW  Elec       q    Type
REMARK                         _______ _______ _______ _____ _____    ______ ____
ROOT
ATOM      4  N   UNL     1      15.691   4.113   0.979  0.00  0.00    -0.316 NA
ATOM      7  C   UNL     1      13.004   4.194  -0.239  0.00  0.00    +0.004 C 
ATOM      8  C   UNL     1      13.228   4.180   1.292  0.00  0.00    +0.012 C 
ATOM      9  C   UNL     1      14.258   4.764  -0.924  0.00  0.00    +0.019 C 
ATOM     10  C   UNL     1      14.555   3.498   1.666  0.00  0.00    +0.085 C 
ATOM     12  C   UNL     1      15.539   4.065  -0.473  0.00  0.00    +0.081 C 
ATOM     29  H   UNL     1      16.548   3.631   1.244  0.00  0.00    +0.122 HD
ENDROOT
BRANCH   7  11
ATOM     11  C   UNL     1      12.636   2.827  -0.827  0.00  0.00    +0.099 C 
BRANCH  11  14
ATOM      1  O   UNL     1      12.436   2.389  -3.198  0.00  0.00    -0.276 OA
ATOM      5  N   UNL     1      10.870   3.753  -2.155  0.00  0.00    -0.311 N 
ATOM     14  C   UNL     1      11.997   2.944  -2.195  0.00  0.00    +0.214 C 
ATOM     30  H   UNL     1      10.598   4.164  -1.266  0.00  0.00    +0.149 HD
BRANCH   5  16
ATOM     16  C   UNL     1      10.065   4.042  -3.318  0.00  0.00    +0.026 C 
ATOM     18  C   UNL     1       8.972   5.049  -2.941  0.00  0.00    +0.031 C 
ATOM     19  C   UNL     1      10.959   4.634  -4.413  0.00  0.00    +0.031 C 
ATOM     20  C   UNL     1       9.418   2.745  -3.821  0.00  0.00    +0.031 C 
ENDBRANCH   5  16
ENDBRANCH  11  14
ENDBRANCH   7  11
BRANCH   8  13
ATOM     13  C   UNL     1      12.066   3.553   2.062  0.00  0.00    +0.064 C 
BRANCH  13  15
ATOM      2  O   UNL     1      10.034   5.682   4.137  0.00  0.00    -0.354 OA
ATOM      6  N   UNL     1      10.879   4.596   3.945  0.00  0.00    -0.083 NA
ATOM     15  C   UNL     1      11.162   4.604   2.639  0.00  0.00    +0.085 A 
ATOM     17  C   UNL     1      10.529   5.661   1.962  0.00  0.00    +0.076 A 
ATOM     21  C   UNL     1       9.832   6.308   2.949  0.00  0.00    +0.167 A 
BRANCH  21  22
ATOM     22  C   UNL     1       8.975   7.456   2.989  0.00  0.00    +0.020 A 
ATOM     23  C   UNL     1       8.796   8.234   1.846  0.00  0.00    +0.015 A 
ATOM     24  C   UNL     1       8.318   7.794   4.173  0.00  0.00    +0.015 A 
ATOM     25  C   UNL     1       7.961   9.351   1.885  0.00  0.00    +0.046 A 
ATOM     26  C   UNL     1       7.482   8.910   4.213  0.00  0.00    +0.046 A 
ATOM     27  C   UNL     1       7.304   9.688   3.069  0.00  0.00    +0.120 A 
BRANCH  27   3
ATOM      3  O   UNL     1       6.486  10.776   3.106  0.00  0.00    -0.495 OA
ATOM     28  C   UNL     1       5.590  10.878   4.212  0.00  0.00    +0.277 C 
ENDBRANCH  27   3
ENDBRANCH  21  22
ENDBRANCH  13  15
ENDBRANCH   8  13
TORSDOF 7
ENDMDL
MODEL 8
REMARK VINA RESULT:      -6.1     16.892     21.018
REMARK  Name = 40777506
REMARK  11 active torsions:
REMARK  status: ('A' for Active; 'I' for Inactive)
REMARK    1  A    between atoms: O_3  and  C_27
REMARK    2  A    between atoms: O_3  and  C_28
REMARK    3  A    between atoms: N_5  and  C_16
REMARK    4  A    between atoms: C_7  and  C_11
REMARK    5  A    between atoms: C_8  and  C_13
REMARK    6  A    between atoms: C_11  and  C_14
REMARK    7  A    between atoms: C_13  and  C_15
REMARK    8  A    between atoms: C_16  and  C_18
REMARK    9  A    between atoms: C_16  and  C_19
REMARK   10  A    between atoms: C_16  and  C_20
REMARK   11  A    between atoms: C_21  and  C_22
REMARK                            x       y       z     vdW  Elec       q    Type
REMARK                         _______ _______ _______ _____ _____    ______ ____
ROOT
ATOM      4  N   UNL     1      15.070   4.273   0.560  0.00  0.00    -0.316 NA
ATOM      7  C   UNL     1      12.898   4.475  -1.428  0.00  0.00    +0.004 C 
ATOM      8  C   UNL     1      12.668   4.691   0.087  0.00  0.00    +0.012 C 
ATOM      9  C   UNL     1      14.372   4.764  -1.758  0.00  0.00    +0.019 C 
ATOM     10  C   UNL     1      13.699   3.925   0.933  0.00  0.00    +0.085 C 
ATOM     12  C   UNL     1      15.335   4.000  -0.851  0.00  0.00    +0.081 C 
ATOM     29  H   UNL     1      15.722   3.741   1.134  0.00  0.00    +0.122 HD
ENDROOT
BRANCH   7  11
ATOM     11  C   UNL     1      12.491   3.083  -1.927  0.00  0.00    +0.099 C 
BRANCH  11  14
ATOM      1  O   UNL     1      10.259   2.354  -2.508  0.00  0.00    -0.276 OA
ATOM      5  N   UNL     1      11.233   4.100  -3.694  0.00  0.00    -0.311 N 
ATOM     14  C   UNL     1      11.200   3.113  -2.718  0.00  0.00    +0.214 C 
ATOM     30  H   UNL     1      12.068   4.673  -3.779  0.00  0.00    +0.149 HD
BRANCH   5  16
ATOM     16  C   UNL     1      10.136   4.352  -4.598  0.00  0.00    +0.026 C 
ATOM     18  C   UNL     1      10.539   5.446  -5.593  0.00  0.00    +0.031 C 
ATOM     19  C   UNL     1       9.803   3.061  -5.354  0.00  0.00    +0.031 C 
ATOM     20  C   UNL     1       8.913   4.812  -3.795  0.00  0.00    +0.031 C 
ENDBRANCH   5  16
ENDBRANCH  11  14
ENDBRANCH   7  11
BRANCH   8  13
ATOM     13  C   UNL     1      11.246   4.349   0.533  0.00  0.00    +0.064 C 
BRANCH  13  15
ATOM      2  O   UNL     1      10.369   6.339   3.402  0.00  0.00    -0.354 OA
ATOM      6  N   UNL     1      10.545   6.163   2.036  0.00  0.00    -0.083 NA
ATOM     15  C   UNL     1      10.953   4.899   1.899  0.00  0.00    +0.085 A 
ATOM     17  C   UNL     1      11.053   4.234   3.134  0.00  0.00    +0.076 A 
ATOM     21  C   UNL     1      10.675   5.184   4.046  0.00  0.00    +0.167 A 
BRANCH  21  22
ATOM     22  C   UNL     1      10.540   5.212   5.473  0.00  0.00    +0.020 A 
ATOM     23  C   UNL     1      11.110   6.252   6.208  0.00  0.00    +0.015 A 
ATOM     24  C   UNL     1       9.835   4.200   6.126  0.00  0.00    +0.015 A 
ATOM     25  C   UNL     1      10.977   6.279   7.596  0.00  0.00    +0.046 A 
ATOM     26  C   UNL     1       9.702   4.228   7.514  0.00  0.00    +0.046 A 
ATOM     27  C   UNL     1      10.272   5.268   8.249  0.00  0.00    +0.120 A 
BRANCH  27   3
ATOM      3  O   UNL     1      10.140   5.297   9.604  0.00  0.00    -0.495 OA
ATOM     28  C   UNL     1       9.025   4.603  10.162  0.00  0.00    +0.277 C 
ENDBRANCH  27   3
ENDBRANCH  21  22
ENDBRANCH  13  15
ENDBRANCH   8  13
TORSDOF 7
ENDMDL
MODEL 9
REMARK VINA RESULT:      -5.9     16.640     20.999
REMARK  Name = 40777506
REMARK  11 active torsions:
REMARK  status: ('A' for Active; 'I' for Inactive)
REMARK    1  A    between atoms: O_3  and  C_27
REMARK    2  A    between atoms: O_3  and  C_28
REMARK    3  A    between atoms: N_5  and  C_16
REMARK    4  A    between atoms: C_7  and  C_11
REMARK    5  A    between atoms: C_8  and  C_13
REMARK    6  A    between atoms: C_11  and  C_14
REMARK    7  A    between atoms: C_13  and  C_15
REMARK    8  A    between atoms: C_16  and  C_18
REMARK    9  A    between atoms: C_16  and  C_19
REMARK   10  A    between atoms: C_16  and  C_20
REMARK   11  A    between atoms: C_21  and  C_22
REMARK                            x       y       z     vdW  Elec       q    Type
REMARK                         _______ _______ _______ _____ _____    ______ ____
ROOT
ATOM      4  N   UNL     1      15.569   3.828   1.352  0.00  0.00    -0.316 NA
ATOM      7  C   UNL     1      13.626   4.592  -0.734  0.00  0.00    +0.004 C 
ATOM      8  C   UNL     1      13.226   4.386   0.747  0.00  0.00    +0.012 C 
ATOM      9  C   UNL     1      15.121   4.944  -0.805  0.00  0.00    +0.019 C 
ATOM     10  C   UNL     1      14.172   3.406   1.460  0.00  0.00    +0.085 C 
ATOM     12  C   UNL     1      15.993   3.950  -0.041  0.00  0.00    +0.081 C 
ATOM     29  H   UNL     1      16.164   3.151   1.827  0.00  0.00    +0.122 HD
ENDROOT
BRANCH   7  11
ATOM     11  C   UNL     1      13.304   3.396  -1.637  0.00  0.00    +0.099 C 
BRANCH  11  14
ATOM      1  O   UNL     1      12.352   4.749  -3.402  0.00  0.00    -0.276 OA
ATOM      5  N   UNL     1      11.290   2.777  -2.778  0.00  0.00    -0.311 N 
ATOM     14  C   UNL     1      12.286   3.741  -2.704  0.00  0.00    +0.214 C 
ATOM     30  H   UNL     1      11.336   1.981  -2.149  0.00  0.00    +0.149 HD
BRANCH   5  16
ATOM     16  C   UNL     1      10.188   2.852  -3.709  0.00  0.00    +0.026 C 
ATOM     18  C   UNL     1      10.735   2.904  -5.140  0.00  0.00    +0.031 C 
ATOM     19  C   UNL     1       9.302   1.614  -3.537  0.00  0.00    +0.031 C 
ATOM     20  C   UNL     1       9.370   4.118  -3.425  0.00  0.00    +0.031 C 
ENDBRANCH   5  16
ENDBRANCH  11  14
ENDBRANCH   7  11
BRANCH   8  13
ATOM     13  C   UNL     1      11.771   3.951   0.921  0.00  0.00    +0.064 C 
BRANCH  13  15
ATOM      2  O   UNL     1      10.540   3.977   4.304  0.00  0.00    -0.354 OA
ATOM      6  N   UNL     1      10.989   3.322   3.164  0.00  0.00    -0.083 NA
ATOM     15  C   UNL     1      11.256   4.295   2.288  0.00  0.00    +0.085 A 
ATOM     17  C   UNL     1      10.997   5.572   2.815  0.00  0.00    +0.076 A 
ATOM     21  C   UNL     1      10.549   5.316   4.085  0.00  0.00    +0.167 A 
BRANCH  21  22
ATOM     22  C   UNL     1      10.109   6.129   5.180  0.00  0.00    +0.020 A 
ATOM     23  C   UNL     1      10.986   6.427   6.224  0.00  0.00    +0.015 A 
ATOM     24  C   UNL     1       8.805   6.624   5.201  0.00  0.00    +0.015 A 
ATOM     25  C   UNL     1      10.558   7.219   7.289  0.00  0.00    +0.046 A 
ATOM     26  C   UNL     1       8.377   7.416   6.267  0.00  0.00    +0.046 A 
ATOM     27  C   UNL     1       9.253   7.714   7.310  0.00  0.00    +0.120 A 
BRANCH  27   3
ATOM      3  O   UNL     1       8.836   8.489   8.349  0.00  0.00    -0.495 OA
ATOM     28  C   UNL     1       9.418   9.787   8.465  0.00  0.00    +0.277 C 
ENDBRANCH  27   3
ENDBRANCH  21  22
ENDBRANCH  13  15
ENDBRANCH   8  13
TORSDOF 7
ENDMDL
MODEL 10
REMARK VINA RESULT:      -5.8     27.070     29.570
REMARK  Name = 40777506
REMARK  11 active torsions:
REMARK  status: ('A' for Active; 'I' for Inactive)
REMARK    1  A    between atoms: O_3  and  C_27
REMARK    2  A    between atoms: O_3  and  C_28
REMARK    3  A    between atoms: N_5  and  C_16
REMARK    4  A    between atoms: C_7  and  C_11
REMARK    5  A    between atoms: C_8  and  C_13
REMARK    6  A    between atoms: C_11  and  C_14
REMARK    7  A    between atoms: C_13  and  C_15
REMARK    8  A    between atoms: C_16  and  C_18
REMARK    9  A    between atoms: C_16  and  C_19
REMARK   10  A    between atoms: C_16  and  C_20
REMARK   11  A    between atoms: C_21  and  C_22
REMARK                            x       y       z     vdW  Elec       q    Type
REMARK                         _______ _______ _______ _____ _____    ______ ____
ROOT
ATOM      4  N   UNL     1     -16.204   6.612  22.358  0.00  0.00    -0.316 NA
ATOM      7  C   UNL     1     -13.516   7.286  21.343  0.00  0.00    +0.004 C 
ATOM      8  C   UNL     1     -14.336   8.244  22.241  0.00  0.00    +0.012 C 
ATOM      9  C   UNL     1     -13.987   5.843  21.589  0.00  0.00    +0.019 C 
ATOM     10  C   UNL     1     -15.848   8.006  22.094  0.00  0.00    +0.085 C 
ATOM     12  C   UNL     1     -15.502   5.693  21.465  0.00  0.00    +0.081 C 
ATOM     29  H   UNL     1     -17.210   6.492  22.242  0.00  0.00    +0.122 HD
ENDROOT
BRANCH   7  11
ATOM     11  C   UNL     1     -13.573   7.631  19.851  0.00  0.00    +0.099 C 
BRANCH  11  14
ATOM      1  O   UNL     1     -11.178   7.343  19.670  0.00  0.00    -0.276 OA
ATOM      5  N   UNL     1     -12.257   8.832  18.249  0.00  0.00    -0.311 N 
ATOM     14  C   UNL     1     -12.199   7.896  19.271  0.00  0.00    +0.214 C 
ATOM     30  H   UNL     1     -13.160   9.227  18.001  0.00  0.00    +0.149 HD
BRANCH   5  16
ATOM     16  C   UNL     1     -11.093   9.276  17.518  0.00  0.00    +0.026 C 
ATOM     18  C   UNL     1     -10.457   8.079  16.803  0.00  0.00    +0.031 C 
ATOM     19  C   UNL     1     -11.518  10.329  16.490  0.00  0.00    +0.031 C 
ATOM     20  C   UNL     1     -10.082   9.886  18.497  0.00  0.00    +0.031 C 
ENDBRANCH   5  16
ENDBRANCH  11  14
ENDBRANCH   7  11
BRANCH   8  13
ATOM     13  C   UNL     1     -13.998   9.717  22.012  0.00  0.00    +0.064 C 
BRANCH  13  15
ATOM      2  O   UNL     1     -11.694  11.447  24.171  0.00  0.00    -0.354 OA
ATOM      6  N   UNL     1     -12.198  11.124  22.917  0.00  0.00    -0.083 NA
ATOM     15  C   UNL     1     -13.207  10.282  23.156  0.00  0.00    +0.085 A 
ATOM     17  C   UNL     1     -13.385  10.038  24.529  0.00  0.00    +0.076 A 
ATOM     21  C   UNL     1     -12.408  10.794  25.123  0.00  0.00    +0.167 A 
BRANCH  21  22
ATOM     22  C   UNL     1     -12.002  11.031  26.477  0.00  0.00    +0.020 A 
ATOM     23  C   UNL     1     -11.590   9.966  27.279  0.00  0.00    +0.015 A 
ATOM     24  C   UNL     1     -12.015  12.328  26.992  0.00  0.00    +0.015 A 
ATOM     25  C   UNL     1     -11.194  10.198  28.596  0.00  0.00    +0.046 A 
ATOM     26  C   UNL     1     -11.619  12.559  28.309  0.00  0.00    +0.046 A 
ATOM     27  C   UNL     1     -11.207  11.494  29.110  0.00  0.00    +0.120 A 
BRANCH  27   3
ATOM      3  O   UNL     1     -10.818  11.720  30.395  0.00  0.00    -0.495 OA
ATOM     28  C   UNL     1     -11.207  10.755  31.371  0.00  0.00    +0.277 C 
ENDBRANCH  27   3
ENDBRANCH  21  22
ENDBRANCH  13  15
ENDBRANCH   8  13
TORSDOF 7
ENDMDL
