MODEL 1
REMARK VINA RESULT:      -5.7      0.000      0.000
REMARK  Name = 75536973
REMARK  5 active torsions:
REMARK  status: ('A' for Active; 'I' for Inactive)
REMARK    1  A    between atoms: O_3  and  C_17
REMARK    2  A    between atoms: O_3  and  C_22
REMARK    3  A    between atoms: N_5  and  C_14
REMARK    4  A    between atoms: C_14  and  C_16
REMARK    5  A    between atoms: C_15  and  C_17
REMARK                            x       y       z     vdW  Elec       q    Type
REMARK                         _______ _______ _______ _____ _____    ______ ____
ROOT
ATOM      1  O   UNL     1      17.612   5.939  18.670  0.00  0.00    -0.252 OA
ATOM      2  O   UNL     1      11.188   8.501  17.885  0.00  0.00    -0.273 OA
ATOM      4  N   UNL     1      15.486   6.761  19.242  0.00  0.00    -0.278 N 
ATOM      5  N   UNL     1      17.025   6.561  20.868  0.00  0.00    -0.279 N 
ATOM      6  N   UNL     1      13.201   8.335  19.031  0.00  0.00    -0.296 N 
ATOM      8  C   UNL     1      14.778   7.108  20.462  0.00  0.00    +0.112 C 
ATOM      9  C   UNL     1      15.880   7.175  21.516  0.00  0.00    +0.133 C 
ATOM     10  C   UNL     1      13.995   8.406  20.272  0.00  0.00    +0.132 C 
ATOM     11  C   UNL     1      14.779   6.755  17.974  0.00  0.00    +0.128 C 
ATOM     12  C   UNL     1      13.982   8.047  17.818  0.00  0.00    +0.127 C 
ATOM     13  C   UNL     1      16.808   6.364  19.489  0.00  0.00    +0.306 C 
ATOM     15  C   UNL     1      11.826   8.542  18.941  0.00  0.00    +0.241 C 
ENDROOT
BRANCH   5  14
ATOM     14  C   UNL     1      18.268   6.327  21.569  0.00  0.00    +0.146 C 
BRANCH  14  16
ATOM      7  N   UNL     1      19.677   9.835  21.465  0.00  0.00    -0.263 NA
ATOM     16  C   UNL     1      19.238   7.459  21.387  0.00  0.00    -0.012 A 
ATOM     18  C   UNL     1      20.547   7.222  20.986  0.00  0.00    +0.008 A 
ATOM     19  C   UNL     1      18.855   8.772  21.612  0.00  0.00    +0.115 A 
ATOM     20  C   UNL     1      21.422   8.291  20.824  0.00  0.00    +0.020 A 
ATOM     21  C   UNL     1      20.943   9.566  21.073  0.00  0.00    +0.111 A 
ENDBRANCH  14  16
ENDBRANCH   5  14
BRANCH  15  17
ATOM     17  C   UNL     1      11.101   8.828  20.231  0.00  0.00    +0.255 C 
BRANCH  17   3
ATOM      3  O   UNL     1      10.487   7.624  20.623  0.00  0.00    -0.374 OA
ATOM     22  C   UNL     1      10.878   7.225  21.936  0.00  0.00    +0.194 C 
ENDBRANCH  17   3
ENDBRANCH  15  17
TORSDOF 4
ENDMDL
MODEL 2
REMARK VINA RESULT:      -5.6     30.745     32.724
REMARK  Name = 75536973
REMARK  5 active torsions:
REMARK  status: ('A' for Active; 'I' for Inactive)
REMARK    1  A    between atoms: O_3  and  C_17
REMARK    2  A    between atoms: O_3  and  C_22
REMARK    3  A    between atoms: N_5  and  C_14
REMARK    4  A    between atoms: C_14  and  C_16
REMARK    5  A    between atoms: C_15  and  C_17
REMARK                            x       y       z     vdW  Elec       q    Type
REMARK                         _______ _______ _______ _____ _____    ______ ____
ROOT
ATOM      1  O   UNL     1     -15.871   7.029  31.370  0.00  0.00    -0.252 OA
ATOM      2  O   UNL     1     -16.134   0.572  28.784  0.00  0.00    -0.273 OA
ATOM      4  N   UNL     1     -15.336   4.763  31.052  0.00  0.00    -0.278 N 
ATOM      5  N   UNL     1     -14.481   5.819  32.842  0.00  0.00    -0.279 N 
ATOM      6  N   UNL     1     -15.789   2.068  30.526  0.00  0.00    -0.296 N 
ATOM      8  C   UNL     1     -14.453   3.786  31.666  0.00  0.00    +0.112 C 
ATOM      9  C   UNL     1     -14.051   4.440  32.986  0.00  0.00    +0.133 C 
ATOM     10  C   UNL     1     -15.163   2.442  31.809  0.00  0.00    +0.132 C 
ATOM     11  C   UNL     1     -16.047   4.425  29.833  0.00  0.00    +0.128 C 
ATOM     12  C   UNL     1     -16.725   3.066  29.986  0.00  0.00    +0.127 C 
ATOM     13  C   UNL     1     -15.299   6.001  31.709  0.00  0.00    +0.306 C 
ATOM     15  C   UNL     1     -15.577   0.871  29.844  0.00  0.00    +0.241 C 
ENDROOT
BRANCH   5  14
ATOM     14  C   UNL     1     -14.192   6.821  33.845  0.00  0.00    +0.146 C 
BRANCH  14  16
ATOM      7  N   UNL     1     -12.790  10.287  33.283  0.00  0.00    -0.263 NA
ATOM     16  C   UNL     1     -13.346   7.935  33.299  0.00  0.00    -0.012 A 
ATOM     18  C   UNL     1     -12.370   7.689  32.341  0.00  0.00    +0.008 A 
ATOM     19  C   UNL     1     -13.515   9.240  33.734  0.00  0.00    +0.115 A 
ATOM     20  C   UNL     1     -11.603   8.741  31.853  0.00  0.00    +0.020 A 
ATOM     21  C   UNL     1     -11.849  10.010  32.352  0.00  0.00    +0.111 A 
ENDBRANCH  14  16
ENDBRANCH   5  14
BRANCH  15  17
ATOM     17  C   UNL     1     -14.601  -0.095  30.465  0.00  0.00    +0.255 C 
BRANCH  17   3
ATOM      3  O   UNL     1     -14.382  -1.110  29.516  0.00  0.00    -0.374 OA
ATOM     22  C   UNL     1     -12.997  -1.267  29.208  0.00  0.00    +0.194 C 
ENDBRANCH  17   3
ENDBRANCH  15  17
TORSDOF 4
ENDMDL
MODEL 3
REMARK VINA RESULT:      -5.5     14.977     17.592
REMARK  Name = 75536973
REMARK  5 active torsions:
REMARK  status: ('A' for Active; 'I' for Inactive)
REMARK    1  A    between atoms: O_3  and  C_17
REMARK    2  A    between atoms: O_3  and  C_22
REMARK    3  A    between atoms: N_5  and  C_14
REMARK    4  A    between atoms: C_14  and  C_16
REMARK    5  A    between atoms: C_15  and  C_17
REMARK                            x       y       z     vdW  Elec       q    Type
REMARK                         _______ _______ _______ _____ _____    ______ ____
ROOT
ATOM      1  O   UNL     1       9.763   6.795   1.283  0.00  0.00    -0.252 OA
ATOM      2  O   UNL     1       9.262   8.074   8.107  0.00  0.00    -0.273 OA
ATOM      4  N   UNL     1       9.798   6.413   3.602  0.00  0.00    -0.278 N 
ATOM      5  N   UNL     1      10.669   4.843   2.249  0.00  0.00    -0.279 N 
ATOM      6  N   UNL     1      10.220   6.988   6.292  0.00  0.00    -0.296 N 
ATOM      8  C   UNL     1      10.151   5.319   4.490  0.00  0.00    +0.112 C 
ATOM      9  C   UNL     1      10.929   4.359   3.593  0.00  0.00    +0.133 C 
ATOM     10  C   UNL     1      10.930   5.841   5.695  0.00  0.00    +0.132 C 
ATOM     11  C   UNL     1       9.172   7.606   4.141  0.00  0.00    +0.128 C 
ATOM     12  C   UNL     1       9.949   8.095   5.361  0.00  0.00    +0.127 C 
ATOM     13  C   UNL     1      10.038   6.104   2.256  0.00  0.00    +0.306 C 
ATOM     15  C   UNL     1       9.833   7.092   7.627  0.00  0.00    +0.241 C 
ENDROOT
BRANCH   5  14
ATOM     14  C   UNL     1      11.144   4.142   1.077  0.00  0.00    +0.146 C 
BRANCH  14  16
ATOM      7  N   UNL     1      14.491   5.438  -0.112  0.00  0.00    -0.263 NA
ATOM     16  C   UNL     1      12.629   4.279   0.903  0.00  0.00    -0.012 A 
ATOM     18  C   UNL     1      13.507   3.422   1.556  0.00  0.00    +0.008 A 
ATOM     19  C   UNL     1      13.166   5.262   0.088  0.00  0.00    +0.115 A 
ATOM     20  C   UNL     1      14.878   3.572   1.375  0.00  0.00    +0.020 A 
ATOM     21  C   UNL     1      15.315   4.586   0.539  0.00  0.00    +0.111 A 
ENDBRANCH  14  16
ENDBRANCH   5  14
BRANCH  15  17
ATOM     17  C   UNL     1      10.145   5.912   8.512  0.00  0.00    +0.255 C 
BRANCH  17   3
ATOM      3  O   UNL     1       8.910   5.390   8.936  0.00  0.00    -0.374 OA
ATOM     22  C   UNL     1       9.014   4.717  10.190  0.00  0.00    +0.194 C 
ENDBRANCH  17   3
ENDBRANCH  15  17
TORSDOF 4
ENDMDL
MODEL 4
REMARK VINA RESULT:      -5.5     27.169     28.842
REMARK  Name = 75536973
REMARK  5 active torsions:
REMARK  status: ('A' for Active; 'I' for Inactive)
REMARK    1  A    between atoms: O_3  and  C_17
REMARK    2  A    between atoms: O_3  and  C_22
REMARK    3  A    between atoms: N_5  and  C_14
REMARK    4  A    between atoms: C_14  and  C_16
REMARK    5  A    between atoms: C_15  and  C_17
REMARK                            x       y       z     vdW  Elec       q    Type
REMARK                         _______ _______ _______ _____ _____    ______ ____
ROOT
ATOM      1  O   UNL     1      -1.851 -11.668  15.085  0.00  0.00    -0.252 OA
ATOM      2  O   UNL     1      -6.290 -10.869  20.386  0.00  0.00    -0.273 OA
ATOM      4  N   UNL     1      -3.888 -11.429  16.231  0.00  0.00    -0.278 N 
ATOM      5  N   UNL     1      -3.945 -12.068  14.077  0.00  0.00    -0.279 N 
ATOM      6  N   UNL     1      -5.715 -11.732  18.308  0.00  0.00    -0.296 N 
ATOM      8  C   UNL     1      -5.302 -11.473  15.900  0.00  0.00    +0.112 C 
ATOM      9  C   UNL     1      -5.330 -12.109  14.513  0.00  0.00    +0.133 C 
ATOM     10  C   UNL     1      -6.075 -12.239  16.970  0.00  0.00    +0.132 C 
ATOM     11  C   UNL     1      -3.471 -11.019  17.560  0.00  0.00    +0.128 C 
ATOM     12  C   UNL     1      -4.277 -11.775  18.613  0.00  0.00    +0.127 C 
ATOM     13  C   UNL     1      -3.074 -11.712  15.126  0.00  0.00    +0.306 C 
ATOM     15  C   UNL     1      -6.616 -11.264  19.263  0.00  0.00    +0.241 C 
ENDROOT
BRANCH   5  14
ATOM     14  C   UNL     1      -3.546 -12.485  12.751  0.00  0.00    +0.146 C 
BRANCH  14  16
ATOM      7  N   UNL     1      -4.565 -10.010  10.081  0.00  0.00    -0.263 NA
ATOM     16  C   UNL     1      -3.485 -11.331  11.793  0.00  0.00    -0.012 A 
ATOM     18  C   UNL     1      -2.353 -10.530  11.709  0.00  0.00    +0.008 A 
ATOM     19  C   UNL     1      -4.556 -11.032  10.965  0.00  0.00    +0.115 A 
ATOM     20  C   UNL     1      -2.325  -9.469  10.811  0.00  0.00    +0.020 A 
ATOM     21  C   UNL     1      -3.446  -9.252  10.027  0.00  0.00    +0.111 A 
ENDBRANCH  14  16
ENDBRANCH   5  14
BRANCH  15  17
ATOM     17  C   UNL     1      -8.070 -11.251  18.869  0.00  0.00    +0.255 C 
BRANCH  17   3
ATOM      3  O   UNL     1      -8.808 -11.097  20.056  0.00  0.00    -0.374 OA
ATOM     22  C   UNL     1     -10.151 -10.685  19.804  0.00  0.00    +0.194 C 
ENDBRANCH  17   3
ENDBRANCH  15  17
TORSDOF 4
ENDMDL
MODEL 5
REMARK VINA RESULT:      -5.5     26.927     28.532
REMARK  Name = 75536973
REMARK  5 active torsions:
REMARK  status: ('A' for Active; 'I' for Inactive)
REMARK    1  A    between atoms: O_3  and  C_17
REMARK    2  A    between atoms: O_3  and  C_22
REMARK    3  A    between atoms: N_5  and  C_14
REMARK    4  A    between atoms: C_14  and  C_16
REMARK    5  A    between atoms: C_15  and  C_17
REMARK                            x       y       z     vdW  Elec       q    Type
REMARK                         _______ _______ _______ _____ _____    ______ ____
ROOT
ATOM      1  O   UNL     1      -1.303 -11.332  15.389  0.00  0.00    -0.252 OA
ATOM      2  O   UNL     1      -7.291 -10.969  18.919  0.00  0.00    -0.273 OA
ATOM      4  N   UNL     1      -3.560 -10.870  15.850  0.00  0.00    -0.278 N 
ATOM      5  N   UNL     1      -2.859 -10.741  13.718  0.00  0.00    -0.279 N 
ATOM      6  N   UNL     1      -6.085 -11.256  16.955  0.00  0.00    -0.296 N 
ATOM      8  C   UNL     1      -4.713 -10.380  15.115  0.00  0.00    +0.112 C 
ATOM      9  C   UNL     1      -4.290 -10.501  13.653  0.00  0.00    +0.133 C 
ATOM     10  C   UNL     1      -5.961 -11.177  15.487  0.00  0.00    +0.132 C 
ATOM     11  C   UNL     1      -3.645 -11.050  17.288  0.00  0.00    +0.128 C 
ATOM     12  C   UNL     1      -4.914 -11.823  17.640  0.00  0.00    +0.127 C 
ATOM     13  C   UNL     1      -2.431 -11.018  15.032  0.00  0.00    +0.306 C 
ATOM     15  C   UNL     1      -7.203 -10.869  17.692  0.00  0.00    +0.241 C 
ENDROOT
BRANCH   5  14
ATOM     14  C   UNL     1      -2.040 -10.814  12.529  0.00  0.00    +0.146 C 
BRANCH  14  16
ATOM      7  N   UNL     1      -4.223 -11.651   9.557  0.00  0.00    -0.263 NA
ATOM     16  C   UNL     1      -2.850 -10.648  11.276  0.00  0.00    -0.012 A 
ATOM     18  C   UNL     1      -2.991  -9.403  10.674  0.00  0.00    +0.008 A 
ATOM     19  C   UNL     1      -3.481 -11.731  10.684  0.00  0.00    +0.115 A 
ATOM     20  C   UNL     1      -3.747  -9.281   9.514  0.00  0.00    +0.020 A 
ATOM     21  C   UNL     1      -4.337 -10.424   9.000  0.00  0.00    +0.111 A 
ENDBRANCH  14  16
ENDBRANCH   5  14
BRANCH  15  17
ATOM     17  C   UNL     1      -8.358 -10.294  16.913  0.00  0.00    +0.255 C 
BRANCH  17   3
ATOM      3  O   UNL     1      -8.314  -8.901  17.099  0.00  0.00    -0.374 OA
ATOM     22  C   UNL     1      -9.541  -8.271  16.728  0.00  0.00    +0.194 C 
ENDBRANCH  17   3
ENDBRANCH  15  17
TORSDOF 4
ENDMDL
MODEL 6
REMARK VINA RESULT:      -5.4      2.197      2.593
REMARK  Name = 75536973
REMARK  5 active torsions:
REMARK  status: ('A' for Active; 'I' for Inactive)
REMARK    1  A    between atoms: O_3  and  C_17
REMARK    2  A    between atoms: O_3  and  C_22
REMARK    3  A    between atoms: N_5  and  C_14
REMARK    4  A    between atoms: C_14  and  C_16
REMARK    5  A    between atoms: C_15  and  C_17
REMARK                            x       y       z     vdW  Elec       q    Type
REMARK                         _______ _______ _______ _____ _____    ______ ____
ROOT
ATOM      1  O   UNL     1      18.919   6.476  20.090  0.00  0.00    -0.252 OA
ATOM      2  O   UNL     1      12.058   7.132  19.124  0.00  0.00    -0.273 OA
ATOM      4  N   UNL     1      16.723   7.264  20.372  0.00  0.00    -0.278 N 
ATOM      5  N   UNL     1      18.400   8.414  21.329  0.00  0.00    -0.279 N 
ATOM      6  N   UNL     1      14.148   8.010  19.624  0.00  0.00    -0.296 N 
ATOM      8  C   UNL     1      16.061   8.306  21.137  0.00  0.00    +0.112 C 
ATOM      9  C   UNL     1      17.209   9.199  21.602  0.00  0.00    +0.133 C 
ATOM     10  C   UNL     1      15.011   9.009  20.281  0.00  0.00    +0.132 C 
ATOM     11  C   UNL     1      15.930   6.298  19.633  0.00  0.00    +0.128 C 
ATOM     12  C   UNL     1      14.869   7.020  18.808  0.00  0.00    +0.127 C 
ATOM     13  C   UNL     1      18.115   7.281  20.542  0.00  0.00    +0.306 C 
ATOM     15  C   UNL     1      12.758   7.965  19.705  0.00  0.00    +0.241 C 
ENDROOT
BRANCH   5  14
ATOM     14  C   UNL     1      19.718   8.860  21.723  0.00  0.00    +0.146 C 
BRANCH  14  16
ATOM      7  N   UNL     1      20.470   6.538  24.611  0.00  0.00    -0.263 NA
ATOM     16  C   UNL     1      20.085   8.384  23.099  0.00  0.00    -0.012 A 
ATOM     18  C   UNL     1      20.370   9.288  24.116  0.00  0.00    +0.008 A 
ATOM     19  C   UNL     1      20.148   7.032  23.395  0.00  0.00    +0.115 A 
ATOM     20  C   UNL     1      20.705   8.817  25.381  0.00  0.00    +0.020 A 
ATOM     21  C   UNL     1      20.741   7.446  25.575  0.00  0.00    +0.111 A 
ENDBRANCH  14  16
ENDBRANCH   5  14
BRANCH  15  17
ATOM     17  C   UNL     1      12.099   9.013  20.565  0.00  0.00    +0.255 C 
BRANCH  17   3
ATOM      3  O   UNL     1      10.842   8.500  20.932  0.00  0.00    -0.374 OA
ATOM     22  C   UNL     1      10.699   8.394  22.348  0.00  0.00    +0.194 C 
ENDBRANCH  17   3
ENDBRANCH  15  17
TORSDOF 4
ENDMDL
MODEL 7
REMARK VINA RESULT:      -5.4     26.995     28.807
REMARK  Name = 75536973
REMARK  5 active torsions:
REMARK  status: ('A' for Active; 'I' for Inactive)
REMARK    1  A    between atoms: O_3  and  C_17
REMARK    2  A    between atoms: O_3  and  C_22
REMARK    3  A    between atoms: N_5  and  C_14
REMARK    4  A    between atoms: C_14  and  C_16
REMARK    5  A    between atoms: C_15  and  C_17
REMARK                            x       y       z     vdW  Elec       q    Type
REMARK                         _______ _______ _______ _____ _____    ______ ____
ROOT
ATOM      1  O   UNL     1      -3.909 -11.806  18.899  0.00  0.00    -0.252 OA
ATOM      2  O   UNL     1     -10.495  -9.573  18.595  0.00  0.00    -0.273 OA
ATOM      4  N   UNL     1      -5.796 -10.615  18.163  0.00  0.00    -0.278 N 
ATOM      5  N   UNL     1      -3.968 -10.628  16.856  0.00  0.00    -0.279 N 
ATOM      6  N   UNL     1      -8.483 -10.159  17.595  0.00  0.00    -0.296 N 
ATOM      8  C   UNL     1      -6.123  -9.719  17.067  0.00  0.00    +0.112 C 
ATOM      9  C   UNL     1      -4.966  -9.905  16.089  0.00  0.00    +0.133 C 
ATOM     10  C   UNL     1      -7.500 -10.053  16.499  0.00  0.00    +0.132 C 
ATOM     11  C   UNL     1      -6.756 -10.828  19.231  0.00  0.00    +0.128 C 
ATOM     12  C   UNL     1      -8.131 -11.131  18.642  0.00  0.00    +0.127 C 
ATOM     13  C   UNL     1      -4.485 -11.102  18.079  0.00  0.00    +0.306 C 
ATOM     15  C   UNL     1      -9.678  -9.447  17.679  0.00  0.00    +0.241 C 
ENDROOT
BRANCH   5  14
ATOM     14  C   UNL     1      -2.655 -10.919  16.324  0.00  0.00    +0.146 C 
BRANCH  14  16
ATOM      7  N   UNL     1      -3.329 -12.958  13.212  0.00  0.00    -0.263 NA
ATOM     16  C   UNL     1      -2.711 -11.320  14.878  0.00  0.00    -0.012 A 
ATOM     18  C   UNL     1      -2.222 -10.481  13.883  0.00  0.00    +0.008 A 
ATOM     19  C   UNL     1      -3.250 -12.537  14.494  0.00  0.00    +0.115 A 
ATOM     20  C   UNL     1      -2.287 -10.879  12.553  0.00  0.00    +0.020 A 
ATOM     21  C   UNL     1      -2.844 -12.116  12.272  0.00  0.00    +0.111 A 
ENDBRANCH  14  16
ENDBRANCH   5  14
BRANCH  15  17
ATOM     17  C   UNL     1      -9.959  -8.469  16.567  0.00  0.00    +0.255 C 
BRANCH  17   3
ATOM      3  O   UNL     1     -10.354  -7.266  17.180  0.00  0.00    -0.374 OA
ATOM     22  C   UNL     1     -11.198  -6.485  16.334  0.00  0.00    +0.194 C 
ENDBRANCH  17   3
ENDBRANCH  15  17
TORSDOF 4
ENDMDL
MODEL 8
REMARK VINA RESULT:      -5.2     30.056     32.682
REMARK  Name = 75536973
REMARK  5 active torsions:
REMARK  status: ('A' for Active; 'I' for Inactive)
REMARK    1  A    between atoms: O_3  and  C_17
REMARK    2  A    between atoms: O_3  and  C_22
REMARK    3  A    between atoms: N_5  and  C_14
REMARK    4  A    between atoms: C_14  and  C_16
REMARK    5  A    between atoms: C_15  and  C_17
REMARK                            x       y       z     vdW  Elec       q    Type
REMARK                         _______ _______ _______ _____ _____    ______ ____
ROOT
ATOM      1  O   UNL     1     -17.208   2.014  22.607  0.00  0.00    -0.252 OA
ATOM      2  O   UNL     1     -16.142   0.428  29.300  0.00  0.00    -0.273 OA
ATOM      4  N   UNL     1     -16.496   2.240  24.835  0.00  0.00    -0.278 N 
ATOM      5  N   UNL     1     -16.476   4.062  23.519  0.00  0.00    -0.279 N 
ATOM      6  N   UNL     1     -16.587   1.947  27.601  0.00  0.00    -0.296 N 
ATOM      8  C   UNL     1     -15.893   3.277  25.655  0.00  0.00    +0.112 C 
ATOM      9  C   UNL     1     -16.082   4.547  24.830  0.00  0.00    +0.133 C 
ATOM     10  C   UNL     1     -16.544   3.309  27.035  0.00  0.00    +0.132 C 
ATOM     11  C   UNL     1     -16.644   0.896  25.365  0.00  0.00    +0.128 C 
ATOM     12  C   UNL     1     -17.269   0.953  26.757  0.00  0.00    +0.127 C 
ATOM     13  C   UNL     1     -16.778   2.685  23.536  0.00  0.00    +0.306 C 
ATOM     15  C   UNL     1     -16.070   1.570  28.839  0.00  0.00    +0.241 C 
ENDROOT
BRANCH   5  14
ATOM     14  C   UNL     1     -16.655   4.953  22.394  0.00  0.00    +0.146 C 
BRANCH  14  16
ATOM      7  N   UNL     1     -14.342   7.871  21.738  0.00  0.00    -0.263 NA
ATOM     16  C   UNL     1     -15.407   5.729  22.088  0.00  0.00    -0.012 A 
ATOM     18  C   UNL     1     -14.196   5.082  21.872  0.00  0.00    +0.008 A 
ATOM     19  C   UNL     1     -15.427   7.113  22.010  0.00  0.00    +0.115 A 
ATOM     20  C   UNL     1     -13.058   5.828  21.589  0.00  0.00    +0.020 A 
ATOM     21  C   UNL     1     -13.182   7.207  21.533  0.00  0.00    +0.111 A 
ENDBRANCH  14  16
ENDBRANCH   5  14
BRANCH  15  17
ATOM     17  C   UNL     1     -15.384   2.648  29.639  0.00  0.00    +0.255 C 
BRANCH  17   3
ATOM      3  O   UNL     1     -16.071   2.739  30.863  0.00  0.00    -0.374 OA
ATOM     22  C   UNL     1     -15.198   2.581  31.981  0.00  0.00    +0.194 C 
ENDBRANCH  17   3
ENDBRANCH  15  17
TORSDOF 4
ENDMDL
MODEL 9
REMARK VINA RESULT:      -5.2      4.383      5.191
REMARK  Name = 75536973
REMARK  5 active torsions:
REMARK  status: ('A' for Active; 'I' for Inactive)
REMARK    1  A    between atoms: O_3  and  C_17
REMARK    2  A    between atoms: O_3  and  C_22
REMARK    3  A    between atoms: N_5  and  C_14
REMARK    4  A    between atoms: C_14  and  C_16
REMARK    5  A    between atoms: C_15  and  C_17
REMARK                            x       y       z     vdW  Elec       q    Type
REMARK                         _______ _______ _______ _____ _____    ______ ____
ROOT
ATOM      1  O   UNL     1      14.468  10.189  14.847  0.00  0.00    -0.252 OA
ATOM      2  O   UNL     1      11.703   6.650  20.164  0.00  0.00    -0.273 OA
ATOM      4  N   UNL     1      14.011   9.545  17.060  0.00  0.00    -0.278 N 
ATOM      5  N   UNL     1      15.074  11.495  16.715  0.00  0.00    -0.279 N 
ATOM      6  N   UNL     1      12.499   8.606  19.200  0.00  0.00    -0.296 N 
ATOM      8  C   UNL     1      14.335  10.026  18.392  0.00  0.00    +0.112 C 
ATOM      9  C   UNL     1      14.860  11.438  18.150  0.00  0.00    +0.133 C 
ATOM     10  C   UNL     1      13.110   9.945  19.299  0.00  0.00    +0.132 C 
ATOM     11  C   UNL     1      13.334   8.271  16.898  0.00  0.00    +0.128 C 
ATOM     12  C   UNL     1      12.130   8.200  17.835  0.00  0.00    +0.127 C 
ATOM     13  C   UNL     1      14.514  10.382  16.055  0.00  0.00    +0.306 C 
ATOM     15  C   UNL     1      12.239   7.756  20.273  0.00  0.00    +0.241 C 
ENDROOT
BRANCH   5  14
ATOM     14  C   UNL     1      15.673  12.644  16.074  0.00  0.00    +0.146 C 
BRANCH  14  16
ATOM      7  N   UNL     1      19.405  12.788  16.669  0.00  0.00    -0.263 NA
ATOM     16  C   UNL     1      17.149  12.464  15.863  0.00  0.00    -0.012 A 
ATOM     18  C   UNL     1      17.638  11.839  14.722  0.00  0.00    +0.008 A 
ATOM     19  C   UNL     1      18.066  12.917  16.798  0.00  0.00    +0.115 A 
ATOM     20  C   UNL     1      19.009  11.688  14.553  0.00  0.00    +0.020 A 
ATOM     21  C   UNL     1      19.843  12.175  15.546  0.00  0.00    +0.111 A 
ENDBRANCH  14  16
ENDBRANCH   5  14
BRANCH  15  17
ATOM     17  C   UNL     1      12.652   8.246  21.637  0.00  0.00    +0.255 C 
BRANCH  17   3
ATOM      3  O   UNL     1      11.501   8.205  22.444  0.00  0.00    -0.374 OA
ATOM     22  C   UNL     1      10.747   9.414  22.366  0.00  0.00    +0.194 C 
ENDBRANCH  17   3
ENDBRANCH  15  17
TORSDOF 4
ENDMDL
MODEL 10
REMARK VINA RESULT:      -5.2      1.864      2.427
REMARK  Name = 75536973
REMARK  5 active torsions:
REMARK  status: ('A' for Active; 'I' for Inactive)
REMARK    1  A    between atoms: O_3  and  C_17
REMARK    2  A    between atoms: O_3  and  C_22
REMARK    3  A    between atoms: N_5  and  C_14
REMARK    4  A    between atoms: C_14  and  C_16
REMARK    5  A    between atoms: C_15  and  C_17
REMARK                            x       y       z     vdW  Elec       q    Type
REMARK                         _______ _______ _______ _____ _____    ______ ____
ROOT
ATOM      1  O   UNL     1      18.700   7.412  20.864  0.00  0.00    -0.252 OA
ATOM      2  O   UNL     1      12.067   6.577  18.927  0.00  0.00    -0.273 OA
ATOM      4  N   UNL     1      16.379   7.767  20.751  0.00  0.00    -0.278 N 
ATOM      5  N   UNL     1      17.647   9.320  21.766  0.00  0.00    -0.279 N 
ATOM      6  N   UNL     1      13.857   7.902  19.582  0.00  0.00    -0.296 N 
ATOM      8  C   UNL     1      15.427   8.726  21.283  0.00  0.00    +0.112 C 
ATOM      9  C   UNL     1      16.304   9.873  21.778  0.00  0.00    +0.133 C 
ATOM     10  C   UNL     1      14.409   9.115  20.214  0.00  0.00    +0.132 C 
ATOM     11  C   UNL     1      15.901   6.593  20.044  0.00  0.00    +0.128 C 
ATOM     12  C   UNL     1      14.865   7.001  19.001  0.00  0.00    +0.127 C 
ATOM     13  C   UNL     1      17.700   8.080  21.100  0.00  0.00    +0.306 C 
ATOM     15  C   UNL     1      12.503   7.587  19.484  0.00  0.00    +0.241 C 
ENDROOT
BRANCH   5  14
ATOM     14  C   UNL     1      18.784  10.059  22.270  0.00  0.00    +0.146 C 
BRANCH  14  16
ATOM      7  N   UNL     1      19.677  12.232  19.307  0.00  0.00    -0.263 NA
ATOM     16  C   UNL     1      19.582  10.687  21.164  0.00  0.00    -0.012 A 
ATOM     18  C   UNL     1      20.910  10.338  20.952  0.00  0.00    +0.008 A 
ATOM     19  C   UNL     1      19.016  11.630  20.321  0.00  0.00    +0.115 A 
ATOM     20  C   UNL     1      21.623  10.935  19.918  0.00  0.00    +0.020 A 
ATOM     21  C   UNL     1      20.967  11.867  19.132  0.00  0.00    +0.111 A 
ENDBRANCH  14  16
ENDBRANCH   5  14
BRANCH  15  17
ATOM     17  C   UNL     1      11.538   8.562  20.109  0.00  0.00    +0.255 C 
BRANCH  17   3
ATOM      3  O   UNL     1      10.546   7.794  20.743  0.00  0.00    -0.374 OA
ATOM     22  C   UNL     1      10.575   7.946  22.162  0.00  0.00    +0.194 C 
ENDBRANCH  17   3
ENDBRANCH  15  17
TORSDOF 4
ENDMDL
