MODEL 1
REMARK VINA RESULT:      -6.7      0.000      0.000
REMARK  Name = 45783697
REMARK  6 active torsions:
REMARK  status: ('A' for Active; 'I' for Inactive)
REMARK    1  A    between atoms: O_2  and  C_24
REMARK    2  A    between atoms: O_2  and  C_25
REMARK    3  A    between atoms: N_3  and  C_8
REMARK    4  A    between atoms: N_4  and  C_18
REMARK    5  A    between atoms: C_9  and  C_17
REMARK    6  A    between atoms: C_19  and  C_20
REMARK                            x       y       z     vdW  Elec       q    Type
REMARK                         _______ _______ _______ _____ _____    ______ ____
ROOT
ATOM      1  O   UNL     1      14.445   6.662  19.688  0.00  0.00    -0.336 OA
ATOM      5  N   UNL     1      15.671   8.075  20.919  0.00  0.00    -0.190 NA
ATOM      6  N   UNL     1      15.748   6.146  19.692  0.00  0.00    -0.056 NA
ATOM     17  C   UNL     1      14.487   7.797  20.433  0.00  0.00    +0.245 A 
ATOM     19  C   UNL     1      16.411   7.035  20.438  0.00  0.00    +0.204 A 
ENDROOT
BRANCH  19  20
ATOM      7  N   UNL     1      19.770   7.755  21.863  0.00  0.00    -0.221 NA
ATOM     20  C   UNL     1      17.812   6.914  20.721  0.00  0.00    +0.041 A 
ATOM     21  C   UNL     1      18.568   5.889  20.164  0.00  0.00    +0.018 A 
ATOM     22  C   UNL     1      18.454   7.813  21.557  0.00  0.00    +0.126 A 
ATOM     23  C   UNL     1      19.924   5.797  20.455  0.00  0.00    +0.068 A 
ATOM     24  C   UNL     1      20.473   6.745  21.302  0.00  0.00    +0.214 A 
BRANCH  24   2
ATOM      2  O   UNL     1      21.807   6.676  21.605  0.00  0.00    -0.480 OA
ATOM     25  C   UNL     1      22.572   5.698  20.908  0.00  0.00    +0.279 C 
ENDBRANCH  24   2
ENDBRANCH  19  20
BRANCH  17   9
ATOM      3  N   UNL     1      12.281   8.366  19.433  0.00  0.00    -0.288 NA
ATOM      9  C   UNL     1      13.184   8.552  20.585  0.00  0.00    +0.146 C 
ATOM     10  C   UNL     1      10.918   8.496  19.950  0.00  0.00    +0.085 C 
ATOM     13  C   UNL     1      12.365   8.086  21.803  0.00  0.00    +0.030 C 
ATOM     14  C   UNL     1      10.999   7.714  21.246  0.00  0.00    +0.017 C 
BRANCH   3   8
ATOM      4  N   UNL     1      14.435  10.530  16.476  0.00  0.00    -0.305 NA
ATOM      8  C   UNL     1      12.544   9.297  18.338  0.00  0.00    +0.060 C 
ATOM     11  C   UNL     1      13.104   8.548  17.127  0.00  0.00    +0.034 C 
ATOM     12  C   UNL     1      13.522  10.393  18.772  0.00  0.00    +0.034 C 
ATOM     15  C   UNL     1      13.479   9.520  16.005  0.00  0.00    +0.085 C 
ATOM     16  C   UNL     1      13.883  11.304  17.597  0.00  0.00    +0.085 C 
ATOM     18  C   UNL     1      14.821  11.419  15.382  0.00  0.00    +0.104 C 
ENDBRANCH   3   8
ENDBRANCH  17   9
TORSDOF 4
ENDMDL
MODEL 2
REMARK VINA RESULT:      -6.6      4.726      6.493
REMARK  Name = 45783697
REMARK  6 active torsions:
REMARK  status: ('A' for Active; 'I' for Inactive)
REMARK    1  A    between atoms: O_2  and  C_24
REMARK    2  A    between atoms: O_2  and  C_25
REMARK    3  A    between atoms: N_3  and  C_8
REMARK    4  A    between atoms: N_4  and  C_18
REMARK    5  A    between atoms: C_9  and  C_17
REMARK    6  A    between atoms: C_19  and  C_20
REMARK                            x       y       z     vdW  Elec       q    Type
REMARK                         _______ _______ _______ _____ _____    ______ ____
ROOT
ATOM      1  O   UNL     1      12.060   7.310  18.626  0.00  0.00    -0.336 OA
ATOM      5  N   UNL     1      13.454   9.027  18.980  0.00  0.00    -0.190 NA
ATOM      6  N   UNL     1      12.526   7.700  17.363  0.00  0.00    -0.056 NA
ATOM     17  C   UNL     1      12.654   8.142  19.520  0.00  0.00    +0.245 A 
ATOM     19  C   UNL     1      13.342   8.717  17.656  0.00  0.00    +0.204 A 
ENDROOT
BRANCH  19  20
ATOM      7  N   UNL     1      15.092   9.475  14.463  0.00  0.00    -0.221 NA
ATOM     20  C   UNL     1      14.060   9.445  16.649  0.00  0.00    +0.041 A 
ATOM     21  C   UNL     1      14.420  10.773  16.846  0.00  0.00    +0.018 A 
ATOM     22  C   UNL     1      14.416   8.847  15.451  0.00  0.00    +0.126 A 
ATOM     23  C   UNL     1      15.116  11.453  15.852  0.00  0.00    +0.068 A 
ATOM     24  C   UNL     1      15.425  10.766  14.690  0.00  0.00    +0.214 A 
BRANCH  24   2
ATOM      2  O   UNL     1      16.111  11.414  13.696  0.00  0.00    -0.480 OA
ATOM     25  C   UNL     1      15.333  12.008  12.664  0.00  0.00    +0.279 C 
ENDBRANCH  24   2
ENDBRANCH  19  20
BRANCH  17   9
ATOM      3  N   UNL     1      11.271   8.851  21.463  0.00  0.00    -0.288 NA
ATOM      9  C   UNL     1      12.311   7.922  20.978  0.00  0.00    +0.146 C 
ATOM     10  C   UNL     1      10.552   8.148  22.527  0.00  0.00    +0.085 C 
ATOM     13  C   UNL     1      11.739   6.518  21.249  0.00  0.00    +0.030 C 
ATOM     14  C   UNL     1      10.405   6.758  21.941  0.00  0.00    +0.017 C 
BRANCH   3   8
ATOM      4  N   UNL     1      12.924  11.781  24.059  0.00  0.00    -0.305 NA
ATOM      8  C   UNL     1      11.807  10.132  21.915  0.00  0.00    +0.060 C 
ATOM     11  C   UNL     1      13.244   9.959  22.415  0.00  0.00    +0.034 C 
ATOM     12  C   UNL     1      10.937  10.730  23.024  0.00  0.00    +0.034 C 
ATOM     15  C   UNL     1      13.788  11.272  22.985  0.00  0.00    +0.085 C 
ATOM     16  C   UNL     1      11.556  12.016  23.574  0.00  0.00    +0.085 C 
ATOM     18  C   UNL     1      13.483  13.007  24.626  0.00  0.00    +0.104 C 
ENDBRANCH   3   8
ENDBRANCH  17   9
TORSDOF 4
ENDMDL
MODEL 3
REMARK VINA RESULT:      -6.6     26.342     28.813
REMARK  Name = 45783697
REMARK  6 active torsions:
REMARK  status: ('A' for Active; 'I' for Inactive)
REMARK    1  A    between atoms: O_2  and  C_24
REMARK    2  A    between atoms: O_2  and  C_25
REMARK    3  A    between atoms: N_3  and  C_8
REMARK    4  A    between atoms: N_4  and  C_18
REMARK    5  A    between atoms: C_9  and  C_17
REMARK    6  A    between atoms: C_19  and  C_20
REMARK                            x       y       z     vdW  Elec       q    Type
REMARK                         _______ _______ _______ _____ _____    ______ ____
ROOT
ATOM      1  O   UNL     1      -2.078 -10.539  14.509  0.00  0.00    -0.336 OA
ATOM      5  N   UNL     1      -4.310 -10.715  14.411  0.00  0.00    -0.190 NA
ATOM      6  N   UNL     1      -2.528 -10.547  15.836  0.00  0.00    -0.056 NA
ATOM     17  C   UNL     1      -3.190 -10.641  13.734  0.00  0.00    +0.245 A 
ATOM     19  C   UNL     1      -3.853 -10.653  15.695  0.00  0.00    +0.204 A 
ENDROOT
BRANCH  19  20
ATOM      7  N   UNL     1      -6.851 -10.042  17.807  0.00  0.00    -0.221 NA
ATOM     20  C   UNL     1      -4.747 -10.699  16.815  0.00  0.00    +0.041 A 
ATOM     21  C   UNL     1      -4.417 -11.407  17.965  0.00  0.00    +0.018 A 
ATOM     22  C   UNL     1      -5.965 -10.039  16.786  0.00  0.00    +0.126 A 
ATOM     23  C   UNL     1      -5.303 -11.432  19.037  0.00  0.00    +0.068 A 
ATOM     24  C   UNL     1      -6.496 -10.740  18.909  0.00  0.00    +0.214 A 
BRANCH  24   2
ATOM      2  O   UNL     1      -7.386 -10.750  19.951  0.00  0.00    -0.480 OA
ATOM     25  C   UNL     1      -8.695 -11.231  19.670  0.00  0.00    +0.279 C 
ENDBRANCH  24   2
ENDBRANCH  19  20
BRANCH  17   9
ATOM      3  N   UNL     1      -3.768  -9.631  11.536  0.00  0.00    -0.288 NA
ATOM      9  C   UNL     1      -2.971 -10.656  12.237  0.00  0.00    +0.146 C 
ATOM     10  C   UNL     1      -3.009  -9.263  10.339  0.00  0.00    +0.085 C 
ATOM     13  C   UNL     1      -1.512 -10.352  11.847  0.00  0.00    +0.030 C 
ATOM     14  C   UNL     1      -1.595  -9.181  10.879  0.00  0.00    +0.017 C 
BRANCH   3   8
ATOM      4  N   UNL     1      -7.511  -9.864   9.535  0.00  0.00    -0.305 NA
ATOM      8  C   UNL     1      -5.122 -10.074  11.212  0.00  0.00    +0.060 C 
ATOM     11  C   UNL     1      -5.172 -10.632   9.788  0.00  0.00    +0.034 C 
ATOM     12  C   UNL     1      -6.125  -8.926  11.359  0.00  0.00    +0.034 C 
ATOM     15  C   UNL     1      -6.603 -11.010   9.396  0.00  0.00    +0.085 C 
ATOM     16  C   UNL     1      -7.524  -9.360  10.916  0.00  0.00    +0.085 C 
ATOM     18  C   UNL     1      -8.862 -10.226   9.110  0.00  0.00    +0.104 C 
ENDBRANCH   3   8
ENDBRANCH  17   9
TORSDOF 4
ENDMDL
MODEL 4
REMARK VINA RESULT:      -6.6      2.474      8.841
REMARK  Name = 45783697
REMARK  6 active torsions:
REMARK  status: ('A' for Active; 'I' for Inactive)
REMARK    1  A    between atoms: O_2  and  C_24
REMARK    2  A    between atoms: O_2  and  C_25
REMARK    3  A    between atoms: N_3  and  C_8
REMARK    4  A    between atoms: N_4  and  C_18
REMARK    5  A    between atoms: C_9  and  C_17
REMARK    6  A    between atoms: C_19  and  C_20
REMARK                            x       y       z     vdW  Elec       q    Type
REMARK                         _______ _______ _______ _____ _____    ______ ____
ROOT
ATOM      1  O   UNL     1      18.989   5.839  19.920  0.00  0.00    -0.336 OA
ATOM      5  N   UNL     1      17.593   6.916  21.301  0.00  0.00    -0.190 NA
ATOM      6  N   UNL     1      17.750   5.884  19.266  0.00  0.00    -0.056 NA
ATOM     17  C   UNL     1      18.809   6.468  21.111  0.00  0.00    +0.245 A 
ATOM     19  C   UNL     1      16.981   6.534  20.144  0.00  0.00    +0.204 A 
ENDROOT
BRANCH  19  20
ATOM      7  N   UNL     1      13.875   7.506  18.344  0.00  0.00    -0.221 NA
ATOM     20  C   UNL     1      15.597   6.817  19.895  0.00  0.00    +0.041 A 
ATOM     21  C   UNL     1      14.648   6.691  20.903  0.00  0.00    +0.018 A 
ATOM     22  C   UNL     1      15.163   7.224  18.643  0.00  0.00    +0.126 A 
ATOM     23  C   UNL     1      13.313   6.973  20.633  0.00  0.00    +0.068 A 
ATOM     24  C   UNL     1      12.981   7.373  19.349  0.00  0.00    +0.214 A 
BRANCH  24   2
ATOM      2  O   UNL     1      11.673   7.657  19.058  0.00  0.00    -0.480 OA
ATOM     25  C   UNL     1      10.976   8.485  19.982  0.00  0.00    +0.279 C 
ENDBRANCH  24   2
ENDBRANCH  19  20
BRANCH  17   9
ATOM      3  N   UNL     1      21.271   6.786  21.273  0.00  0.00    -0.288 NA
ATOM      9  C   UNL     1      20.017   6.556  22.018  0.00  0.00    +0.146 C 
ATOM     10  C   UNL     1      22.157   7.525  22.173  0.00  0.00    +0.085 C 
ATOM     13  C   UNL     1      19.932   7.729  23.011  0.00  0.00    +0.030 C 
ATOM     14  C   UNL     1      21.207   8.530  22.793  0.00  0.00    +0.017 C 
BRANCH   3   8
ATOM      4  N   UNL     1      23.827   3.393  21.141  0.00  0.00    -0.305 NA
ATOM      8  C   UNL     1      21.886   5.554  20.785  0.00  0.00    +0.060 C 
ATOM     11  C   UNL     1      21.669   4.419  21.789  0.00  0.00    +0.034 C 
ATOM     12  C   UNL     1      23.384   5.751  20.535  0.00  0.00    +0.034 C 
ATOM     15  C   UNL     1      22.392   3.145  21.341  0.00  0.00    +0.085 C 
ATOM     16  C   UNL     1      24.050   4.435  20.129  0.00  0.00    +0.085 C 
ATOM     18  C   UNL     1      24.511   2.157  20.763  0.00  0.00    +0.104 C 
ENDBRANCH   3   8
ENDBRANCH  17   9
TORSDOF 4
ENDMDL
MODEL 5
REMARK VINA RESULT:      -6.5      2.693      7.308
REMARK  Name = 45783697
REMARK  6 active torsions:
REMARK  status: ('A' for Active; 'I' for Inactive)
REMARK    1  A    between atoms: O_2  and  C_24
REMARK    2  A    between atoms: O_2  and  C_25
REMARK    3  A    between atoms: N_3  and  C_8
REMARK    4  A    between atoms: N_4  and  C_18
REMARK    5  A    between atoms: C_9  and  C_17
REMARK    6  A    between atoms: C_19  and  C_20
REMARK                            x       y       z     vdW  Elec       q    Type
REMARK                         _______ _______ _______ _____ _____    ______ ____
ROOT
ATOM      1  O   UNL     1      13.570   7.727  16.452  0.00  0.00    -0.336 OA
ATOM      5  N   UNL     1      14.457   9.491  17.509  0.00  0.00    -0.190 NA
ATOM      6  N   UNL     1      13.649   8.753  15.500  0.00  0.00    -0.056 NA
ATOM     17  C   UNL     1      14.066   8.245  17.606  0.00  0.00    +0.245 A 
ATOM     19  C   UNL     1      14.182   9.759  16.200  0.00  0.00    +0.204 A 
ENDROOT
BRANCH  19  20
ATOM      7  N   UNL     1      15.760  13.076  15.619  0.00  0.00    -0.221 NA
ATOM     20  C   UNL     1      14.450  11.044  15.622  0.00  0.00    +0.041 A 
ATOM     21  C   UNL     1      13.706  11.513  14.545  0.00  0.00    +0.018 A 
ATOM     22  C   UNL     1      15.457  11.856  16.117  0.00  0.00    +0.126 A 
ATOM     23  C   UNL     1      13.988  12.763  14.005  0.00  0.00    +0.068 A 
ATOM     24  C   UNL     1      15.015  13.499  14.573  0.00  0.00    +0.214 A 
BRANCH  24   2
ATOM      2  O   UNL     1      15.313  14.734  14.059  0.00  0.00    -0.480 OA
ATOM     25  C   UNL     1      14.745  15.055  12.794  0.00  0.00    +0.279 C 
ENDBRANCH  24   2
ENDBRANCH  19  20
BRANCH  17   9
ATOM      3  N   UNL     1      14.768   7.922  19.971  0.00  0.00    -0.288 NA
ATOM      9  C   UNL     1      14.092   7.321  18.804  0.00  0.00    +0.146 C 
ATOM     10  C   UNL     1      14.148   7.331  21.158  0.00  0.00    +0.085 C 
ATOM     13  C   UNL     1      12.682   6.964  19.310  0.00  0.00    +0.030 C 
ATOM     14  C   UNL     1      12.680   7.344  20.784  0.00  0.00    +0.017 C 
BRANCH   3   8
ATOM      4  N   UNL     1      18.593   6.375  20.989  0.00  0.00    -0.305 NA
ATOM      8  C   UNL     1      16.217   7.735  19.957  0.00  0.00    +0.060 C 
ATOM     11  C   UNL     1      16.563   6.293  19.576  0.00  0.00    +0.034 C 
ATOM     12  C   UNL     1      16.827   8.077  21.319  0.00  0.00    +0.034 C 
ATOM     15  C   UNL     1      18.073   6.052  19.653  0.00  0.00    +0.085 C 
ATOM     16  C   UNL     1      18.327   7.777  21.339  0.00  0.00    +0.085 C 
ATOM     18  C   UNL     1      20.026   6.092  21.061  0.00  0.00    +0.104 C 
ENDBRANCH   3   8
ENDBRANCH  17   9
TORSDOF 4
ENDMDL
MODEL 6
REMARK VINA RESULT:      -6.4      1.459      3.478
REMARK  Name = 45783697
REMARK  6 active torsions:
REMARK  status: ('A' for Active; 'I' for Inactive)
REMARK    1  A    between atoms: O_2  and  C_24
REMARK    2  A    between atoms: O_2  and  C_25
REMARK    3  A    between atoms: N_3  and  C_8
REMARK    4  A    between atoms: N_4  and  C_18
REMARK    5  A    between atoms: C_9  and  C_17
REMARK    6  A    between atoms: C_19  and  C_20
REMARK                            x       y       z     vdW  Elec       q    Type
REMARK                         _______ _______ _______ _____ _____    ______ ____
ROOT
ATOM      1  O   UNL     1      14.335   6.590  20.214  0.00  0.00    -0.336 OA
ATOM      5  N   UNL     1      16.006   7.804  19.346  0.00  0.00    -0.190 NA
ATOM      6  N   UNL     1      15.485   6.244  20.936  0.00  0.00    -0.056 NA
ATOM     17  C   UNL     1      14.730   7.513  19.298  0.00  0.00    +0.245 A 
ATOM     19  C   UNL     1      16.427   7.001  20.365  0.00  0.00    +0.204 A 
ENDROOT
BRANCH  19  20
ATOM      7  N   UNL     1      19.573   7.972  22.093  0.00  0.00    -0.221 NA
ATOM     20  C   UNL     1      17.797   6.978  20.788  0.00  0.00    +0.041 A 
ATOM     21  C   UNL     1      18.668   5.992  20.340  0.00  0.00    +0.018 A 
ATOM     22  C   UNL     1      18.294   7.937  21.656  0.00  0.00    +0.126 A 
ATOM     23  C   UNL     1      19.992   5.995  20.767  0.00  0.00    +0.068 A 
ATOM     24  C   UNL     1      20.391   6.997  21.635  0.00  0.00    +0.214 A 
BRANCH  24   2
ATOM      2  O   UNL     1      21.690   7.023  22.070  0.00  0.00    -0.480 OA
ATOM     25  C   UNL     1      22.476   5.865  21.809  0.00  0.00    +0.279 C 
ENDBRANCH  24   2
ENDBRANCH  19  20
BRANCH  17   9
ATOM      3  N   UNL     1      13.570   9.529  18.414  0.00  0.00    -0.288 NA
ATOM      9  C   UNL     1      13.655   8.056  18.381  0.00  0.00    +0.146 C 
ATOM     10  C   UNL     1      13.088   9.946  17.096  0.00  0.00    +0.085 C 
ATOM     13  C   UNL     1      13.907   7.712  16.901  0.00  0.00    +0.030 C 
ATOM     14  C   UNL     1      13.887   9.048  16.173  0.00  0.00    +0.017 C 
BRANCH   3   8
ATOM      4  N   UNL     1      11.844   9.896  22.280  0.00  0.00    -0.305 NA
ATOM      8  C   UNL     1      12.724  10.034  19.493  0.00  0.00    +0.060 C 
ATOM     11  C   UNL     1      13.587  10.546  20.649  0.00  0.00    +0.034 C 
ATOM     12  C   UNL     1      11.770   8.947  19.996  0.00  0.00    +0.034 C 
ATOM     15  C   UNL     1      12.718  10.987  21.829  0.00  0.00    +0.085 C 
ATOM     16  C   UNL     1      10.961   9.440  21.197  0.00  0.00    +0.085 C 
ATOM     18  C   UNL     1      11.057  10.317  23.439  0.00  0.00    +0.104 C 
ENDBRANCH   3   8
ENDBRANCH  17   9
TORSDOF 4
ENDMDL
MODEL 7
REMARK VINA RESULT:      -6.3     27.583     29.348
REMARK  Name = 45783697
REMARK  6 active torsions:
REMARK  status: ('A' for Active; 'I' for Inactive)
REMARK    1  A    between atoms: O_2  and  C_24
REMARK    2  A    between atoms: O_2  and  C_25
REMARK    3  A    between atoms: N_3  and  C_8
REMARK    4  A    between atoms: N_4  and  C_18
REMARK    5  A    between atoms: C_9  and  C_17
REMARK    6  A    between atoms: C_19  and  C_20
REMARK                            x       y       z     vdW  Elec       q    Type
REMARK                         _______ _______ _______ _____ _____    ______ ____
ROOT
ATOM      1  O   UNL     1      -3.269 -11.633  15.589  0.00  0.00    -0.336 OA
ATOM      5  N   UNL     1      -4.859 -10.314  14.723  0.00  0.00    -0.190 NA
ATOM      6  N   UNL     1      -2.965 -11.498  14.228  0.00  0.00    -0.056 NA
ATOM     17  C   UNL     1      -4.398 -10.905  15.796  0.00  0.00    +0.245 A 
ATOM     19  C   UNL     1      -3.947 -10.707  13.786  0.00  0.00    +0.204 A 
ENDROOT
BRANCH  19  20
ATOM      7  N   UNL     1      -5.443  -9.676  10.541  0.00  0.00    -0.221 NA
ATOM     20  C   UNL     1      -4.047 -10.291  12.417  0.00  0.00    +0.041 A 
ATOM     21  C   UNL     1      -2.909 -10.102  11.642  0.00  0.00    +0.018 A 
ATOM     22  C   UNL     1      -5.280 -10.067  11.825  0.00  0.00    +0.126 A 
ATOM     23  C   UNL     1      -3.036  -9.700  10.317  0.00  0.00    +0.068 A 
ATOM     24  C   UNL     1      -4.313  -9.502   9.819  0.00  0.00    +0.214 A 
BRANCH  24   2
ATOM      2  O   UNL     1      -4.465  -9.106   8.516  0.00  0.00    -0.480 OA
ATOM     25  C   UNL     1      -5.253  -9.945   7.679  0.00  0.00    +0.279 C 
ENDBRANCH  24   2
ENDBRANCH  19  20
BRANCH  17   9
ATOM      3  N   UNL     1      -6.131 -11.743  17.372  0.00  0.00    -0.288 NA
ATOM      9  C   UNL     1      -4.939 -10.888  17.209  0.00  0.00    +0.146 C 
ATOM     10  C   UNL     1      -6.125 -12.203  18.762  0.00  0.00    +0.085 C 
ATOM     13  C   UNL     1      -3.929 -11.425  18.240  0.00  0.00    +0.030 C 
ATOM     14  C   UNL     1      -4.662 -12.538  18.974  0.00  0.00    +0.017 C 
BRANCH   3   8
ATOM      4  N   UNL     1      -9.764  -9.591  17.854  0.00  0.00    -0.305 NA
ATOM      8  C   UNL     1      -7.378 -11.067  17.023  0.00  0.00    +0.060 C 
ATOM     11  C   UNL     1      -7.323  -9.598  17.448  0.00  0.00    +0.034 C 
ATOM     12  C   UNL     1      -8.578 -11.756  17.678  0.00  0.00    +0.034 C 
ATOM     15  C   UNL     1      -8.658  -8.898  17.180  0.00  0.00    +0.085 C 
ATOM     16  C   UNL     1      -9.871 -10.986  17.403  0.00  0.00    +0.085 C 
ATOM     18  C   UNL     1     -11.024  -8.883  17.630  0.00  0.00    +0.104 C 
ENDBRANCH   3   8
ENDBRANCH  17   9
TORSDOF 4
ENDMDL
MODEL 8
REMARK VINA RESULT:      -6.2     26.114     29.430
REMARK  Name = 45783697
REMARK  6 active torsions:
REMARK  status: ('A' for Active; 'I' for Inactive)
REMARK    1  A    between atoms: O_2  and  C_24
REMARK    2  A    between atoms: O_2  and  C_25
REMARK    3  A    between atoms: N_3  and  C_8
REMARK    4  A    between atoms: N_4  and  C_18
REMARK    5  A    between atoms: C_9  and  C_17
REMARK    6  A    between atoms: C_19  and  C_20
REMARK                            x       y       z     vdW  Elec       q    Type
REMARK                         _______ _______ _______ _____ _____    ______ ____
ROOT
ATOM      1  O   UNL     1      -4.057 -11.585  17.691  0.00  0.00    -0.336 OA
ATOM      5  N   UNL     1      -5.299 -10.532  16.152  0.00  0.00    -0.190 NA
ATOM      6  N   UNL     1      -5.290 -11.317  18.301  0.00  0.00    -0.056 NA
ATOM     17  C   UNL     1      -4.147 -11.091  16.428  0.00  0.00    +0.245 A 
ATOM     19  C   UNL     1      -5.967 -10.695  17.331  0.00  0.00    +0.204 A 
ENDROOT
BRANCH  19  20
ATOM      7  N   UNL     1      -9.437 -10.421  18.640  0.00  0.00    -0.221 NA
ATOM     20  C   UNL     1      -7.310 -10.223  17.507  0.00  0.00    +0.041 A 
ATOM     21  C   UNL     1      -7.797  -9.157  16.761  0.00  0.00    +0.018 A 
ATOM     22  C   UNL     1      -8.162 -10.816  18.426  0.00  0.00    +0.126 A 
ATOM     23  C   UNL     1      -9.104  -8.722  16.953  0.00  0.00    +0.068 A 
ATOM     24  C   UNL     1      -9.876  -9.381  17.895  0.00  0.00    +0.214 A 
BRANCH  24   2
ATOM      2  O   UNL     1     -11.167  -8.972  18.103  0.00  0.00    -0.480 OA
ATOM     25  C   UNL     1     -11.958  -9.767  18.978  0.00  0.00    +0.279 C 
ENDBRANCH  24   2
ENDBRANCH  19  20
BRANCH  17   9
ATOM      3  N   UNL     1      -3.037 -10.520  14.276  0.00  0.00    -0.288 NA
ATOM      9  C   UNL     1      -2.926 -11.258  15.550  0.00  0.00    +0.146 C 
ATOM     10  C   UNL     1      -1.672 -10.167  13.883  0.00  0.00    +0.085 C 
ATOM     13  C   UNL     1      -1.643 -10.717  16.205  0.00  0.00    +0.030 C 
ATOM     14  C   UNL     1      -1.070  -9.726  15.202  0.00  0.00    +0.017 C 
BRANCH   3   8
ATOM      4  N   UNL     1      -4.401 -11.631  10.407  0.00  0.00    -0.305 NA
ATOM      8  C   UNL     1      -3.733 -11.270  13.233  0.00  0.00    +0.060 C 
ATOM     11  C   UNL     1      -2.729 -11.828  12.221  0.00  0.00    +0.034 C 
ATOM     12  C   UNL     1      -4.762 -10.390  12.518  0.00  0.00    +0.034 C 
ATOM     15  C   UNL     1      -3.447 -12.533  11.067  0.00  0.00    +0.085 C 
ATOM     16  C   UNL     1      -5.412 -11.141  11.355  0.00  0.00    +0.085 C 
ATOM     18  C   UNL     1      -5.041 -12.303   9.277  0.00  0.00    +0.104 C 
ENDBRANCH   3   8
ENDBRANCH  17   9
TORSDOF 4
ENDMDL
MODEL 9
REMARK VINA RESULT:      -6.1     27.078     30.078
REMARK  Name = 45783697
REMARK  6 active torsions:
REMARK  status: ('A' for Active; 'I' for Inactive)
REMARK    1  A    between atoms: O_2  and  C_24
REMARK    2  A    between atoms: O_2  and  C_25
REMARK    3  A    between atoms: N_3  and  C_8
REMARK    4  A    between atoms: N_4  and  C_18
REMARK    5  A    between atoms: C_9  and  C_17
REMARK    6  A    between atoms: C_19  and  C_20
REMARK                            x       y       z     vdW  Elec       q    Type
REMARK                         _______ _______ _______ _____ _____    ______ ____
ROOT
ATOM      1  O   UNL     1      -9.042 -11.411  17.857  0.00  0.00    -0.336 OA
ATOM      5  N   UNL     1      -7.934  -9.594  17.158  0.00  0.00    -0.190 NA
ATOM      6  N   UNL     1      -7.789 -11.862  17.419  0.00  0.00    -0.056 NA
ATOM     17  C   UNL     1      -9.044 -10.065  17.668  0.00  0.00    +0.245 A 
ATOM     19  C   UNL     1      -7.195 -10.733  17.022  0.00  0.00    +0.204 A 
ENDROOT
BRANCH  19  20
ATOM      7  N   UNL     1      -4.419 -10.535  14.556  0.00  0.00    -0.221 NA
ATOM     20  C   UNL     1      -5.865 -10.708  16.486  0.00  0.00    +0.041 A 
ATOM     21  C   UNL     1      -4.756 -10.828  17.316  0.00  0.00    +0.018 A 
ATOM     22  C   UNL     1      -5.645 -10.565  15.125  0.00  0.00    +0.126 A 
ATOM     23  C   UNL     1      -3.479 -10.802  16.767  0.00  0.00    +0.068 A 
ATOM     24  C   UNL     1      -3.365 -10.655  15.395  0.00  0.00    +0.214 A 
BRANCH  24   2
ATOM      2  O   UNL     1      -2.116 -10.626  14.830  0.00  0.00    -0.480 OA
ATOM     25  C   UNL     1      -1.026 -10.352  15.701  0.00  0.00    +0.279 C 
ENDBRANCH  24   2
ENDBRANCH  19  20
BRANCH  17   9
ATOM      3  N   UNL     1     -11.378  -9.451  17.065  0.00  0.00    -0.288 NA
ATOM      9  C   UNL     1     -10.304  -9.330  18.070  0.00  0.00    +0.146 C 
ATOM     10  C   UNL     1     -12.643  -9.363  17.798  0.00  0.00    +0.085 C 
ATOM     13  C   UNL     1     -10.922  -9.876  19.371  0.00  0.00    +0.030 C 
ATOM     14  C   UNL     1     -12.361 -10.222  19.014  0.00  0.00    +0.017 C 
BRANCH   3   8
ATOM      4  N   UNL     1     -12.318  -6.029  14.727  0.00  0.00    -0.305 NA
ATOM      8  C   UNL     1     -11.288  -8.453  16.002  0.00  0.00    +0.060 C 
ATOM     11  C   UNL     1     -11.071  -7.060  16.599  0.00  0.00    +0.034 C 
ATOM     12  C   UNL     1     -12.551  -8.458  15.136  0.00  0.00    +0.034 C 
ATOM     15  C   UNL     1     -11.073  -5.988  15.506  0.00  0.00    +0.085 C 
ATOM     16  C   UNL     1     -12.506  -7.341  14.092  0.00  0.00    +0.085 C 
ATOM     18  C   UNL     1     -12.327  -4.968  13.720  0.00  0.00    +0.104 C 
ENDBRANCH   3   8
ENDBRANCH  17   9
TORSDOF 4
ENDMDL
MODEL 10
REMARK VINA RESULT:      -6.1      2.745      6.875
REMARK  Name = 45783697
REMARK  6 active torsions:
REMARK  status: ('A' for Active; 'I' for Inactive)
REMARK    1  A    between atoms: O_2  and  C_24
REMARK    2  A    between atoms: O_2  and  C_25
REMARK    3  A    between atoms: N_3  and  C_8
REMARK    4  A    between atoms: N_4  and  C_18
REMARK    5  A    between atoms: C_9  and  C_17
REMARK    6  A    between atoms: C_19  and  C_20
REMARK                            x       y       z     vdW  Elec       q    Type
REMARK                         _______ _______ _______ _____ _____    ______ ____
ROOT
ATOM      1  O   UNL     1      13.031  10.812  19.359  0.00  0.00    -0.336 OA
ATOM      5  N   UNL     1      13.436   9.431  17.642  0.00  0.00    -0.190 NA
ATOM      6  N   UNL     1      13.544  11.611  18.328  0.00  0.00    -0.056 NA
ATOM     17  C   UNL     1      13.000   9.544  18.873  0.00  0.00    +0.245 A 
ATOM     19  C   UNL     1      13.758  10.725  17.351  0.00  0.00    +0.204 A 
ENDROOT
BRANCH  19  20
ATOM      7  N   UNL     1      15.339  10.435  13.998  0.00  0.00    -0.221 NA
ATOM     20  C   UNL     1      14.293  11.098  16.074  0.00  0.00    +0.041 A 
ATOM     21  C   UNL     1      14.298  12.426  15.661  0.00  0.00    +0.018 A 
ATOM     22  C   UNL     1      14.820  10.149  15.213  0.00  0.00    +0.126 A 
ATOM     23  C   UNL     1      14.825  12.759  14.418  0.00  0.00    +0.068 A 
ATOM     24  C   UNL     1      15.328  11.736  13.631  0.00  0.00    +0.214 A 
BRANCH  24   2
ATOM      2  O   UNL     1      15.852  12.039  12.402  0.00  0.00    -0.480 OA
ATOM     25  C   UNL     1      15.999  13.419  12.090  0.00  0.00    +0.279 C 
ENDBRANCH  24   2
ENDBRANCH  19  20
BRANCH  17   9
ATOM      3  N   UNL     1      13.028   8.593  21.171  0.00  0.00    -0.288 NA
ATOM      9  C   UNL     1      12.476   8.475  19.807  0.00  0.00    +0.146 C 
ATOM     10  C   UNL     1      12.011   8.057  22.077  0.00  0.00    +0.085 C 
ATOM     13  C   UNL     1      10.950   8.546  19.995  0.00  0.00    +0.030 C 
ATOM     14  C   UNL     1      10.738   8.642  21.499  0.00  0.00    +0.017 C 
BRANCH   3   8
ATOM      4  N   UNL     1      16.973   7.281  20.287  0.00  0.00    -0.305 NA
ATOM      8  C   UNL     1      14.316   7.922  21.332  0.00  0.00    +0.060 C 
ATOM     11  C   UNL     1      15.454   8.945  21.312  0.00  0.00    +0.034 C 
ATOM     12  C   UNL     1      14.532   6.878  20.233  0.00  0.00    +0.034 C 
ATOM     15  C   UNL     1      16.817   8.251  21.380  0.00  0.00    +0.085 C 
ATOM     16  C   UNL     1      15.924   6.252  20.336  0.00  0.00    +0.085 C 
ATOM     18  C   UNL     1      18.298   6.664  20.336  0.00  0.00    +0.104 C 
ENDBRANCH   3   8
ENDBRANCH  17   9
TORSDOF 4
ENDMDL
