MODEL 1
REMARK VINA RESULT:      -7.4      0.000      0.000
REMARK  Name = 45784271
REMARK  3 active torsions:
REMARK  status: ('A' for Active; 'I' for Inactive)
REMARK    1  A    between atoms: N_5  and  C_9
REMARK    2  A    between atoms: C_8  and  C_15
REMARK    3  A    between atoms: C_22  and  C_24
REMARK                            x       y       z     vdW  Elec       q    Type
REMARK                         _______ _______ _______ _____ _____    ______ ____
ROOT
ATOM      6  N   UNL     1      15.326   8.528  20.686  0.00  0.00    -0.342 N 
ATOM      7  N   UNL     1      14.542   7.345  18.976  0.00  0.00    -0.232 NA
ATOM     15  C   UNL     1      14.284   8.310  19.831  0.00  0.00    +0.113 A 
ATOM     18  C   UNL     1      16.325   7.646  20.363  0.00  0.00    +0.067 A 
ATOM     19  C   UNL     1      15.812   6.919  19.292  0.00  0.00    +0.089 A 
ATOM     20  C   UNL     1      17.595   7.428  20.898  0.00  0.00    +0.040 A 
ATOM     21  C   UNL     1      16.598   5.911  18.709  0.00  0.00    +0.030 A 
ATOM     22  C   UNL     1      18.364   6.421  20.306  0.00  0.00    +0.057 A 
ATOM     23  C   UNL     1      17.875   5.675  19.230  0.00  0.00    +0.014 A 
ATOM     25  H   UNL     1      15.360   9.216  21.427  0.00  0.00    +0.167 HD
ENDROOT
BRANCH  15   8
ATOM      5  N   UNL     1      11.773  10.503  21.352  0.00  0.00    -0.299 NA
ATOM      8  C   UNL     1      13.012   9.122  19.918  0.00  0.00    +0.070 C 
ATOM     10  C   UNL     1      13.138  10.335  20.850  0.00  0.00    +0.096 C 
ATOM     11  C   UNL     1      11.311   9.148  21.654  0.00  0.00    +0.085 C 
ATOM     12  C   UNL     1      11.788   8.351  20.445  0.00  0.00    +0.028 C 
BRANCH   5   9
ATOM      4  O   UNL     1      10.128  12.748  24.496  0.00  0.00    -0.380 OA
ATOM      9  C   UNL     1      11.713  11.384  22.518  0.00  0.00    +0.061 C 
ATOM     13  C   UNL     1      10.899  12.640  22.193  0.00  0.00    +0.047 C 
ATOM     14  C   UNL     1      11.103  10.661  23.723  0.00  0.00    +0.047 C 
ATOM     16  C   UNL     1      10.732  13.500  23.443  0.00  0.00    +0.161 C 
ATOM     17  C   UNL     1      10.925  11.630  24.886  0.00  0.00    +0.161 C 
ENDBRANCH   5   9
ENDBRANCH  15   8
BRANCH  22  24
ATOM      1  F   UNL     1      20.655   7.047  20.405  0.00  0.00    -0.166 F 
ATOM      2  F   UNL     1      19.804   6.158  22.197  0.00  0.00    -0.166 F 
ATOM      3  F   UNL     1      20.217   4.917  20.467  0.00  0.00    -0.166 F 
ATOM     24  C   UNL     1      19.732   6.139  20.835  0.00  0.00    +0.417 C 
ENDBRANCH  22  24
TORSDOF 3
ENDMDL
MODEL 2
REMARK VINA RESULT:      -7.2      2.757      4.443
REMARK  Name = 45784271
REMARK  3 active torsions:
REMARK  status: ('A' for Active; 'I' for Inactive)
REMARK    1  A    between atoms: N_5  and  C_9
REMARK    2  A    between atoms: C_8  and  C_15
REMARK    3  A    between atoms: C_22  and  C_24
REMARK                            x       y       z     vdW  Elec       q    Type
REMARK                         _______ _______ _______ _____ _____    ______ ____
ROOT
ATOM      6  N   UNL     1      18.517   6.122  19.973  0.00  0.00    -0.342 N 
ATOM      7  N   UNL     1      18.527   7.385  21.802  0.00  0.00    -0.232 NA
ATOM     15  C   UNL     1      17.887   7.100  20.690  0.00  0.00    +0.113 A 
ATOM     18  C   UNL     1      19.638   5.750  20.669  0.00  0.00    +0.067 A 
ATOM     19  C   UNL     1      19.623   6.553  21.806  0.00  0.00    +0.089 A 
ATOM     20  C   UNL     1      20.636   4.809  20.409  0.00  0.00    +0.040 A 
ATOM     21  C   UNL     1      20.655   6.422  22.751  0.00  0.00    +0.030 A 
ATOM     22  C   UNL     1      21.656   4.693  21.360  0.00  0.00    +0.057 A 
ATOM     23  C   UNL     1      21.666   5.485  22.511  0.00  0.00    +0.014 A 
ATOM     25  H   UNL     1      18.214   5.738  19.088  0.00  0.00    +0.167 HD
ENDROOT
BRANCH  15   8
ATOM      5  N   UNL     1      14.296   7.821  20.582  0.00  0.00    -0.299 NA
ATOM      8  C   UNL     1      16.607   7.735  20.196  0.00  0.00    +0.070 C 
ATOM     10  C   UNL     1      15.564   7.922  21.307  0.00  0.00    +0.096 C 
ATOM     11  C   UNL     1      14.475   6.700  19.660  0.00  0.00    +0.085 C 
ATOM     12  C   UNL     1      15.872   6.941  19.101  0.00  0.00    +0.028 C 
BRANCH   5   9
ATOM      4  O   UNL     1      10.329   7.873  21.955  0.00  0.00    -0.380 OA
ATOM      9  C   UNL     1      13.156   7.628  21.477  0.00  0.00    +0.061 C 
ATOM     13  C   UNL     1      12.491   8.971  21.788  0.00  0.00    +0.047 C 
ATOM     14  C   UNL     1      12.133   6.664  20.867  0.00  0.00    +0.047 C 
ATOM     16  C   UNL     1      11.230   8.758  22.621  0.00  0.00    +0.161 C 
ATOM     17  C   UNL     1      10.894   6.579  21.751  0.00  0.00    +0.161 C 
ENDBRANCH   5   9
ENDBRANCH  15   8
BRANCH  22  24
ATOM      1  F   UNL     1      23.638   4.110  20.184  0.00  0.00    -0.166 F 
ATOM      2  F   UNL     1      23.499   3.459  22.254  0.00  0.00    -0.166 F 
ATOM      3  F   UNL     1      22.306   2.480  20.730  0.00  0.00    -0.166 F 
ATOM     24  C   UNL     1      22.752   3.704  21.138  0.00  0.00    +0.417 C 
ENDBRANCH  22  24
TORSDOF 3
ENDMDL
MODEL 3
REMARK VINA RESULT:      -6.9     28.553     31.039
REMARK  Name = 45784271
REMARK  3 active torsions:
REMARK  status: ('A' for Active; 'I' for Inactive)
REMARK    1  A    between atoms: N_5  and  C_9
REMARK    2  A    between atoms: C_8  and  C_15
REMARK    3  A    between atoms: C_22  and  C_24
REMARK                            x       y       z     vdW  Elec       q    Type
REMARK                         _______ _______ _______ _____ _____    ______ ____
ROOT
ATOM      6  N   UNL     1     -15.360   4.056  24.653  0.00  0.00    -0.342 N 
ATOM      7  N   UNL     1     -17.297   4.206  23.576  0.00  0.00    -0.232 NA
ATOM     15  C   UNL     1     -16.689   3.740  24.644  0.00  0.00    +0.113 A 
ATOM     18  C   UNL     1     -15.092   4.775  23.518  0.00  0.00    +0.067 A 
ATOM     19  C   UNL     1     -16.317   4.856  22.862  0.00  0.00    +0.089 A 
ATOM     20  C   UNL     1     -13.919   5.345  23.021  0.00  0.00    +0.040 A 
ATOM     21  C   UNL     1     -16.395   5.542  21.638  0.00  0.00    +0.030 A 
ATOM     22  C   UNL     1     -14.015   6.024  21.802  0.00  0.00    +0.057 A 
ATOM     23  C   UNL     1     -15.231   6.122  21.121  0.00  0.00    +0.014 A 
ATOM     25  H   UNL     1     -14.690   3.807  25.369  0.00  0.00    +0.167 HD
ENDROOT
BRANCH  15   8
ATOM      5  N   UNL     1     -16.876   2.030  27.880  0.00  0.00    -0.299 NA
ATOM      8  C   UNL     1     -17.315   2.941  25.764  0.00  0.00    +0.070 C 
ATOM     10  C   UNL     1     -16.736   3.288  27.143  0.00  0.00    +0.096 C 
ATOM     11  C   UNL     1     -16.462   0.991  26.936  0.00  0.00    +0.085 C 
ATOM     12  C   UNL     1     -17.147   1.416  25.643  0.00  0.00    +0.028 C 
BRANCH   5   9
ATOM      4  O   UNL     1     -13.504   1.861  30.375  0.00  0.00    -0.380 OA
ATOM      9  C   UNL     1     -16.084   2.013  29.108  0.00  0.00    +0.061 C 
ATOM     13  C   UNL     1     -15.299   0.702  29.217  0.00  0.00    +0.047 C 
ATOM     14  C   UNL     1     -15.123   3.205  29.161  0.00  0.00    +0.047 C 
ATOM     16  C   UNL     1     -14.380   0.735  30.434  0.00  0.00    +0.161 C 
ATOM     17  C   UNL     1     -14.215   3.099  30.381  0.00  0.00    +0.161 C 
ENDBRANCH   5   9
ENDBRANCH  15   8
BRANCH  22  24
ATOM      1  F   UNL     1     -11.662   5.939  21.476  0.00  0.00    -0.166 F 
ATOM      2  F   UNL     1     -12.844   6.790  19.862  0.00  0.00    -0.166 F 
ATOM      3  F   UNL     1     -12.551   7.912  21.694  0.00  0.00    -0.166 F 
ATOM     24  C   UNL     1     -12.794   6.656  21.219  0.00  0.00    +0.417 C 
ENDBRANCH  22  24
TORSDOF 3
ENDMDL
MODEL 4
REMARK VINA RESULT:      -6.8     28.066     30.252
REMARK  Name = 45784271
REMARK  3 active torsions:
REMARK  status: ('A' for Active; 'I' for Inactive)
REMARK    1  A    between atoms: N_5  and  C_9
REMARK    2  A    between atoms: C_8  and  C_15
REMARK    3  A    between atoms: C_22  and  C_24
REMARK                            x       y       z     vdW  Elec       q    Type
REMARK                         _______ _______ _______ _____ _____    ______ ____
ROOT
ATOM      6  N   UNL     1      -7.701  -9.057  17.190  0.00  0.00    -0.342 N 
ATOM      7  N   UNL     1      -8.691 -10.543  18.513  0.00  0.00    -0.232 NA
ATOM     15  C   UNL     1      -7.543 -10.125  18.027  0.00  0.00    +0.113 A 
ATOM     18  C   UNL     1      -9.039  -8.765  17.130  0.00  0.00    +0.067 A 
ATOM     19  C   UNL     1      -9.636  -9.706  17.965  0.00  0.00    +0.089 A 
ATOM     20  C   UNL     1      -9.758  -7.789  16.440  0.00  0.00    +0.040 A 
ATOM     21  C   UNL     1     -11.031  -9.686  18.132  0.00  0.00    +0.030 A 
ATOM     22  C   UNL     1     -11.146  -7.784  16.617  0.00  0.00    +0.057 A 
ATOM     23  C   UNL     1     -11.772  -8.715  17.449  0.00  0.00    +0.014 A 
ATOM     25  H   UNL     1      -6.965  -8.566  16.699  0.00  0.00    +0.167 HD
ENDROOT
BRANCH  15   8
ATOM      5  N   UNL     1      -4.215 -11.461  17.275  0.00  0.00    -0.299 NA
ATOM      8  C   UNL     1      -6.178 -10.705  18.313  0.00  0.00    +0.070 C 
ATOM     10  C   UNL     1      -5.130 -10.318  17.260  0.00  0.00    +0.096 C 
ATOM     11  C   UNL     1      -5.083 -12.638  17.329  0.00  0.00    +0.085 C 
ATOM     12  C   UNL     1      -6.126 -12.242  18.367  0.00  0.00    +0.028 C 
BRANCH   5   9
ATOM      4  O   UNL     1      -1.842 -10.022  14.126  0.00  0.00    -0.380 OA
ATOM      9  C   UNL     1      -3.326 -11.479  16.115  0.00  0.00    +0.061 C 
ATOM     13  C   UNL     1      -4.002 -10.805  14.917  0.00  0.00    +0.047 C 
ATOM     14  C   UNL     1      -1.998 -10.782  16.428  0.00  0.00    +0.047 C 
ATOM     16  C   UNL     1      -3.031 -10.713  13.744  0.00  0.00    +0.161 C 
ATOM     17  C   UNL     1      -1.139 -10.692  15.172  0.00  0.00    +0.161 C 
ENDBRANCH   5   9
ENDBRANCH  15   8
BRANCH  22  24
ATOM      1  F   UNL     1     -11.467  -5.501  16.034  0.00  0.00    -0.166 F 
ATOM      2  F   UNL     1     -12.069  -6.983  14.562  0.00  0.00    -0.166 F 
ATOM      3  F   UNL     1     -13.258  -6.694  16.352  0.00  0.00    -0.166 F 
ATOM     24  C   UNL     1     -11.970  -6.763  15.905  0.00  0.00    +0.417 C 
ENDBRANCH  22  24
TORSDOF 3
ENDMDL
MODEL 5
REMARK VINA RESULT:      -6.8      3.084      3.997
REMARK  Name = 45784271
REMARK  3 active torsions:
REMARK  status: ('A' for Active; 'I' for Inactive)
REMARK    1  A    between atoms: N_5  and  C_9
REMARK    2  A    between atoms: C_8  and  C_15
REMARK    3  A    between atoms: C_22  and  C_24
REMARK                            x       y       z     vdW  Elec       q    Type
REMARK                         _______ _______ _______ _____ _____    ______ ____
ROOT
ATOM      6  N   UNL     1      18.650   7.901  22.333  0.00  0.00    -0.342 N 
ATOM      7  N   UNL     1      17.726   7.213  20.433  0.00  0.00    -0.232 NA
ATOM     15  C   UNL     1      17.657   8.086  21.413  0.00  0.00    +0.113 A 
ATOM     18  C   UNL     1      19.411   6.838  21.920  0.00  0.00    +0.067 A 
ATOM     19  C   UNL     1      18.815   6.426  20.731  0.00  0.00    +0.089 A 
ATOM     20  C   UNL     1      20.537   6.220  22.467  0.00  0.00    +0.040 A 
ATOM     21  C   UNL     1      19.360   5.335  20.034  0.00  0.00    +0.030 A 
ATOM     22  C   UNL     1      21.066   5.135  21.759  0.00  0.00    +0.057 A 
ATOM     23  C   UNL     1      20.489   4.700  20.564  0.00  0.00    +0.014 A 
ATOM     25  H   UNL     1      18.800   8.448  23.170  0.00  0.00    +0.167 HD
ENDROOT
BRANCH  15   8
ATOM      5  N   UNL     1      14.344   9.650  21.373  0.00  0.00    -0.299 NA
ATOM      8  C   UNL     1      16.634   9.187  21.572  0.00  0.00    +0.070 C 
ATOM     10  C   UNL     1      15.247   8.662  21.968  0.00  0.00    +0.096 C 
ATOM     11  C   UNL     1      14.890   9.909  20.041  0.00  0.00    +0.085 C 
ATOM     12  C   UNL     1      16.386  10.027  20.306  0.00  0.00    +0.028 C 
BRANCH   5   9
ATOM      4  O   UNL     1      11.022   7.321  20.293  0.00  0.00    -0.380 OA
ATOM      9  C   UNL     1      12.960   9.182  21.325  0.00  0.00    +0.061 C 
ATOM     13  C   UNL     1      12.418   9.270  19.896  0.00  0.00    +0.047 C 
ATOM     14  C   UNL     1      12.847   7.744  21.841  0.00  0.00    +0.047 C 
ATOM     16  C   UNL     1      11.018   8.668  19.822  0.00  0.00    +0.161 C 
ATOM     17  C   UNL     1      11.423   7.227  21.660  0.00  0.00    +0.161 C 
ENDBRANCH   5   9
ENDBRANCH  15   8
BRANCH  22  24
ATOM      1  F   UNL     1      23.376   4.629  21.520  0.00  0.00    -0.166 F 
ATOM      2  F   UNL     1      22.622   4.832  23.549  0.00  0.00    -0.166 F 
ATOM      3  F   UNL     1      22.116   3.078  22.379  0.00  0.00    -0.166 F 
ATOM     24  C   UNL     1      22.270   4.432  22.294  0.00  0.00    +0.417 C 
ENDBRANCH  22  24
TORSDOF 3
ENDMDL
MODEL 6
REMARK VINA RESULT:      -6.8     18.411     20.750
REMARK  Name = 45784271
REMARK  3 active torsions:
REMARK  status: ('A' for Active; 'I' for Inactive)
REMARK    1  A    between atoms: N_5  and  C_9
REMARK    2  A    between atoms: C_8  and  C_15
REMARK    3  A    between atoms: C_22  and  C_24
REMARK                            x       y       z     vdW  Elec       q    Type
REMARK                         _______ _______ _______ _____ _____    ______ ____
ROOT
ATOM      6  N   UNL     1      12.191   6.154   3.597  0.00  0.00    -0.342 N 
ATOM      7  N   UNL     1      10.979   4.362   3.089  0.00  0.00    -0.232 NA
ATOM     15  C   UNL     1      11.947   5.158   2.693  0.00  0.00    +0.113 A 
ATOM     18  C   UNL     1      11.324   5.989   4.646  0.00  0.00    +0.067 A 
ATOM     19  C   UNL     1      10.578   4.864   4.305  0.00  0.00    +0.089 A 
ATOM     20  C   UNL     1      11.133   6.706   5.828  0.00  0.00    +0.040 A 
ATOM     21  C   UNL     1       9.579   4.413   5.184  0.00  0.00    +0.030 A 
ATOM     22  C   UNL     1      10.134   6.243   6.691  0.00  0.00    +0.057 A 
ATOM     23  C   UNL     1       9.370   5.116   6.376  0.00  0.00    +0.014 A 
ATOM     25  H   UNL     1      12.886   6.883   3.511  0.00  0.00    +0.167 HD
ENDROOT
BRANCH  15   8
ATOM      5  N   UNL     1      12.556   4.453  -0.851  0.00  0.00    -0.299 NA
ATOM      8  C   UNL     1      12.737   5.051   1.410  0.00  0.00    +0.070 C 
ATOM     10  C   UNL     1      11.878   5.271   0.157  0.00  0.00    +0.096 C 
ATOM     11  C   UNL     1      12.889   3.205  -0.163  0.00  0.00    +0.085 C 
ATOM     12  C   UNL     1      13.418   3.690   1.181  0.00  0.00    +0.028 C 
BRANCH   5   9
ATOM      4  O   UNL     1       9.340   3.133  -3.205  0.00  0.00    -0.380 OA
ATOM      9  C   UNL     1      11.731   4.231  -2.036  0.00  0.00    +0.061 C 
ATOM     13  C   UNL     1      11.555   2.731  -2.289  0.00  0.00    +0.047 C 
ATOM     14  C   UNL     1      10.361   4.901  -1.887  0.00  0.00    +0.047 C 
ATOM     16  C   UNL     1      10.595   2.498  -3.451  0.00  0.00    +0.161 C 
ATOM     17  C   UNL     1       9.468   4.549  -3.072  0.00  0.00    +0.161 C 
ENDBRANCH   5   9
ENDBRANCH  15   8
BRANCH  22  24
ATOM      1  F   UNL     1      10.180   6.211   9.068  0.00  0.00    -0.166 F 
ATOM      2  F   UNL     1      10.613   8.111   8.105  0.00  0.00    -0.166 F 
ATOM      3  F   UNL     1       8.582   7.353   8.133  0.00  0.00    -0.166 F 
ATOM     24  C   UNL     1       9.881   6.967   7.972  0.00  0.00    +0.417 C 
ENDBRANCH  22  24
TORSDOF 3
ENDMDL
MODEL 7
REMARK VINA RESULT:      -6.7     27.113     28.973
REMARK  Name = 45784271
REMARK  3 active torsions:
REMARK  status: ('A' for Active; 'I' for Inactive)
REMARK    1  A    between atoms: N_5  and  C_9
REMARK    2  A    between atoms: C_8  and  C_15
REMARK    3  A    between atoms: C_22  and  C_24
REMARK                            x       y       z     vdW  Elec       q    Type
REMARK                         _______ _______ _______ _____ _____    ______ ____
ROOT
ATOM      6  N   UNL     1      -4.051 -10.921  12.999  0.00  0.00    -0.342 N 
ATOM      7  N   UNL     1      -1.907 -10.338  12.944  0.00  0.00    -0.232 NA
ATOM     15  C   UNL     1      -2.984 -10.563  12.225  0.00  0.00    +0.113 A 
ATOM     18  C   UNL     1      -3.636 -10.927  14.306  0.00  0.00    +0.067 A 
ATOM     19  C   UNL     1      -2.295 -10.560  14.246  0.00  0.00    +0.089 A 
ATOM     20  C   UNL     1      -4.299 -11.214  15.500  0.00  0.00    +0.040 A 
ATOM     21  C   UNL     1      -1.555 -10.468  15.437  0.00  0.00    +0.030 A 
ATOM     22  C   UNL     1      -3.548 -11.118  16.676  0.00  0.00    +0.057 A 
ATOM     23  C   UNL     1      -2.200 -10.751  16.647  0.00  0.00    +0.014 A 
ATOM     25  H   UNL     1      -4.982 -11.142  12.671  0.00  0.00    +0.167 HD
ENDROOT
BRANCH  15   8
ATOM      5  N   UNL     1      -4.554  -9.792   9.004  0.00  0.00    -0.299 NA
ATOM      8  C   UNL     1      -3.103 -10.460  10.722  0.00  0.00    +0.070 C 
ATOM     10  C   UNL     1      -4.003  -9.301  10.269  0.00  0.00    +0.096 C 
ATOM     11  C   UNL     1      -4.903 -11.189   9.260  0.00  0.00    +0.085 C 
ATOM     12  C   UNL     1      -3.694 -11.704  10.034  0.00  0.00    +0.028 C 
BRANCH   5   9
ATOM      4  O   UNL     1      -8.519  -8.860   7.989  0.00  0.00    -0.380 OA
ATOM      9  C   UNL     1      -5.701  -9.005   8.554  0.00  0.00    +0.061 C 
ATOM     13  C   UNL     1      -6.321  -9.637   7.304  0.00  0.00    +0.047 C 
ATOM     14  C   UNL     1      -6.755  -8.887   9.660  0.00  0.00    +0.047 C 
ATOM     16  C   UNL     1      -7.589  -8.888   6.906  0.00  0.00    +0.161 C 
ATOM     17  C   UNL     1      -7.998  -8.180   9.131  0.00  0.00    +0.161 C 
ENDBRANCH   5   9
ENDBRANCH  15   8
BRANCH  22  24
ATOM      1  F   UNL     1      -3.302 -11.764  18.951  0.00  0.00    -0.166 F 
ATOM      2  F   UNL     1      -4.896 -10.357  18.499  0.00  0.00    -0.166 F 
ATOM      3  F   UNL     1      -5.098 -12.439  17.929  0.00  0.00    -0.166 F 
ATOM     24  C   UNL     1      -4.200 -11.413  17.987  0.00  0.00    +0.417 C 
ENDBRANCH  22  24
TORSDOF 3
ENDMDL
MODEL 8
REMARK VINA RESULT:      -6.7     30.395     31.950
REMARK  Name = 45784271
REMARK  3 active torsions:
REMARK  status: ('A' for Active; 'I' for Inactive)
REMARK    1  A    between atoms: N_5  and  C_9
REMARK    2  A    between atoms: C_8  and  C_15
REMARK    3  A    between atoms: C_22  and  C_24
REMARK                            x       y       z     vdW  Elec       q    Type
REMARK                         _______ _______ _______ _____ _____    ______ ____
ROOT
ATOM      6  N   UNL     1       1.012   0.910  -6.084  0.00  0.00    -0.342 N 
ATOM      7  N   UNL     1       0.586   2.619  -7.438  0.00  0.00    -0.232 NA
ATOM     15  C   UNL     1       1.424   2.124  -6.555  0.00  0.00    +0.113 A 
ATOM     18  C   UNL     1      -0.170   0.599  -6.704  0.00  0.00    +0.067 A 
ATOM     19  C   UNL     1      -0.415   1.681  -7.545  0.00  0.00    +0.089 A 
ATOM     20  C   UNL     1      -1.021  -0.503  -6.606  0.00  0.00    +0.040 A 
ATOM     21  C   UNL     1      -1.572   1.681  -8.342  0.00  0.00    +0.030 A 
ATOM     22  C   UNL     1      -2.168  -0.486  -7.406  0.00  0.00    +0.057 A 
ATOM     23  C   UNL     1      -2.440   0.586  -8.259  0.00  0.00    +0.014 A 
ATOM     25  H   UNL     1       1.492   0.339  -5.400  0.00  0.00    +0.167 HD
ENDROOT
BRANCH  15   8
ATOM      5  N   UNL     1       3.580   4.745  -5.172  0.00  0.00    -0.299 NA
ATOM      8  C   UNL     1       2.705   2.763  -6.068  0.00  0.00    +0.070 C 
ATOM     10  C   UNL     1       2.473   3.809  -4.969  0.00  0.00    +0.096 C 
ATOM     11  C   UNL     1       3.660   4.927  -6.622  0.00  0.00    +0.085 C 
ATOM     12  C   UNL     1       3.508   3.506  -7.151  0.00  0.00    +0.028 C 
BRANCH   5   9
ATOM      4  O   UNL     1       4.067   8.783  -4.130  0.00  0.00    -0.380 OA
ATOM      9  C   UNL     1       3.379   6.008  -4.464  0.00  0.00    +0.061 C 
ATOM     13  C   UNL     1       4.683   6.456  -3.796  0.00  0.00    +0.047 C 
ATOM     14  C   UNL     1       2.875   7.099  -5.414  0.00  0.00    +0.047 C 
ATOM     16  C   UNL     1       4.507   7.831  -3.160  0.00  0.00    +0.161 C 
ATOM     17  C   UNL     1       2.799   8.438  -4.688  0.00  0.00    +0.161 C 
ENDBRANCH   5   9
ENDBRANCH  15   8
BRANCH  22  24
ATOM      1  F   UNL     1      -2.989  -2.478  -8.411  0.00  0.00    -0.166 F 
ATOM      2  F   UNL     1      -2.959  -2.417  -6.238  0.00  0.00    -0.166 F 
ATOM      3  F   UNL     1      -4.430  -1.259  -7.330  0.00  0.00    -0.166 F 
ATOM     24  C   UNL     1      -3.119  -1.636  -7.345  0.00  0.00    +0.417 C 
ENDBRANCH  22  24
TORSDOF 3
ENDMDL
MODEL 9
REMARK VINA RESULT:      -6.7      5.390      8.821
REMARK  Name = 45784271
REMARK  3 active torsions:
REMARK  status: ('A' for Active; 'I' for Inactive)
REMARK    1  A    between atoms: N_5  and  C_9
REMARK    2  A    between atoms: C_8  and  C_15
REMARK    3  A    between atoms: C_22  and  C_24
REMARK                            x       y       z     vdW  Elec       q    Type
REMARK                         _______ _______ _______ _____ _____    ______ ____
ROOT
ATOM      6  N   UNL     1      16.472   8.131  21.904  0.00  0.00    -0.342 N 
ATOM      7  N   UNL     1      16.879   7.360  19.860  0.00  0.00    -0.232 NA
ATOM     15  C   UNL     1      17.412   7.874  20.946  0.00  0.00    +0.113 A 
ATOM     18  C   UNL     1      15.251   7.758  21.404  0.00  0.00    +0.067 A 
ATOM     19  C   UNL     1      15.532   7.280  20.127  0.00  0.00    +0.089 A 
ATOM     20  C   UNL     1      13.964   7.797  21.942  0.00  0.00    +0.040 A 
ATOM     21  C   UNL     1      14.478   6.808  19.326  0.00  0.00    +0.030 A 
ATOM     22  C   UNL     1      12.928   7.324  21.131  0.00  0.00    +0.057 A 
ATOM     23  C   UNL     1      13.179   6.837  19.846  0.00  0.00    +0.014 A 
ATOM     25  H   UNL     1      16.642   8.526  22.820  0.00  0.00    +0.167 HD
ENDROOT
BRANCH  15   8
ATOM      5  N   UNL     1      20.904   7.190  21.822  0.00  0.00    -0.299 NA
ATOM      8  C   UNL     1      18.874   8.174  21.180  0.00  0.00    +0.070 C 
ATOM     10  C   UNL     1      19.785   6.970  20.903  0.00  0.00    +0.096 C 
ATOM     11  C   UNL     1      20.284   7.613  23.078  0.00  0.00    +0.085 C 
ATOM     12  C   UNL     1      19.225   8.606  22.615  0.00  0.00    +0.028 C 
BRANCH   5   9
ATOM      4  O   UNL     1      22.035   3.328  23.018  0.00  0.00    -0.380 OA
ATOM      9  C   UNL     1      21.734   5.998  21.985  0.00  0.00    +0.061 C 
ATOM     13  C   UNL     1      21.971   5.715  23.471  0.00  0.00    +0.047 C 
ATOM     14  C   UNL     1      21.086   4.781  21.317  0.00  0.00    +0.047 C 
ATOM     16  C   UNL     1      22.732   4.405  23.646  0.00  0.00    +0.161 C 
ATOM     17  C   UNL     1      21.897   3.523  21.611  0.00  0.00    +0.161 C 
ENDBRANCH   5   9
ENDBRANCH  15   8
BRANCH  22  24
ATOM      1  F   UNL     1      11.384   8.147  22.740  0.00  0.00    -0.166 F 
ATOM      2  F   UNL     1      10.613   7.783  20.740  0.00  0.00    -0.166 F 
ATOM      3  F   UNL     1      11.078   6.111  22.040  0.00  0.00    -0.166 F 
ATOM     24  C   UNL     1      11.528   7.339  21.650  0.00  0.00    +0.417 C 
ENDBRANCH  22  24
TORSDOF 3
ENDMDL
MODEL 10
REMARK VINA RESULT:      -6.5     28.899     31.364
REMARK  Name = 45784271
REMARK  3 active torsions:
REMARK  status: ('A' for Active; 'I' for Inactive)
REMARK    1  A    between atoms: N_5  and  C_9
REMARK    2  A    between atoms: C_8  and  C_15
REMARK    3  A    between atoms: C_22  and  C_24
REMARK                            x       y       z     vdW  Elec       q    Type
REMARK                         _______ _______ _______ _____ _____    ______ ____
ROOT
ATOM      6  N   UNL     1     -14.642   4.999  32.038  0.00  0.00    -0.342 N 
ATOM      7  N   UNL     1     -14.602   4.394  34.176  0.00  0.00    -0.232 NA
ATOM     15  C   UNL     1     -14.605   5.409  33.341  0.00  0.00    +0.113 A 
ATOM     18  C   UNL     1     -14.664   3.629  32.030  0.00  0.00    +0.067 A 
ATOM     19  C   UNL     1     -14.639   3.274  33.377  0.00  0.00    +0.089 A 
ATOM     20  C   UNL     1     -14.703   2.696  30.993  0.00  0.00    +0.040 A 
ATOM     21  C   UNL     1     -14.653   1.914  33.727  0.00  0.00    +0.030 A 
ATOM     22  C   UNL     1     -14.717   1.346  31.360  0.00  0.00    +0.057 A 
ATOM     23  C   UNL     1     -14.692   0.960  32.703  0.00  0.00    +0.014 A 
ATOM     25  H   UNL     1     -14.652   5.598  31.222  0.00  0.00    +0.167 HD
ENDROOT
BRANCH  15   8
ATOM      5  N   UNL     1     -13.771   8.959  32.985  0.00  0.00    -0.299 NA
ATOM      8  C   UNL     1     -14.572   6.876  33.703  0.00  0.00    +0.070 C 
ATOM     10  C   UNL     1     -14.498   7.795  32.476  0.00  0.00    +0.096 C 
ATOM     11  C   UNL     1     -12.685   8.404  33.792  0.00  0.00    +0.085 C 
ATOM     12  C   UNL     1     -13.379   7.298  34.579  0.00  0.00    +0.028 C 
BRANCH   5   9
ATOM      4  O   UNL     1     -12.564  10.147  29.143  0.00  0.00    -0.380 OA
ATOM      9  C   UNL     1     -13.281   9.823  31.912  0.00  0.00    +0.061 C 
ATOM     13  C   UNL     1     -11.980   9.261  31.330  0.00  0.00    +0.047 C 
ATOM     14  C   UNL     1     -14.328   9.973  30.804  0.00  0.00    +0.047 C 
ATOM     16  C   UNL     1     -11.534  10.092  30.131  0.00  0.00    +0.161 C 
ATOM     17  C   UNL     1     -13.752  10.765  29.635  0.00  0.00    +0.161 C 
ENDBRANCH   5   9
ENDBRANCH  15   8
BRANCH  22  24
ATOM      1  F   UNL     1     -13.515  -0.039  29.847  0.00  0.00    -0.166 F 
ATOM      2  F   UNL     1     -15.334  -0.869  30.702  0.00  0.00    -0.166 F 
ATOM      3  F   UNL     1     -15.460   0.678  29.188  0.00  0.00    -0.166 F 
ATOM     24  C   UNL     1     -14.758   0.300  30.296  0.00  0.00    +0.417 C 
ENDBRANCH  22  24
TORSDOF 3
ENDMDL
