MODEL 1
REMARK VINA RESULT:      -6.5      0.000      0.000
REMARK  Name = 75537080
REMARK  4 active torsions:
REMARK  status: ('A' for Active; 'I' for Inactive)
REMARK    1  A    between atoms: N_4  and  C_12
REMARK    2  A    between atoms: N_5  and  C_13
REMARK    3  A    between atoms: C_12  and  C_14
REMARK    4  A    between atoms: C_13  and  C_15
REMARK                            x       y       z     vdW  Elec       q    Type
REMARK                         _______ _______ _______ _____ _____    ______ ____
ROOT
ATOM      2  O   UNL     1      11.414   9.912   6.575  0.00  0.00    -0.252 OA
ATOM      3  N   UNL     1      13.544   8.975   6.255  0.00  0.00    -0.278 N 
ATOM      4  N   UNL     1      16.207   8.748   5.378  0.00  0.00    -0.295 NA
ATOM      5  N   UNL     1      11.748   7.658   5.965  0.00  0.00    -0.279 N 
ATOM      6  C   UNL     1      14.094   7.658   6.018  0.00  0.00    +0.109 C 
ATOM      7  C   UNL     1      15.215   7.729   4.980  0.00  0.00    +0.109 C 
ATOM      8  C   UNL     1      12.882   6.829   5.597  0.00  0.00    +0.133 C 
ATOM      9  C   UNL     1      14.441  10.084   6.510  0.00  0.00    +0.125 C 
ATOM     10  C   UNL     1      15.578  10.081   5.485  0.00  0.00    +0.104 C 
ATOM     11  C   UNL     1      12.144   8.969   6.304  0.00  0.00    +0.305 C 
ENDROOT
BRANCH   4  12
ATOM     12  C   UNL     1      17.314   8.782   4.424  0.00  0.00    +0.119 C 
BRANCH  12  14
ATOM     14  C   UNL     1      18.621   8.403   5.068  0.00  0.00    -0.033 A 
ATOM     16  C   UNL     1      18.877   8.765   6.390  0.00  0.00    +0.005 A 
ATOM     17  C   UNL     1      19.575   7.690   4.343  0.00  0.00    +0.005 A 
ATOM     20  C   UNL     1      20.087   8.413   6.988  0.00  0.00    +0.000 A 
ATOM     21  C   UNL     1      20.786   7.338   4.941  0.00  0.00    +0.000 A 
ATOM     24  C   UNL     1      21.042   7.700   6.263  0.00  0.00    +0.000 A 
ENDBRANCH  12  14
ENDBRANCH   4  12
BRANCH   5  13
ATOM     13  C   UNL     1      10.385   7.194   5.835  0.00  0.00    +0.144 C 
BRANCH  13  15
ATOM      1  F   UNL     1       8.832   3.995  10.206  0.00  0.00    -0.205 F 
ATOM     15  C   UNL     1       9.970   6.340   7.003  0.00  0.00    -0.030 A 
ATOM     18  C   UNL     1      10.152   4.957   6.955  0.00  0.00    +0.008 A 
ATOM     19  C   UNL     1       9.404   6.929   8.133  0.00  0.00    +0.008 A 
ATOM     22  C   UNL     1       9.768   4.166   8.037  0.00  0.00    +0.038 A 
ATOM     23  C   UNL     1       9.019   6.137   9.214  0.00  0.00    +0.038 A 
ATOM     25  C   UNL     1       9.202   4.755   9.167  0.00  0.00    +0.123 A 
ENDBRANCH  13  15
ENDBRANCH   5  13
TORSDOF 4
ENDMDL
MODEL 2
REMARK VINA RESULT:      -6.4     28.523     30.248
REMARK  Name = 75537080
REMARK  4 active torsions:
REMARK  status: ('A' for Active; 'I' for Inactive)
REMARK    1  A    between atoms: N_4  and  C_12
REMARK    2  A    between atoms: N_5  and  C_13
REMARK    3  A    between atoms: C_12  and  C_14
REMARK    4  A    between atoms: C_13  and  C_15
REMARK                            x       y       z     vdW  Elec       q    Type
REMARK                         _______ _______ _______ _____ _____    ______ ____
ROOT
ATOM      2  O   UNL     1     -12.811  -8.080  13.268  0.00  0.00    -0.252 OA
ATOM      3  N   UNL     1     -10.938  -8.018  14.683  0.00  0.00    -0.278 N 
ATOM      4  N   UNL     1      -9.005  -8.914  16.520  0.00  0.00    -0.295 NA
ATOM      5  N   UNL     1     -12.362  -6.281  14.726  0.00  0.00    -0.279 N 
ATOM      6  C   UNL     1     -10.313  -7.058  15.569  0.00  0.00    +0.109 C 
ATOM      7  C   UNL     1      -9.844  -7.745  16.852  0.00  0.00    +0.109 C 
ATOM      8  C   UNL     1     -11.391  -5.994  15.768  0.00  0.00    +0.133 C 
ATOM      9  C   UNL     1     -10.264  -9.271  14.406  0.00  0.00    +0.125 C 
ATOM     10  C   UNL     1      -9.761  -9.892  15.711  0.00  0.00    +0.104 C 
ATOM     11  C   UNL     1     -12.121  -7.529  14.114  0.00  0.00    +0.305 C 
ENDROOT
BRANCH   4  12
ATOM     12  C   UNL     1      -8.501  -9.542  17.741  0.00  0.00    +0.119 C 
BRANCH  12  14
ATOM     14  C   UNL     1      -7.052  -9.929  17.615  0.00  0.00    -0.033 A 
ATOM     16  C   UNL     1      -6.427 -10.632  18.646  0.00  0.00    +0.005 A 
ATOM     17  C   UNL     1      -6.335  -9.587  16.470  0.00  0.00    +0.005 A 
ATOM     20  C   UNL     1      -5.084 -10.991  18.529  0.00  0.00    +0.000 A 
ATOM     21  C   UNL     1      -4.992  -9.946  16.353  0.00  0.00    +0.000 A 
ATOM     24  C   UNL     1      -4.367 -10.649  17.384  0.00  0.00    +0.000 A 
ENDBRANCH  12  14
ENDBRANCH   4  12
BRANCH   5  13
ATOM     13  C   UNL     1     -13.506  -5.430  14.488  0.00  0.00    +0.144 C 
BRANCH  13  15
ATOM      1  F   UNL     1     -13.263  -2.949   9.435  0.00  0.00    -0.205 F 
ATOM     15  C   UNL     1     -13.441  -4.768  13.139  0.00  0.00    -0.030 A 
ATOM     18  C   UNL     1     -14.560  -4.773  12.304  0.00  0.00    +0.008 A 
ATOM     19  C   UNL     1     -12.263  -4.148  12.722  0.00  0.00    +0.008 A 
ATOM     22  C   UNL     1     -14.499  -4.159  11.054  0.00  0.00    +0.038 A 
ATOM     23  C   UNL     1     -12.204  -3.533  11.471  0.00  0.00    +0.038 A 
ATOM     25  C   UNL     1     -13.321  -3.539  10.637  0.00  0.00    +0.123 A 
ENDBRANCH  13  15
ENDBRANCH   5  13
TORSDOF 4
ENDMDL
MODEL 3
REMARK VINA RESULT:      -6.2      3.187      8.581
REMARK  Name = 75537080
REMARK  4 active torsions:
REMARK  status: ('A' for Active; 'I' for Inactive)
REMARK    1  A    between atoms: N_4  and  C_12
REMARK    2  A    between atoms: N_5  and  C_13
REMARK    3  A    between atoms: C_12  and  C_14
REMARK    4  A    between atoms: C_13  and  C_15
REMARK                            x       y       z     vdW  Elec       q    Type
REMARK                         _______ _______ _______ _____ _____    ______ ____
ROOT
ATOM      2  O   UNL     1      15.292   8.471   2.505  0.00  0.00    -0.252 OA
ATOM      3  N   UNL     1      13.812   7.517   4.060  0.00  0.00    -0.278 N 
ATOM      4  N   UNL     1      11.379   6.686   5.199  0.00  0.00    -0.295 NA
ATOM      5  N   UNL     1      15.460   8.835   4.829  0.00  0.00    -0.279 N 
ATOM      6  C   UNL     1      13.707   7.427   5.501  0.00  0.00    +0.109 C 
ATOM      7  C   UNL     1      12.254   7.615   5.941  0.00  0.00    +0.109 C 
ATOM      8  C   UNL     1      14.674   8.497   6.002  0.00  0.00    +0.133 C 
ATOM      9  C   UNL     1      12.898   6.756   3.232  0.00  0.00    +0.125 C 
ATOM     10  C   UNL     1      11.465   6.928   3.744  0.00  0.00    +0.104 C 
ATOM     11  C   UNL     1      14.906   8.292   3.652  0.00  0.00    +0.305 C 
ENDROOT
BRANCH   4  12
ATOM     12  C   UNL     1       9.995   6.816   5.656  0.00  0.00    +0.119 C 
BRANCH  12  14
ATOM     14  C   UNL     1       9.752   6.054   6.931  0.00  0.00    -0.033 A 
ATOM     16  C   UNL     1       9.258   6.717   8.055  0.00  0.00    +0.005 A 
ATOM     17  C   UNL     1      10.021   4.687   6.990  0.00  0.00    +0.005 A 
ATOM     20  C   UNL     1       9.032   6.012   9.237  0.00  0.00    +0.000 A 
ATOM     21  C   UNL     1       9.795   3.982   8.172  0.00  0.00    +0.000 A 
ATOM     24  C   UNL     1       9.300   4.645   9.296  0.00  0.00    +0.000 A 
ENDBRANCH  12  14
ENDBRANCH   4  12
BRANCH   5  13
ATOM     13  C   UNL     1      16.580   9.747   4.893  0.00  0.00    +0.144 C 
BRANCH  13  15
ATOM      1  F   UNL     1      21.459   7.032   5.650  0.00  0.00    -0.205 F 
ATOM     15  C   UNL     1      17.883   9.022   5.095  0.00  0.00    -0.030 A 
ATOM     18  C   UNL     1      18.470   8.331   4.034  0.00  0.00    +0.008 A 
ATOM     19  C   UNL     1      18.505   9.040   6.343  0.00  0.00    +0.008 A 
ATOM     22  C   UNL     1      19.677   7.659   4.222  0.00  0.00    +0.038 A 
ATOM     23  C   UNL     1      19.713   8.368   6.531  0.00  0.00    +0.038 A 
ATOM     25  C   UNL     1      20.299   7.677   5.470  0.00  0.00    +0.123 A 
ENDBRANCH  13  15
ENDBRANCH   5  13
TORSDOF 4
ENDMDL
MODEL 4
REMARK VINA RESULT:      -6.0     26.531     30.079
REMARK  Name = 75537080
REMARK  4 active torsions:
REMARK  status: ('A' for Active; 'I' for Inactive)
REMARK    1  A    between atoms: N_4  and  C_12
REMARK    2  A    between atoms: N_5  and  C_13
REMARK    3  A    between atoms: C_12  and  C_14
REMARK    4  A    between atoms: C_13  and  C_15
REMARK                            x       y       z     vdW  Elec       q    Type
REMARK                         _______ _______ _______ _____ _____    ______ ____
ROOT
ATOM      2  O   UNL     1      -5.347 -12.074  19.020  0.00  0.00    -0.252 OA
ATOM      3  N   UNL     1      -6.912 -10.611  18.057  0.00  0.00    -0.278 N 
ATOM      4  N   UNL     1      -9.354  -9.711  16.988  0.00  0.00    -0.295 NA
ATOM      5  N   UNL     1      -4.825 -10.635  17.225  0.00  0.00    -0.279 N 
ATOM      6  C   UNL     1      -6.899  -9.546  17.076  0.00  0.00    +0.109 C 
ATOM      7  C   UNL     1      -8.127  -9.643  16.169  0.00  0.00    +0.109 C 
ATOM      8  C   UNL     1      -5.560  -9.725  16.364  0.00  0.00    +0.133 C 
ATOM      9  C   UNL     1      -8.121 -10.863  18.815  0.00  0.00    +0.125 C 
ATOM     10  C   UNL     1      -9.329 -10.892  17.876  0.00  0.00    +0.104 C 
ATOM     11  C   UNL     1      -5.656 -11.213  18.208  0.00  0.00    +0.305 C 
ENDROOT
BRANCH   4  12
ATOM     12  C   UNL     1     -10.537  -9.743  16.130  0.00  0.00    +0.119 C 
BRANCH  12  14
ATOM     14  C   UNL     1     -11.001  -8.359  15.763  0.00  0.00    -0.033 A 
ATOM     16  C   UNL     1     -11.558  -8.121  14.506  0.00  0.00    +0.005 A 
ATOM     17  C   UNL     1     -10.875  -7.315  16.679  0.00  0.00    +0.005 A 
ATOM     20  C   UNL     1     -11.988  -6.838  14.166  0.00  0.00    +0.000 A 
ATOM     21  C   UNL     1     -11.305  -6.032  16.338  0.00  0.00    +0.000 A 
ATOM     24  C   UNL     1     -11.862  -5.794  15.081  0.00  0.00    +0.000 A 
ENDBRANCH  12  14
ENDBRANCH   4  12
BRANCH   5  13
ATOM     13  C   UNL     1      -3.447 -10.989  16.970  0.00  0.00    +0.144 C 
BRANCH  13  15
ATOM      1  F   UNL     1      -2.619 -12.460  11.594  0.00  0.00    -0.205 F 
ATOM     15  C   UNL     1      -3.226 -11.382  15.534  0.00  0.00    -0.030 A 
ATOM     18  C   UNL     1      -3.843 -12.523  15.019  0.00  0.00    +0.008 A 
ATOM     19  C   UNL     1      -2.404 -10.606  14.717  0.00  0.00    +0.008 A 
ATOM     22  C   UNL     1      -3.638 -12.886  13.689  0.00  0.00    +0.038 A 
ATOM     23  C   UNL     1      -2.199 -10.970  13.386  0.00  0.00    +0.038 A 
ATOM     25  C   UNL     1      -2.816 -12.110  12.872  0.00  0.00    +0.123 A 
ENDBRANCH  13  15
ENDBRANCH   5  13
TORSDOF 4
ENDMDL
MODEL 5
REMARK VINA RESULT:      -5.9      5.649      7.925
REMARK  Name = 75537080
REMARK  4 active torsions:
REMARK  status: ('A' for Active; 'I' for Inactive)
REMARK    1  A    between atoms: N_4  and  C_12
REMARK    2  A    between atoms: N_5  and  C_13
REMARK    3  A    between atoms: C_12  and  C_14
REMARK    4  A    between atoms: C_13  and  C_15
REMARK                            x       y       z     vdW  Elec       q    Type
REMARK                         _______ _______ _______ _____ _____    ______ ____
ROOT
ATOM      2  O   UNL     1      13.030   7.113   4.307  0.00  0.00    -0.252 OA
ATOM      3  N   UNL     1      11.903   6.126   2.498  0.00  0.00    -0.278 N 
ATOM      4  N   UNL     1      11.252   5.512  -0.169  0.00  0.00    -0.295 NA
ATOM      5  N   UNL     1      10.680   6.945   4.194  0.00  0.00    -0.279 N 
ATOM      6  C   UNL     1      10.542   5.755   2.176  0.00  0.00    +0.109 C 
ATOM      7  C   UNL     1      10.227   6.097   0.719  0.00  0.00    +0.109 C 
ATOM      8  C   UNL     1       9.707   6.510   3.208  0.00  0.00    +0.133 C 
ATOM      9  C   UNL     1      12.977   5.729   1.609  0.00  0.00    +0.125 C 
ATOM     10  C   UNL     1      12.594   6.035   0.159  0.00  0.00    +0.104 C 
ATOM     11  C   UNL     1      12.003   6.767   3.739  0.00  0.00    +0.305 C 
ENDROOT
BRANCH   4  12
ATOM     12  C   UNL     1      10.927   5.782  -1.569  0.00  0.00    +0.119 C 
BRANCH  12  14
ATOM     14  C   UNL     1      10.531   4.530  -2.304  0.00  0.00    -0.033 A 
ATOM     16  C   UNL     1       9.490   4.567  -3.232  0.00  0.00    +0.005 A 
ATOM     17  C   UNL     1      11.205   3.334  -2.060  0.00  0.00    +0.005 A 
ATOM     20  C   UNL     1       9.123   3.407  -3.914  0.00  0.00    +0.000 A 
ATOM     21  C   UNL     1      10.838   2.174  -2.742  0.00  0.00    +0.000 A 
ATOM     24  C   UNL     1       9.796   2.211  -3.669  0.00  0.00    +0.000 A 
ENDBRANCH  12  14
ENDBRANCH   4  12
BRANCH   5  13
ATOM     13  C   UNL     1      10.289   7.613   5.415  0.00  0.00    +0.144 C 
BRANCH  13  15
ATOM      1  F   UNL     1       9.199   3.951   9.556  0.00  0.00    -0.205 F 
ATOM     15  C   UNL     1       9.997   6.635   6.521  0.00  0.00    -0.030 A 
ATOM     18  C   UNL     1      10.140   5.265   6.297  0.00  0.00    +0.008 A 
ATOM     19  C   UNL     1       9.586   7.097   7.771  0.00  0.00    +0.008 A 
ATOM     22  C   UNL     1       9.870   4.359   7.322  0.00  0.00    +0.038 A 
ATOM     23  C   UNL     1       9.317   6.191   8.796  0.00  0.00    +0.038 A 
ATOM     25  C   UNL     1       9.459   4.821   8.572  0.00  0.00    +0.123 A 
ENDBRANCH  13  15
ENDBRANCH   5  13
TORSDOF 4
ENDMDL
MODEL 6
REMARK VINA RESULT:      -5.8      2.284      2.938
REMARK  Name = 75537080
REMARK  4 active torsions:
REMARK  status: ('A' for Active; 'I' for Inactive)
REMARK    1  A    between atoms: N_4  and  C_12
REMARK    2  A    between atoms: N_5  and  C_13
REMARK    3  A    between atoms: C_12  and  C_14
REMARK    4  A    between atoms: C_13  and  C_15
REMARK                            x       y       z     vdW  Elec       q    Type
REMARK                         _______ _______ _______ _____ _____    ______ ____
ROOT
ATOM      2  O   UNL     1      11.555  10.031   6.953  0.00  0.00    -0.252 OA
ATOM      3  N   UNL     1      13.718   9.172   6.632  0.00  0.00    -0.278 N 
ATOM      4  N   UNL     1      16.314   8.924   5.577  0.00  0.00    -0.295 NA
ATOM      5  N   UNL     1      12.008   7.723   6.774  0.00  0.00    -0.279 N 
ATOM      6  C   UNL     1      14.345   7.867   6.610  0.00  0.00    +0.109 C 
ATOM      7  C   UNL     1      15.373   7.790   5.480  0.00  0.00    +0.109 C 
ATOM      8  C   UNL     1      13.169   6.902   6.475  0.00  0.00    +0.133 C 
ATOM      9  C   UNL     1      14.547  10.359   6.578  0.00  0.00    +0.125 C 
ATOM     10  C   UNL     1      15.598  10.212   5.475  0.00  0.00    +0.104 C 
ATOM     11  C   UNL     1      12.331   9.095   6.809  0.00  0.00    +0.305 C 
ENDROOT
BRANCH   4  12
ATOM     12  C   UNL     1      17.338   8.826   4.537  0.00  0.00    +0.119 C 
BRANCH  12  14
ATOM     14  C   UNL     1      18.670   8.408   5.100  0.00  0.00    -0.033 A 
ATOM     16  C   UNL     1      19.018   8.762   6.403  0.00  0.00    +0.005 A 
ATOM     17  C   UNL     1      19.555   7.666   4.319  0.00  0.00    +0.005 A 
ATOM     20  C   UNL     1      20.252   8.374   6.925  0.00  0.00    +0.000 A 
ATOM     21  C   UNL     1      20.789   7.278   4.841  0.00  0.00    +0.000 A 
ATOM     24  C   UNL     1      21.137   7.632   6.145  0.00  0.00    +0.000 A 
ENDBRANCH  12  14
ENDBRANCH   4  12
BRANCH   5  13
ATOM     13  C   UNL     1      10.677   7.165   6.864  0.00  0.00    +0.144 C 
BRANCH  13  15
ATOM      1  F   UNL     1       7.518   8.539   2.404  0.00  0.00    -0.205 F 
ATOM     15  C   UNL     1       9.834   7.532   5.672  0.00  0.00    -0.030 A 
ATOM     18  C   UNL     1      10.192   7.086   4.399  0.00  0.00    +0.008 A 
ATOM     19  C   UNL     1       8.693   8.317   5.841  0.00  0.00    +0.008 A 
ATOM     22  C   UNL     1       9.410   7.427   3.296  0.00  0.00    +0.038 A 
ATOM     23  C   UNL     1       7.911   8.657   4.737  0.00  0.00    +0.038 A 
ATOM     25  C   UNL     1       8.269   8.212   3.465  0.00  0.00    +0.123 A 
ENDBRANCH  13  15
ENDBRANCH   5  13
TORSDOF 4
ENDMDL
MODEL 7
REMARK VINA RESULT:      -5.8     24.687     29.498
REMARK  Name = 75537080
REMARK  4 active torsions:
REMARK  status: ('A' for Active; 'I' for Inactive)
REMARK    1  A    between atoms: N_4  and  C_12
REMARK    2  A    between atoms: N_5  and  C_13
REMARK    3  A    between atoms: C_12  and  C_14
REMARK    4  A    between atoms: C_13  and  C_15
REMARK                            x       y       z     vdW  Elec       q    Type
REMARK                         _______ _______ _______ _____ _____    ______ ____
ROOT
ATOM      2  O   UNL     1      -3.850 -14.045  14.231  0.00  0.00    -0.252 OA
ATOM      3  N   UNL     1      -4.430 -12.501  15.902  0.00  0.00    -0.278 N 
ATOM      4  N   UNL     1      -6.058 -10.929  17.573  0.00  0.00    -0.295 NA
ATOM      5  N   UNL     1      -2.765 -11.968  14.493  0.00  0.00    -0.279 N 
ATOM      6  C   UNL     1      -3.913 -11.248  16.410  0.00  0.00    +0.109 C 
ATOM      7  C   UNL     1      -5.058 -10.278  16.703  0.00  0.00    +0.109 C 
ATOM      8  C   UNL     1      -2.946 -10.788  15.320  0.00  0.00    +0.133 C 
ATOM      9  C   UNL     1      -5.520 -13.153  16.601  0.00  0.00    +0.125 C 
ATOM     10  C   UNL     1      -6.615 -12.134  16.926  0.00  0.00    +0.104 C 
ATOM     11  C   UNL     1      -3.699 -12.977  14.807  0.00  0.00    +0.305 C 
ENDROOT
BRANCH   4  12
ATOM     12  C   UNL     1      -7.129  -9.990  17.909  0.00  0.00    +0.119 C 
BRANCH  12  14
ATOM     14  C   UNL     1      -8.367 -10.700  18.385  0.00  0.00    -0.033 A 
ATOM     16  C   UNL     1      -9.563 -10.566  17.679  0.00  0.00    +0.005 A 
ATOM     17  C   UNL     1      -8.321 -11.493  19.532  0.00  0.00    +0.005 A 
ATOM     20  C   UNL     1     -10.711 -11.224  18.119  0.00  0.00    +0.000 A 
ATOM     21  C   UNL     1      -9.469 -12.151  19.972  0.00  0.00    +0.000 A 
ATOM     24  C   UNL     1     -10.664 -12.016  19.266  0.00  0.00    +0.000 A 
ENDBRANCH  12  14
ENDBRANCH   4  12
BRANCH   5  13
ATOM     13  C   UNL     1      -1.826 -11.997  13.394  0.00  0.00    +0.144 C 
BRANCH  13  15
ATOM      1  F   UNL     1      -3.502  -8.738   9.114  0.00  0.00    -0.205 F 
ATOM     15  C   UNL     1      -2.274 -11.127  12.251  0.00  0.00    -0.030 A 
ATOM     18  C   UNL     1      -1.535  -9.994  11.905  0.00  0.00    +0.008 A 
ATOM     19  C   UNL     1      -3.427 -11.452  11.536  0.00  0.00    +0.008 A 
ATOM     22  C   UNL     1      -1.951  -9.188  10.846  0.00  0.00    +0.038 A 
ATOM     23  C   UNL     1      -3.841 -10.645  10.477  0.00  0.00    +0.038 A 
ATOM     25  C   UNL     1      -3.104  -9.513  10.131  0.00  0.00    +0.123 A 
ENDBRANCH  13  15
ENDBRANCH   5  13
TORSDOF 4
ENDMDL
MODEL 8
REMARK VINA RESULT:      -5.8     21.730     23.648
REMARK  Name = 75537080
REMARK  4 active torsions:
REMARK  status: ('A' for Active; 'I' for Inactive)
REMARK    1  A    between atoms: N_4  and  C_12
REMARK    2  A    between atoms: N_5  and  C_13
REMARK    3  A    between atoms: C_12  and  C_14
REMARK    4  A    between atoms: C_13  and  C_15
REMARK                            x       y       z     vdW  Elec       q    Type
REMARK                         _______ _______ _______ _____ _____    ______ ____
ROOT
ATOM      2  O   UNL     1      22.334  -9.871  23.472  0.00  0.00    -0.252 OA
ATOM      3  N   UNL     1      21.009  -7.992  22.993  0.00  0.00    -0.278 N 
ATOM      4  N   UNL     1      18.848  -6.197  23.139  0.00  0.00    -0.295 NA
ATOM      5  N   UNL     1      21.908  -9.126  21.275  0.00  0.00    -0.279 N 
ATOM      6  C   UNL     1      20.664  -7.213  21.823  0.00  0.00    +0.109 C 
ATOM      7  C   UNL     1      19.181  -6.839  21.851  0.00  0.00    +0.109 C 
ATOM      8  C   UNL     1      21.078  -8.108  20.656  0.00  0.00    +0.133 C 
ATOM      9  C   UNL     1      20.598  -7.527  24.302  0.00  0.00    +0.125 C 
ATOM     10  C   UNL     1      19.126  -7.108  24.268  0.00  0.00    +0.104 C 
ATOM     11  C   UNL     1      21.819  -9.092  22.682  0.00  0.00    +0.305 C 
ENDROOT
BRANCH   4  12
ATOM     12  C   UNL     1      17.446  -5.782  23.153  0.00  0.00    +0.119 C 
BRANCH  12  14
ATOM     14  C   UNL     1      17.305  -4.291  23.310  0.00  0.00    -0.033 A 
ATOM     16  C   UNL     1      17.992  -3.432  22.452  0.00  0.00    +0.005 A 
ATOM     17  C   UNL     1      16.488  -3.769  24.312  0.00  0.00    +0.005 A 
ATOM     20  C   UNL     1      17.862  -2.051  22.597  0.00  0.00    +0.000 A 
ATOM     21  C   UNL     1      16.358  -2.388  24.457  0.00  0.00    +0.000 A 
ATOM     24  C   UNL     1      17.045  -1.529  23.599  0.00  0.00    +0.000 A 
ENDBRANCH  12  14
ENDBRANCH   4  12
BRANCH   5  13
ATOM     13  C   UNL     1      22.603 -10.126  20.496  0.00  0.00    +0.144 C 
BRANCH  13  15
ATOM      1  F   UNL     1      19.074 -14.000  18.425  0.00  0.00    -0.205 F 
ATOM     15  C   UNL     1      21.660 -11.161  19.943  0.00  0.00    -0.030 A 
ATOM     18  C   UNL     1      21.256 -11.095  18.609  0.00  0.00    +0.008 A 
ATOM     19  C   UNL     1      21.191 -12.187  20.763  0.00  0.00    +0.008 A 
ATOM     22  C   UNL     1      20.382 -12.054  18.097  0.00  0.00    +0.038 A 
ATOM     23  C   UNL     1      20.318 -13.146  20.250  0.00  0.00    +0.038 A 
ATOM     25  C   UNL     1      19.913 -13.080  18.917  0.00  0.00    +0.123 A 
ENDBRANCH  13  15
ENDBRANCH   5  13
TORSDOF 4
ENDMDL
MODEL 9
REMARK VINA RESULT:      -5.7     16.004     18.029
REMARK  Name = 75537080
REMARK  4 active torsions:
REMARK  status: ('A' for Active; 'I' for Inactive)
REMARK    1  A    between atoms: N_4  and  C_12
REMARK    2  A    between atoms: N_5  and  C_13
REMARK    3  A    between atoms: C_12  and  C_14
REMARK    4  A    between atoms: C_13  and  C_15
REMARK                            x       y       z     vdW  Elec       q    Type
REMARK                         _______ _______ _______ _____ _____    ______ ____
ROOT
ATOM      2  O   UNL     1      23.409  -5.965  -0.217  0.00  0.00    -0.252 OA
ATOM      3  N   UNL     1      21.107  -5.908  -0.683  0.00  0.00    -0.278 N 
ATOM      4  N   UNL     1      18.727  -5.415  -2.098  0.00  0.00    -0.295 NA
ATOM      5  N   UNL     1      21.794  -5.292   1.365  0.00  0.00    -0.279 N 
ATOM      6  C   UNL     1      19.884  -5.683   0.058  0.00  0.00    +0.109 C 
ATOM      7  C   UNL     1      18.918  -4.824  -0.758  0.00  0.00    +0.109 C 
ATOM      8  C   UNL     1      20.362  -5.049   1.363  0.00  0.00    +0.133 C 
ATOM      9  C   UNL     1      21.032  -6.347  -2.061  0.00  0.00    +0.125 C 
ATOM     10  C   UNL     1      20.011  -5.499  -2.824  0.00  0.00    +0.104 C 
ATOM     11  C   UNL     1      22.250  -5.754   0.113  0.00  0.00    +0.305 C 
ENDROOT
BRANCH   4  12
ATOM     12  C   UNL     1      17.758  -4.633  -2.866  0.00  0.00    +0.119 C 
BRANCH  12  14
ATOM     14  C   UNL     1      16.523  -5.432  -3.186  0.00  0.00    -0.033 A 
ATOM     16  C   UNL     1      16.591  -6.823  -3.253  0.00  0.00    +0.005 A 
ATOM     17  C   UNL     1      15.311  -4.781  -3.416  0.00  0.00    +0.005 A 
ATOM     20  C   UNL     1      15.446  -7.564  -3.550  0.00  0.00    +0.000 A 
ATOM     21  C   UNL     1      14.167  -5.521  -3.713  0.00  0.00    +0.000 A 
ATOM     24  C   UNL     1      14.234  -6.913  -3.780  0.00  0.00    +0.000 A 
ENDBRANCH  12  14
ENDBRANCH   4  12
BRANCH   5  13
ATOM     13  C   UNL     1      22.629  -4.942   2.492  0.00  0.00    +0.144 C 
BRANCH  13  15
ATOM      1  F   UNL     1      23.881  -9.437   5.651  0.00  0.00    -0.205 F 
ATOM     15  C   UNL     1      22.964  -6.143   3.336  0.00  0.00    -0.030 A 
ATOM     18  C   UNL     1      22.056  -6.598   4.293  0.00  0.00    +0.008 A 
ATOM     19  C   UNL     1      24.181  -6.801   3.162  0.00  0.00    +0.008 A 
ATOM     22  C   UNL     1      22.366  -7.710   5.075  0.00  0.00    +0.038 A 
ATOM     23  C   UNL     1      24.490  -7.914   3.944  0.00  0.00    +0.038 A 
ATOM     25  C   UNL     1      23.583  -8.369   4.900  0.00  0.00    +0.123 A 
ENDBRANCH  13  15
ENDBRANCH   5  13
TORSDOF 4
ENDMDL
MODEL 10
REMARK VINA RESULT:      -5.7     25.235     28.281
REMARK  Name = 75537080
REMARK  4 active torsions:
REMARK  status: ('A' for Active; 'I' for Inactive)
REMARK    1  A    between atoms: N_4  and  C_12
REMARK    2  A    between atoms: N_5  and  C_13
REMARK    3  A    between atoms: C_12  and  C_14
REMARK    4  A    between atoms: C_13  and  C_15
REMARK                            x       y       z     vdW  Elec       q    Type
REMARK                         _______ _______ _______ _____ _____    ______ ____
ROOT
ATOM      2  O   UNL     1      -7.128 -11.510   7.818  0.00  0.00    -0.252 OA
ATOM      3  N   UNL     1      -8.230  -9.635   8.704  0.00  0.00    -0.278 N 
ATOM      4  N   UNL     1     -10.131  -7.575   8.936  0.00  0.00    -0.295 NA
ATOM      5  N   UNL     1      -5.986  -9.607   8.618  0.00  0.00    -0.279 N 
ATOM      6  C   UNL     1      -7.856  -8.408   9.374  0.00  0.00    +0.109 C 
ATOM      7  C   UNL     1      -8.695  -7.240   8.853  0.00  0.00    +0.109 C 
ATOM      8  C   UNL     1      -6.357  -8.291   9.106  0.00  0.00    +0.133 C 
ATOM      9  C   UNL     1      -9.632  -9.987   8.597  0.00  0.00    +0.125 C 
ATOM     10  C   UNL     1     -10.440  -8.773   8.130  0.00  0.00    +0.104 C 
ATOM     11  C   UNL     1      -7.118 -10.395   8.320  0.00  0.00    +0.305 C 
ENDROOT
BRANCH   4  12
ATOM     12  C   UNL     1     -10.944  -6.441   8.497  0.00  0.00    +0.119 C 
BRANCH  12  14
ATOM     14  C   UNL     1     -11.459  -5.637   9.660  0.00  0.00    -0.033 A 
ATOM     16  C   UNL     1     -12.036  -6.283  10.753  0.00  0.00    +0.005 A 
ATOM     17  C   UNL     1     -11.360  -4.246   9.645  0.00  0.00    +0.005 A 
ATOM     20  C   UNL     1     -12.513  -5.538  11.832  0.00  0.00    +0.000 A 
ATOM     21  C   UNL     1     -11.837  -3.501  10.724  0.00  0.00    +0.000 A 
ATOM     24  C   UNL     1     -12.414  -4.147  11.817  0.00  0.00    +0.000 A 
ENDBRANCH  12  14
ENDBRANCH   4  12
BRANCH   5  13
ATOM     13  C   UNL     1      -4.612  -9.965   8.343  0.00  0.00    +0.144 C 
BRANCH  13  15
ATOM      1  F   UNL     1      -1.884 -11.551  13.011  0.00  0.00    -0.205 F 
ATOM     15  C   UNL     1      -3.883 -10.388   9.590  0.00  0.00    -0.030 A 
ATOM     18  C   UNL     1      -3.052  -9.485  10.254  0.00  0.00    +0.008 A 
ATOM     19  C   UNL     1      -4.039 -11.684  10.083  0.00  0.00    +0.008 A 
ATOM     22  C   UNL     1      -2.377  -9.878  11.409  0.00  0.00    +0.038 A 
ATOM     23  C   UNL     1      -3.363 -12.076  11.238  0.00  0.00    +0.038 A 
ATOM     25  C   UNL     1      -2.533 -11.173  11.902  0.00  0.00    +0.123 A 
ENDBRANCH  13  15
ENDBRANCH   5  13
TORSDOF 4
ENDMDL
