MODEL 1
REMARK VINA RESULT:      -6.4      0.000      0.000
REMARK  Name = 75536069
REMARK  7 active torsions:
REMARK  status: ('A' for Active; 'I' for Inactive)
REMARK    1  A    between atoms: O_1  and  C_9
REMARK    2  A    between atoms: O_2  and  C_11
REMARK    3  A    between atoms: O_4  and  C_21
REMARK    4  A    between atoms: O_4  and  C_24
REMARK    5  A    between atoms: N_5  and  C_8
REMARK    6  A    between atoms: C_7  and  C_12
REMARK    7  A    between atoms: C_15  and  C_17
REMARK                            x       y       z     vdW  Elec       q    Type
REMARK                         _______ _______ _______ _____ _____    ______ ____
ROOT
ATOM      7  C   UNL     1     -16.412   5.718  22.116  0.00  0.00    +0.046 C 
ATOM      8  C   UNL     1     -14.877   5.544  22.123  0.00  0.00    +0.112 C 
ATOM      9  C   UNL     1     -14.565   5.198  23.579  0.00  0.00    +0.164 C 
ATOM     10  C   UNL     1     -16.934   4.915  23.336  0.00  0.00    +0.044 C 
ATOM     11  C   UNL     1     -15.705   4.264  23.965  0.00  0.00    +0.145 C 
ENDROOT
BRANCH   7  12
ATOM      6  N   UNL     1     -18.476   3.826  19.556  0.00  0.00    -0.263 NA
ATOM     12  C   UNL     1     -17.046   5.329  20.797  0.00  0.00    -0.024 A 
ATOM     13  C   UNL     1     -16.809   6.068  19.643  0.00  0.00    +0.007 A 
ATOM     14  C   UNL     1     -17.880   4.226  20.701  0.00  0.00    +0.114 A 
ATOM     16  C   UNL     1     -17.405   5.686  18.445  0.00  0.00    +0.020 A 
ATOM     18  C   UNL     1     -18.222   4.568  18.456  0.00  0.00    +0.111 A 
ENDBRANCH   7  12
BRANCH   8   5
ATOM      3  O   UNL     1     -12.137   5.751  21.290  0.00  0.00    -0.270 OA
ATOM      5  N   UNL     1     -14.195   6.738  21.695  0.00  0.00    -0.305 N 
ATOM     15  C   UNL     1     -12.862   6.742  21.309  0.00  0.00    +0.244 C 
ATOM     25  H   UNL     1     -14.729   7.601  21.710  0.00  0.00    +0.149 HD
BRANCH  15  17
ATOM     17  C   UNL     1     -12.299   8.060  20.921  0.00  0.00    +0.040 A 
ATOM     19  C   UNL     1     -11.330   8.138  19.920  0.00  0.00    +0.058 A 
ATOM     20  C   UNL     1     -12.740   9.221  21.556  0.00  0.00    +0.013 A 
ATOM     21  C   UNL     1     -10.802   9.376  19.556  0.00  0.00    +0.121 A 
ATOM     22  C   UNL     1     -12.211  10.459  21.192  0.00  0.00    +0.004 A 
ATOM     23  C   UNL     1     -11.243  10.537  20.192  0.00  0.00    +0.045 A 
BRANCH  21   4
ATOM      4  O   UNL     1      -9.857   9.453  18.580  0.00  0.00    -0.495 OA
ATOM     24  C   UNL     1     -10.193   8.907  17.305  0.00  0.00    +0.277 C 
ENDBRANCH  21   4
ENDBRANCH  15  17
ENDBRANCH   8   5
BRANCH   9   1
ATOM      1  O   UNL     1     -13.310   4.560  23.722  0.00  0.00    -0.387 OA
ATOM     26  H   UNL     1     -13.278   3.831  23.079  0.00  0.00    +0.210 HD
ENDBRANCH   9   1
BRANCH  11   2
ATOM      2  O   UNL     1     -15.526   2.974  23.385  0.00  0.00    -0.389 OA
ATOM     27  H   UNL     1     -14.787   3.036  22.756  0.00  0.00    +0.210 HD
ENDBRANCH  11   2
TORSDOF 6
ENDMDL
MODEL 2
REMARK VINA RESULT:      -6.2     27.313     30.969
REMARK  Name = 75536069
REMARK  7 active torsions:
REMARK  status: ('A' for Active; 'I' for Inactive)
REMARK    1  A    between atoms: O_1  and  C_9
REMARK    2  A    between atoms: O_2  and  C_11
REMARK    3  A    between atoms: O_4  and  C_21
REMARK    4  A    between atoms: O_4  and  C_24
REMARK    5  A    between atoms: N_5  and  C_8
REMARK    6  A    between atoms: C_7  and  C_12
REMARK    7  A    between atoms: C_15  and  C_17
REMARK                            x       y       z     vdW  Elec       q    Type
REMARK                         _______ _______ _______ _____ _____    ______ ____
ROOT
ATOM      7  C   UNL     1      11.238   6.470   6.743  0.00  0.00    +0.046 C 
ATOM      8  C   UNL     1      10.207   6.534   5.595  0.00  0.00    +0.112 C 
ATOM      9  C   UNL     1       8.962   5.885   6.198  0.00  0.00    +0.164 C 
ATOM     10  C   UNL     1      10.409   6.362   8.049  0.00  0.00    +0.044 C 
ATOM     11  C   UNL     1       8.945   6.426   7.622  0.00  0.00    +0.145 C 
ENDROOT
BRANCH   7  12
ATOM      6  N   UNL     1      12.617  10.002   6.884  0.00  0.00    -0.263 NA
ATOM     12  C   UNL     1      12.220   7.623   6.722  0.00  0.00    -0.024 A 
ATOM     13  C   UNL     1      13.580   7.402   6.531  0.00  0.00    +0.007 A 
ATOM     14  C   UNL     1      11.794   8.930   6.894  0.00  0.00    +0.114 A 
ATOM     16  C   UNL     1      14.458   8.480   6.515  0.00  0.00    +0.020 A 
ATOM     18  C   UNL     1      13.931   9.749   6.695  0.00  0.00    +0.111 A 
ENDBRANCH   7  12
BRANCH   8   5
ATOM      3  O   UNL     1       9.364   6.996   2.889  0.00  0.00    -0.270 OA
ATOM      5  N   UNL     1      10.663   5.836   4.420  0.00  0.00    -0.305 N 
ATOM     15  C   UNL     1      10.195   6.129   3.146  0.00  0.00    +0.244 C 
ATOM     25  H   UNL     1      11.334   5.088   4.562  0.00  0.00    +0.149 HD
BRANCH  15  17
ATOM     17  C   UNL     1      10.744   5.300   2.043  0.00  0.00    +0.040 A 
ATOM     19  C   UNL     1      11.841   4.470   2.274  0.00  0.00    +0.058 A 
ATOM     20  C   UNL     1      10.162   5.351   0.777  0.00  0.00    +0.013 A 
ATOM     21  C   UNL     1      12.356   3.691   1.238  0.00  0.00    +0.121 A 
ATOM     22  C   UNL     1      10.678   4.573  -0.259  0.00  0.00    +0.004 A 
ATOM     23  C   UNL     1      11.774   3.742  -0.029  0.00  0.00    +0.045 A 
BRANCH  21   4
ATOM      4  O   UNL     1      13.426   2.881   1.462  0.00  0.00    -0.495 OA
ATOM     24  C   UNL     1      14.673   3.515   1.746  0.00  0.00    +0.277 C 
ENDBRANCH  21   4
ENDBRANCH  15  17
ENDBRANCH   8   5
BRANCH   9   1
ATOM      1  O   UNL     1       7.781   6.240   5.502  0.00  0.00    -0.387 OA
ATOM     26  H   UNL     1       7.067   6.314   6.158  0.00  0.00    +0.210 HD
ENDBRANCH   9   1
BRANCH  11   2
ATOM      2  O   UNL     1       8.523   7.787   7.646  0.00  0.00    -0.389 OA
ATOM     27  H   UNL     1       8.936   8.208   8.419  0.00  0.00    +0.210 HD
ENDBRANCH  11   2
TORSDOF 6
ENDMDL
MODEL 3
REMARK VINA RESULT:      -6.2     21.599     22.746
REMARK  Name = 75536069
REMARK  7 active torsions:
REMARK  status: ('A' for Active; 'I' for Inactive)
REMARK    1  A    between atoms: O_1  and  C_9
REMARK    2  A    between atoms: O_2  and  C_11
REMARK    3  A    between atoms: O_4  and  C_21
REMARK    4  A    between atoms: O_4  and  C_24
REMARK    5  A    between atoms: N_5  and  C_8
REMARK    6  A    between atoms: C_7  and  C_12
REMARK    7  A    between atoms: C_15  and  C_17
REMARK                            x       y       z     vdW  Elec       q    Type
REMARK                         _______ _______ _______ _____ _____    ______ ____
ROOT
ATOM      7  C   UNL     1      -3.663 -12.887  12.394  0.00  0.00    +0.046 C 
ATOM      8  C   UNL     1      -3.120 -13.173  13.812  0.00  0.00    +0.112 C 
ATOM      9  C   UNL     1      -3.079 -14.700  13.876  0.00  0.00    +0.164 C 
ATOM     10  C   UNL     1      -3.343 -14.151  11.556  0.00  0.00    +0.044 C 
ATOM     11  C   UNL     1      -2.583 -15.091  12.489  0.00  0.00    +0.145 C 
ENDROOT
BRANCH   7  12
ATOM      6  N   UNL     1      -1.398  -9.911  11.754  0.00  0.00    -0.263 NA
ATOM     12  C   UNL     1      -3.130 -11.598  11.805  0.00  0.00    -0.024 A 
ATOM     13  C   UNL     1      -3.831 -10.918  10.815  0.00  0.00    +0.007 A 
ATOM     14  C   UNL     1      -1.928 -11.057  12.236  0.00  0.00    +0.114 A 
ATOM     16  C   UNL     1      -3.317  -9.735  10.294  0.00  0.00    +0.020 A 
ATOM     18  C   UNL     1      -2.108  -9.279  10.793  0.00  0.00    +0.111 A 
ENDBRANCH   7  12
BRANCH   8   5
ATOM      3  O   UNL     1      -2.380 -11.191  15.753  0.00  0.00    -0.270 OA
ATOM      5  N   UNL     1      -3.965 -12.615  14.837  0.00  0.00    -0.305 N 
ATOM     15  C   UNL     1      -3.516 -11.656  15.735  0.00  0.00    +0.244 C 
ATOM     25  H   UNL     1      -4.912 -12.972  14.895  0.00  0.00    +0.149 HD
BRANCH  15  17
ATOM     17  C   UNL     1      -4.502 -11.201  16.748  0.00  0.00    +0.040 A 
ATOM     19  C   UNL     1      -5.554 -10.365  16.373  0.00  0.00    +0.058 A 
ATOM     20  C   UNL     1      -4.377 -11.610  18.076  0.00  0.00    +0.013 A 
ATOM     21  C   UNL     1      -6.480  -9.938  17.324  0.00  0.00    +0.121 A 
ATOM     22  C   UNL     1      -5.302 -11.182  19.028  0.00  0.00    +0.004 A 
ATOM     23  C   UNL     1      -6.354 -10.347  18.652  0.00  0.00    +0.045 A 
BRANCH  21   4
ATOM      4  O   UNL     1      -7.506  -9.123  16.958  0.00  0.00    -0.495 OA
ATOM     24  C   UNL     1      -8.820  -9.517  17.349  0.00  0.00    +0.277 C 
ENDBRANCH  21   4
ENDBRANCH  15  17
ENDBRANCH   8   5
BRANCH   9   1
ATOM      1  O   UNL     1      -2.206 -15.172  14.884  0.00  0.00    -0.387 OA
ATOM     26  H   UNL     1      -2.528 -14.827  15.734  0.00  0.00    +0.210 HD
ENDBRANCH   9   1
BRANCH  11   2
ATOM      2  O   UNL     1      -1.187 -14.834  12.356  0.00  0.00    -0.389 OA
ATOM     27  H   UNL     1      -0.853 -15.402  11.641  0.00  0.00    +0.210 HD
ENDBRANCH  11   2
TORSDOF 6
ENDMDL
MODEL 4
REMARK VINA RESULT:      -6.0     20.190     21.407
REMARK  Name = 75536069
REMARK  7 active torsions:
REMARK  status: ('A' for Active; 'I' for Inactive)
REMARK    1  A    between atoms: O_1  and  C_9
REMARK    2  A    between atoms: O_2  and  C_11
REMARK    3  A    between atoms: O_4  and  C_21
REMARK    4  A    between atoms: O_4  and  C_24
REMARK    5  A    between atoms: N_5  and  C_8
REMARK    6  A    between atoms: C_7  and  C_12
REMARK    7  A    between atoms: C_15  and  C_17
REMARK                            x       y       z     vdW  Elec       q    Type
REMARK                         _______ _______ _______ _____ _____    ______ ____
ROOT
ATOM      7  C   UNL     1      -4.329 -11.730  12.522  0.00  0.00    +0.046 C 
ATOM      8  C   UNL     1      -3.624 -11.454  13.869  0.00  0.00    +0.112 C 
ATOM      9  C   UNL     1      -2.814 -12.727  14.114  0.00  0.00    +0.164 C 
ATOM     10  C   UNL     1      -3.471 -12.806  11.808  0.00  0.00    +0.044 C 
ATOM     11  C   UNL     1      -2.281 -13.070  12.728  0.00  0.00    +0.145 C 
ENDROOT
BRANCH   7  12
ATOM      6  N   UNL     1      -5.976  -8.588  11.176  0.00  0.00    -0.263 NA
ATOM     12  C   UNL     1      -4.561 -10.475  11.707  0.00  0.00    -0.024 A 
ATOM     13  C   UNL     1      -3.627 -10.049  10.768  0.00  0.00    +0.007 A 
ATOM     14  C   UNL     1      -5.708  -9.716  11.872  0.00  0.00    +0.114 A 
ATOM     16  C   UNL     1      -3.868  -8.892  10.033  0.00  0.00    +0.020 A 
ATOM     18  C   UNL     1      -5.047  -8.205  10.273  0.00  0.00    +0.111 A 
ENDBRANCH   7  12
BRANCH   8   5
ATOM      3  O   UNL     1      -3.041 -10.343  16.451  0.00  0.00    -0.270 OA
ATOM      5  N   UNL     1      -4.565 -11.203  14.930  0.00  0.00    -0.305 N 
ATOM     15  C   UNL     1      -4.189 -10.660  16.151  0.00  0.00    +0.244 C 
ATOM     25  H   UNL     1      -5.531 -11.464  14.759  0.00  0.00    +0.149 HD
BRANCH  15  17
ATOM     17  C   UNL     1      -5.274 -10.488  17.150  0.00  0.00    +0.040 A 
ATOM     19  C   UNL     1      -6.474  -9.882  16.780  0.00  0.00    +0.058 A 
ATOM     20  C   UNL     1      -5.093 -10.933  18.460  0.00  0.00    +0.013 A 
ATOM     21  C   UNL     1      -7.493  -9.720  17.718  0.00  0.00    +0.121 A 
ATOM     22  C   UNL     1      -6.112 -10.771  19.398  0.00  0.00    +0.004 A 
ATOM     23  C   UNL     1      -7.312 -10.165  19.027  0.00  0.00    +0.045 A 
BRANCH  21   4
ATOM      4  O   UNL     1      -8.664  -9.129  17.356  0.00  0.00    -0.495 OA
ATOM     24  C   UNL     1      -8.944  -9.041  15.960  0.00  0.00    +0.277 C 
ENDBRANCH  21   4
ENDBRANCH  15  17
ENDBRANCH   8   5
BRANCH   9   1
ATOM      1  O   UNL     1      -1.757 -12.522  15.032  0.00  0.00    -0.387 OA
ATOM     26  H   UNL     1      -0.947 -12.371  14.516  0.00  0.00    +0.210 HD
ENDBRANCH   9   1
BRANCH  11   2
ATOM      2  O   UNL     1      -1.218 -12.195  12.360  0.00  0.00    -0.389 OA
ATOM     27  H   UNL     1      -1.535 -11.283  12.481  0.00  0.00    +0.210 HD
ENDBRANCH  11   2
TORSDOF 6
ENDMDL
MODEL 5
REMARK VINA RESULT:      -6.0      6.428      9.986
REMARK  Name = 75536069
REMARK  7 active torsions:
REMARK  status: ('A' for Active; 'I' for Inactive)
REMARK    1  A    between atoms: O_1  and  C_9
REMARK    2  A    between atoms: O_2  and  C_11
REMARK    3  A    between atoms: O_4  and  C_21
REMARK    4  A    between atoms: O_4  and  C_24
REMARK    5  A    between atoms: N_5  and  C_8
REMARK    6  A    between atoms: C_7  and  C_12
REMARK    7  A    between atoms: C_15  and  C_17
REMARK                            x       y       z     vdW  Elec       q    Type
REMARK                         _______ _______ _______ _____ _____    ______ ____
ROOT
ATOM      7  C   UNL     1     -14.584   3.346  30.582  0.00  0.00    +0.046 C 
ATOM      8  C   UNL     1     -15.313   2.334  29.671  0.00  0.00    +0.112 C 
ATOM      9  C   UNL     1     -14.363   1.137  29.635  0.00  0.00    +0.164 C 
ATOM     10  C   UNL     1     -13.620   2.506  31.459  0.00  0.00    +0.044 C 
ATOM     11  C   UNL     1     -13.864   1.049  31.072  0.00  0.00    +0.145 C 
ENDROOT
BRANCH   7  12
ATOM      6  N   UNL     1     -16.812   4.603  33.384  0.00  0.00    -0.263 NA
ATOM     12  C   UNL     1     -15.532   4.227  31.367  0.00  0.00    -0.024 A 
ATOM     13  C   UNL     1     -15.996   5.428  30.840  0.00  0.00    +0.007 A 
ATOM     14  C   UNL     1     -15.966   3.863  32.632  0.00  0.00    +0.114 A 
ATOM     16  C   UNL     1     -16.868   6.216  31.585  0.00  0.00    +0.020 A 
ATOM     18  C   UNL     1     -17.241   5.762  32.839  0.00  0.00    +0.111 A 
ENDBRANCH   7  12
BRANCH   8   5
ATOM      3  O   UNL     1     -17.232   1.383  27.758  0.00  0.00    -0.270 OA
ATOM      5  N   UNL     1     -15.555   2.868  28.355  0.00  0.00    -0.305 N 
ATOM     15  C   UNL     1     -16.508   2.339  27.496  0.00  0.00    +0.244 C 
ATOM     25  H   UNL     1     -14.974   3.647  28.062  0.00  0.00    +0.149 HD
BRANCH  15  17
ATOM     17  C   UNL     1     -16.616   2.987  26.164  0.00  0.00    +0.040 A 
ATOM     19  C   UNL     1     -16.678   2.205  25.010  0.00  0.00    +0.058 A 
ATOM     20  C   UNL     1     -16.658   4.378  26.066  0.00  0.00    +0.013 A 
ATOM     21  C   UNL     1     -16.780   2.813  23.760  0.00  0.00    +0.121 A 
ATOM     22  C   UNL     1     -16.759   4.986  24.815  0.00  0.00    +0.004 A 
ATOM     23  C   UNL     1     -16.821   4.204  23.662  0.00  0.00    +0.045 A 
BRANCH  21   4
ATOM      4  O   UNL     1     -16.840   2.050  22.634  0.00  0.00    -0.495 OA
ATOM     24  C   UNL     1     -18.104   1.476  22.305  0.00  0.00    +0.277 C 
ENDBRANCH  21   4
ENDBRANCH  15  17
ENDBRANCH   8   5
BRANCH   9   1
ATOM      1  O   UNL     1     -15.016  -0.056  29.247  0.00  0.00    -0.387 OA
ATOM     26  H   UNL     1     -15.269   0.041  28.313  0.00  0.00    +0.210 HD
ENDBRANCH   9   1
BRANCH  11   2
ATOM      2  O   UNL     1     -14.869   0.513  31.929  0.00  0.00    -0.389 OA
ATOM     27  H   UNL     1     -14.695  -0.440  32.022  0.00  0.00    +0.210 HD
ENDBRANCH  11   2
TORSDOF 6
ENDMDL
MODEL 6
REMARK VINA RESULT:      -6.0     19.673     20.453
REMARK  Name = 75536069
REMARK  7 active torsions:
REMARK  status: ('A' for Active; 'I' for Inactive)
REMARK    1  A    between atoms: O_1  and  C_9
REMARK    2  A    between atoms: O_2  and  C_11
REMARK    3  A    between atoms: O_4  and  C_21
REMARK    4  A    between atoms: O_4  and  C_24
REMARK    5  A    between atoms: N_5  and  C_8
REMARK    6  A    between atoms: C_7  and  C_12
REMARK    7  A    between atoms: C_15  and  C_17
REMARK                            x       y       z     vdW  Elec       q    Type
REMARK                         _______ _______ _______ _____ _____    ______ ____
ROOT
ATOM      7  C   UNL     1      -5.840 -10.157  16.963  0.00  0.00    +0.046 C 
ATOM      8  C   UNL     1      -5.284 -11.242  16.015  0.00  0.00    +0.112 C 
ATOM      9  C   UNL     1      -4.338 -12.044  16.908  0.00  0.00    +0.164 C 
ATOM     10  C   UNL     1      -5.677 -10.724  18.397  0.00  0.00    +0.044 C 
ATOM     11  C   UNL     1      -5.094 -12.125  18.228  0.00  0.00    +0.145 C 
ENDROOT
BRANCH   7  12
ATOM      6  N   UNL     1      -9.029  -9.611  14.981  0.00  0.00    -0.263 NA
ATOM     12  C   UNL     1      -7.253  -9.735  16.617  0.00  0.00    -0.024 A 
ATOM     13  C   UNL     1      -8.064  -9.106  17.555  0.00  0.00    +0.007 A 
ATOM     14  C   UNL     1      -7.778  -9.963  15.354  0.00  0.00    +0.114 A 
ATOM     16  C   UNL     1      -9.357  -8.730  17.208  0.00  0.00    +0.020 A 
ATOM     18  C   UNL     1      -9.787  -9.002  15.919  0.00  0.00    +0.111 A 
ENDBRANCH   7  12
BRANCH   8   5
ATOM      3  O   UNL     1      -4.933 -12.452  13.435  0.00  0.00    -0.270 OA
ATOM      5  N   UNL     1      -4.600 -10.671  14.883  0.00  0.00    -0.305 N 
ATOM     15  C   UNL     1      -4.480 -11.335  13.669  0.00  0.00    +0.244 C 
ATOM     25  H   UNL     1      -4.179  -9.758  15.013  0.00  0.00    +0.149 HD
BRANCH  15  17
ATOM     17  C   UNL     1      -3.722 -10.622  12.609  0.00  0.00    +0.040 A 
ATOM     19  C   UNL     1      -4.405  -9.961  11.588  0.00  0.00    +0.058 A 
ATOM     20  C   UNL     1      -2.328 -10.613  12.635  0.00  0.00    +0.013 A 
ATOM     21  C   UNL     1      -3.694  -9.292  10.592  0.00  0.00    +0.121 A 
ATOM     22  C   UNL     1      -1.616  -9.945  11.639  0.00  0.00    +0.004 A 
ATOM     23  C   UNL     1      -2.299  -9.284  10.618  0.00  0.00    +0.045 A 
BRANCH  21   4
ATOM      4  O   UNL     1      -4.359  -8.647   9.596  0.00  0.00    -0.495 OA
ATOM     24  C   UNL     1      -5.769  -8.489   9.752  0.00  0.00    +0.277 C 
ENDBRANCH  21   4
ENDBRANCH  15  17
ENDBRANCH   8   5
BRANCH   9   1
ATOM      1  O   UNL     1      -4.074 -13.334  16.390  0.00  0.00    -0.387 OA
ATOM     26  H   UNL     1      -4.510 -13.978  16.974  0.00  0.00    +0.210 HD
ENDBRANCH   9   1
BRANCH  11   2
ATOM      2  O   UNL     1      -6.168 -13.058  18.144  0.00  0.00    -0.389 OA
ATOM     27  H   UNL     1      -6.987 -12.550  18.010  0.00  0.00    +0.210 HD
ENDBRANCH  11   2
TORSDOF 6
ENDMDL
MODEL 7
REMARK VINA RESULT:      -5.9     28.235     31.077
REMARK  Name = 75536069
REMARK  7 active torsions:
REMARK  status: ('A' for Active; 'I' for Inactive)
REMARK    1  A    between atoms: O_1  and  C_9
REMARK    2  A    between atoms: O_2  and  C_11
REMARK    3  A    between atoms: O_4  and  C_21
REMARK    4  A    between atoms: O_4  and  C_24
REMARK    5  A    between atoms: N_5  and  C_8
REMARK    6  A    between atoms: C_7  and  C_12
REMARK    7  A    between atoms: C_15  and  C_17
REMARK                            x       y       z     vdW  Elec       q    Type
REMARK                         _______ _______ _______ _____ _____    ______ ____
ROOT
ATOM      7  C   UNL     1      10.114   6.376   5.184  0.00  0.00    +0.046 C 
ATOM      8  C   UNL     1      11.378   6.255   6.063  0.00  0.00    +0.112 C 
ATOM      9  C   UNL     1      10.816   6.064   7.471  0.00  0.00    +0.164 C 
ATOM     10  C   UNL     1       8.979   5.681   5.978  0.00  0.00    +0.044 C 
ATOM     11  C   UNL     1       9.630   5.135   7.247  0.00  0.00    +0.145 C 
ENDROOT
BRANCH   7  12
ATOM      6  N   UNL     1      11.039   4.036   2.344  0.00  0.00    -0.263 NA
ATOM     12  C   UNL     1      10.313   5.839   3.782  0.00  0.00    -0.024 A 
ATOM     13  C   UNL     1       9.978   6.601   2.668  0.00  0.00    +0.007 A 
ATOM     14  C   UNL     1      10.836   4.573   3.568  0.00  0.00    +0.114 A 
ATOM     16  C   UNL     1      10.173   6.081   1.393  0.00  0.00    +0.020 A 
ATOM     18  C   UNL     1      10.702   4.805   1.287  0.00  0.00    +0.111 A 
ENDBRANCH   7  12
BRANCH   8   5
ATOM      3  O   UNL     1      14.073   6.515   7.019  0.00  0.00    -0.270 OA
ATOM      5  N   UNL     1      12.215   7.424   5.971  0.00  0.00    -0.305 N 
ATOM     15  C   UNL     1      13.512   7.456   6.465  0.00  0.00    +0.244 C 
ATOM     25  H   UNL     1      11.806   8.248   5.545  0.00  0.00    +0.149 HD
BRANCH  15  17
ATOM     17  C   UNL     1      14.234   8.746   6.316  0.00  0.00    +0.040 A 
ATOM     19  C   UNL     1      15.623   8.758   6.197  0.00  0.00    +0.058 A 
ATOM     20  C   UNL     1      13.521   9.945   6.294  0.00  0.00    +0.013 A 
ATOM     21  C   UNL     1      16.301   9.969   6.058  0.00  0.00    +0.121 A 
ATOM     22  C   UNL     1      14.199  11.156   6.155  0.00  0.00    +0.004 A 
ATOM     23  C   UNL     1      15.588  11.168   6.036  0.00  0.00    +0.045 A 
BRANCH  21   4
ATOM      4  O   UNL     1      17.657   9.982   5.942  0.00  0.00    -0.495 OA
ATOM     24  C   UNL     1      18.283   8.774   5.511  0.00  0.00    +0.277 C 
ENDBRANCH  21   4
ENDBRANCH  15  17
ENDBRANCH   8   5
BRANCH   9   1
ATOM      1  O   UNL     1      11.760   5.485   8.353  0.00  0.00    -0.387 OA
ATOM     26  H   UNL     1      12.170   6.208   8.857  0.00  0.00    +0.210 HD
ENDBRANCH   9   1
BRANCH  11   2
ATOM      2  O   UNL     1      10.066   3.801   6.997  0.00  0.00    -0.389 OA
ATOM     27  H   UNL     1      11.022   3.769   7.171  0.00  0.00    +0.210 HD
ENDBRANCH  11   2
TORSDOF 6
ENDMDL
MODEL 8
REMARK VINA RESULT:      -5.8     28.696     32.666
REMARK  Name = 75536069
REMARK  7 active torsions:
REMARK  status: ('A' for Active; 'I' for Inactive)
REMARK    1  A    between atoms: O_1  and  C_9
REMARK    2  A    between atoms: O_2  and  C_11
REMARK    3  A    between atoms: O_4  and  C_21
REMARK    4  A    between atoms: O_4  and  C_24
REMARK    5  A    between atoms: N_5  and  C_8
REMARK    6  A    between atoms: C_7  and  C_12
REMARK    7  A    between atoms: C_15  and  C_17
REMARK                            x       y       z     vdW  Elec       q    Type
REMARK                         _______ _______ _______ _____ _____    ______ ____
ROOT
ATOM      7  C   UNL     1      11.823   7.266   3.307  0.00  0.00    +0.046 C 
ATOM      8  C   UNL     1      12.682   6.068   2.844  0.00  0.00    +0.112 C 
ATOM      9  C   UNL     1      14.094   6.650   2.770  0.00  0.00    +0.164 C 
ATOM     10  C   UNL     1      12.800   8.235   4.021  0.00  0.00    +0.044 C 
ATOM     11  C   UNL     1      14.163   7.547   4.000  0.00  0.00    +0.145 C 
ENDROOT
BRANCH   7  12
ATOM      6  N   UNL     1       9.739   5.498   5.938  0.00  0.00    -0.263 NA
ATOM     12  C   UNL     1      10.632   6.852   4.145  0.00  0.00    -0.024 A 
ATOM     13  C   UNL     1       9.374   7.402   3.924  0.00  0.00    +0.007 A 
ATOM     14  C   UNL     1      10.760   5.912   5.156  0.00  0.00    +0.114 A 
ATOM     16  C   UNL     1       8.298   7.001   4.709  0.00  0.00    +0.020 A 
ATOM     18  C   UNL     1       8.532   6.055   5.694  0.00  0.00    +0.111 A 
ENDBRANCH   7  12
BRANCH   8   5
ATOM      3  O   UNL     1      13.144   3.427   1.818  0.00  0.00    -0.270 OA
ATOM      5  N   UNL     1      12.247   5.550   1.572  0.00  0.00    -0.305 N 
ATOM     15  C   UNL     1      12.519   4.253   1.160  0.00  0.00    +0.244 C 
ATOM     25  H   UNL     1      11.744   6.189   0.964  0.00  0.00    +0.149 HD
BRANCH  15  17
ATOM     17  C   UNL     1      12.024   3.881  -0.190  0.00  0.00    +0.040 A 
ATOM     19  C   UNL     1      10.850   4.449  -0.684  0.00  0.00    +0.058 A 
ATOM     20  C   UNL     1      12.734   2.964  -0.965  0.00  0.00    +0.013 A 
ATOM     21  C   UNL     1      10.385   4.099  -1.952  0.00  0.00    +0.121 A 
ATOM     22  C   UNL     1      12.270   2.614  -2.232  0.00  0.00    +0.004 A 
ATOM     23  C   UNL     1      11.095   3.182  -2.726  0.00  0.00    +0.045 A 
BRANCH  21   4
ATOM      4  O   UNL     1       9.239   4.653  -2.434  0.00  0.00    -0.495 OA
ATOM     24  C   UNL     1       9.004   4.541  -3.837  0.00  0.00    +0.277 C 
ENDBRANCH  21   4
ENDBRANCH  15  17
ENDBRANCH   8   5
BRANCH   9   1
ATOM      1  O   UNL     1      15.091   5.647   2.813  0.00  0.00    -0.387 OA
ATOM     26  H   UNL     1      15.562   5.667   1.962  0.00  0.00    +0.210 HD
ENDBRANCH   9   1
BRANCH  11   2
ATOM      2  O   UNL     1      14.300   6.773   5.189  0.00  0.00    -0.389 OA
ATOM     27  H   UNL     1      13.410   6.492   5.459  0.00  0.00    +0.210 HD
ENDBRANCH  11   2
TORSDOF 6
ENDMDL
MODEL 9
REMARK VINA RESULT:      -5.8     19.731     20.574
REMARK  Name = 75536069
REMARK  7 active torsions:
REMARK  status: ('A' for Active; 'I' for Inactive)
REMARK    1  A    between atoms: O_1  and  C_9
REMARK    2  A    between atoms: O_2  and  C_11
REMARK    3  A    between atoms: O_4  and  C_21
REMARK    4  A    between atoms: O_4  and  C_24
REMARK    5  A    between atoms: N_5  and  C_8
REMARK    6  A    between atoms: C_7  and  C_12
REMARK    7  A    between atoms: C_15  and  C_17
REMARK                            x       y       z     vdW  Elec       q    Type
REMARK                         _______ _______ _______ _____ _____    ______ ____
ROOT
ATOM      7  C   UNL     1      -5.439 -10.075  16.328  0.00  0.00    +0.046 C 
ATOM      8  C   UNL     1      -4.715 -10.998  15.325  0.00  0.00    +0.112 C 
ATOM      9  C   UNL     1      -3.379 -11.289  16.008  0.00  0.00    +0.164 C 
ATOM     10  C   UNL     1      -4.793 -10.360  17.709  0.00  0.00    +0.044 C 
ATOM     11  C   UNL     1      -3.771 -11.469  17.470  0.00  0.00    +0.145 C 
ENDROOT
BRANCH   7  12
ATOM      6  N   UNL     1      -9.131  -9.293  16.728  0.00  0.00    -0.263 NA
ATOM     12  C   UNL     1      -6.945 -10.235  16.300  0.00  0.00    -0.024 A 
ATOM     13  C   UNL     1      -7.532 -11.410  15.844  0.00  0.00    +0.007 A 
ATOM     14  C   UNL     1      -7.781  -9.215  16.727  0.00  0.00    +0.114 A 
ATOM     16  C   UNL     1      -8.919 -11.528  15.830  0.00  0.00    +0.020 A 
ATOM     18  C   UNL     1      -9.665 -10.450  16.279  0.00  0.00    +0.111 A 
ENDBRANCH   7  12
BRANCH   8   5
ATOM      3  O   UNL     1      -5.773 -11.895  12.811  0.00  0.00    -0.270 OA
ATOM      5  N   UNL     1      -4.537 -10.368  14.041  0.00  0.00    -0.305 N 
ATOM     15  C   UNL     1      -5.089 -10.878  12.874  0.00  0.00    +0.244 C 
ATOM     25  H   UNL     1      -3.960  -9.534  14.016  0.00  0.00    +0.149 HD
BRANCH  15  17
ATOM     17  C   UNL     1      -4.790 -10.126  11.629  0.00  0.00    +0.040 A 
ATOM     19  C   UNL     1      -5.829  -9.560  10.889  0.00  0.00    +0.058 A 
ATOM     20  C   UNL     1      -3.471  -9.984  11.200  0.00  0.00    +0.013 A 
ATOM     21  C   UNL     1      -5.548  -8.853   9.720  0.00  0.00    +0.121 A 
ATOM     22  C   UNL     1      -3.190  -9.278  10.030  0.00  0.00    +0.004 A 
ATOM     23  C   UNL     1      -4.228  -8.712   9.291  0.00  0.00    +0.045 A 
BRANCH  21   4
ATOM      4  O   UNL     1      -6.561  -8.301   8.998  0.00  0.00    -0.495 OA
ATOM     24  C   UNL     1      -7.885  -8.471   9.501  0.00  0.00    +0.277 C 
ENDBRANCH  21   4
ENDBRANCH  15  17
ENDBRANCH   8   5
BRANCH   9   1
ATOM      1  O   UNL     1      -2.756 -12.453  15.499  0.00  0.00    -0.387 OA
ATOM     26  H   UNL     1      -2.376 -12.935  16.253  0.00  0.00    +0.210 HD
ENDBRANCH   9   1
BRANCH  11   2
ATOM      2  O   UNL     1      -4.406 -12.728  17.676  0.00  0.00    -0.389 OA
ATOM     27  H   UNL     1      -4.636 -12.788  18.619  0.00  0.00    +0.210 HD
ENDBRANCH  11   2
TORSDOF 6
ENDMDL
MODEL 10
REMARK VINA RESULT:      -5.7     11.253     12.071
REMARK  Name = 75536069
REMARK  7 active torsions:
REMARK  status: ('A' for Active; 'I' for Inactive)
REMARK    1  A    between atoms: O_1  and  C_9
REMARK    2  A    between atoms: O_2  and  C_11
REMARK    3  A    between atoms: O_4  and  C_21
REMARK    4  A    between atoms: O_4  and  C_24
REMARK    5  A    between atoms: N_5  and  C_8
REMARK    6  A    between atoms: C_7  and  C_12
REMARK    7  A    between atoms: C_15  and  C_17
REMARK                            x       y       z     vdW  Elec       q    Type
REMARK                         _______ _______ _______ _____ _____    ______ ____
ROOT
ATOM      7  C   UNL     1     -15.191   3.395  32.930  0.00  0.00    +0.046 C 
ATOM      8  C   UNL     1     -14.145   4.072  32.017  0.00  0.00    +0.112 C 
ATOM      9  C   UNL     1     -13.163   2.943  31.704  0.00  0.00    +0.164 C 
ATOM     10  C   UNL     1     -15.109   1.879  32.616  0.00  0.00    +0.044 C 
ATOM     11  C   UNL     1     -14.073   1.738  31.503  0.00  0.00    +0.145 C 
ENDROOT
BRANCH   7  12
ATOM      6  N   UNL     1     -18.486   5.057  33.811  0.00  0.00    -0.263 NA
ATOM     12  C   UNL     1     -16.577   3.988  32.782  0.00  0.00    -0.024 A 
ATOM     13  C   UNL     1     -17.215   4.020  31.547  0.00  0.00    +0.007 A 
ATOM     14  C   UNL     1     -17.249   4.515  33.874  0.00  0.00    +0.114 A 
ATOM     16  C   UNL     1     -18.489   4.571  31.443  0.00  0.00    +0.020 A 
ATOM     18  C   UNL     1     -19.075   5.071  32.595  0.00  0.00    +0.111 A 
ENDBRANCH   7  12
BRANCH   8   5
ATOM      3  O   UNL     1     -14.854   6.844  31.783  0.00  0.00    -0.270 OA
ATOM      5  N   UNL     1     -13.499   5.183  32.666  0.00  0.00    -0.305 N 
ATOM     15  C   UNL     1     -13.914   6.496  32.491  0.00  0.00    +0.244 C 
ATOM     25  H   UNL     1     -12.696   4.971  33.249  0.00  0.00    +0.149 HD
BRANCH  15  17
ATOM     17  C   UNL     1     -13.126   7.530  33.210  0.00  0.00    +0.040 A 
ATOM     19  C   UNL     1     -12.261   8.365  32.502  0.00  0.00    +0.058 A 
ATOM     20  C   UNL     1     -13.252   7.667  34.592  0.00  0.00    +0.013 A 
ATOM     21  C   UNL     1     -11.521   9.336  33.177  0.00  0.00    +0.121 A 
ATOM     22  C   UNL     1     -12.511   8.637  35.267  0.00  0.00    +0.004 A 
ATOM     23  C   UNL     1     -11.647   9.472  34.560  0.00  0.00    +0.045 A 
BRANCH  21   4
ATOM      4  O   UNL     1     -10.677  10.151  32.487  0.00  0.00    -0.495 OA
ATOM     24  C   UNL     1      -9.422  10.450  33.096  0.00  0.00    +0.277 C 
ENDBRANCH  21   4
ENDBRANCH  15  17
ENDBRANCH   8   5
BRANCH   9   1
ATOM      1  O   UNL     1     -12.396   3.204  30.544  0.00  0.00    -0.387 OA
ATOM     26  H   UNL     1     -12.956   3.006  29.773  0.00  0.00    +0.210 HD
ENDBRANCH   9   1
BRANCH  11   2
ATOM      2  O   UNL     1     -14.741   1.808  30.247  0.00  0.00    -0.389 OA
ATOM     27  H   UNL     1     -15.632   2.164  30.409  0.00  0.00    +0.210 HD
ENDBRANCH  11   2
TORSDOF 6
ENDMDL
