MODEL 1
REMARK VINA RESULT:      -7.6      0.000      0.000
REMARK  Name = 11913027
REMARK  4 active torsions:
REMARK  status: ('A' for Active; 'I' for Inactive)
REMARK    1  A    between atoms: N_4  and  C_10
REMARK    2  A    between atoms: N_5  and  C_11
REMARK    3  A    between atoms: C_14  and  C_15
REMARK    4  A    between atoms: C_18  and  C_27
REMARK                            x       y       z     vdW  Elec       q    Type
REMARK                         _______ _______ _______ _____ _____    ______ ____
ROOT
ATOM      1  O   UNL     1     -15.704   3.060  24.967  0.00  0.00    -0.370 OA
ATOM      2  O   UNL     1     -18.522   4.390  25.111  0.00  0.00    -0.370 OA
ATOM      8  C   UNL     1     -17.209   4.896  24.819  0.00  0.00    +0.171 C 
ATOM      9  C   UNL     1     -16.233   4.164  25.721  0.00  0.00    +0.171 C 
ATOM     10  C   UNL     1     -16.791   4.497  23.423  0.00  0.00    +0.130 C 
ATOM     11  C   UNL     1     -17.089   3.660  26.858  0.00  0.00    +0.130 C 
ATOM     12  C   UNL     1     -16.239   3.098  23.636  0.00  0.00    +0.185 C 
ATOM     13  C   UNL     1     -18.438   3.454  26.195  0.00  0.00    +0.185 C 
ENDROOT
BRANCH  11   5
ATOM      5  N   UNL     1     -17.187   4.670  27.890  0.00  0.00    -0.306 N 
ATOM      6  N   UNL     1     -15.548   3.635  29.213  0.00  0.00    -0.219 NA
ATOM      7  N   UNL     1     -16.619   5.670  29.934  0.00  0.00    -0.223 NA
ATOM     26  C   UNL     1     -16.429   4.658  29.047  0.00  0.00    +0.216 A 
ATOM     27  C   UNL     1     -14.826   3.655  30.352  0.00  0.00    +0.049 A 
ATOM     28  C   UNL     1     -14.942   4.636  31.316  0.00  0.00    +0.043 A 
ATOM     29  C   UNL     1     -15.864   5.628  31.051  0.00  0.00    +0.116 A 
ATOM     31  H   UNL     1     -17.801   5.465  27.751  0.00  0.00    +0.149 HD
BRANCH  27  18
ATOM     18  C   UNL     1     -13.838   2.521  30.555  0.00  0.00    +0.038 C 
ATOM     22  C   UNL     1     -13.683   2.156  32.036  0.00  0.00    +0.010 C 
ATOM     23  C   UNL     1     -14.189   1.169  29.918  0.00  0.00    +0.010 C 
ATOM     24  C   UNL     1     -14.791   1.144  32.291  0.00  0.00    +0.001 C 
ATOM     25  C   UNL     1     -14.929   0.363  30.989  0.00  0.00    +0.001 C 
ENDBRANCH  27  18
ENDBRANCH  11   5
BRANCH  10   4
ATOM      3  O   UNL     1     -16.154   5.019  20.639  0.00  0.00    -0.276 OA
ATOM      4  N   UNL     1     -15.778   5.386  22.907  0.00  0.00    -0.307 N 
ATOM     15  C   UNL     1     -15.547   5.571  21.553  0.00  0.00    +0.216 C 
ATOM     30  H   UNL     1     -15.257   5.946  23.576  0.00  0.00    +0.149 HD
BRANCH  15  14
ATOM     14  C   UNL     1     -14.456   6.566  21.291  0.00  0.00    +0.075 C 
ATOM     16  C   UNL     1     -13.089   5.892  21.426  0.00  0.00    +0.013 C 
ATOM     17  C   UNL     1     -14.640   7.188  19.905  0.00  0.00    +0.013 C 
ATOM     19  C   UNL     1     -11.952   6.846  21.075  0.00  0.00    +0.001 C 
ATOM     20  C   UNL     1     -13.498   8.139  19.557  0.00  0.00    +0.001 C 
ATOM     21  C   UNL     1     -12.139   7.460  19.691  0.00  0.00    +0.000 C 
ENDBRANCH  15  14
ENDBRANCH  10   4
TORSDOF 4
ENDMDL
MODEL 2
REMARK VINA RESULT:      -7.4     27.990     31.063
REMARK  Name = 11913027
REMARK  4 active torsions:
REMARK  status: ('A' for Active; 'I' for Inactive)
REMARK    1  A    between atoms: N_4  and  C_10
REMARK    2  A    between atoms: N_5  and  C_11
REMARK    3  A    between atoms: C_14  and  C_15
REMARK    4  A    between atoms: C_18  and  C_27
REMARK                            x       y       z     vdW  Elec       q    Type
REMARK                         _______ _______ _______ _____ _____    ______ ____
ROOT
ATOM      1  O   UNL     1      13.428   7.875  21.442  0.00  0.00    -0.370 OA
ATOM      2  O   UNL     1      13.024   8.431  18.398  0.00  0.00    -0.370 OA
ATOM      8  C   UNL     1      14.165   8.502  19.268  0.00  0.00    +0.171 C 
ATOM      9  C   UNL     1      13.680   9.019  20.609  0.00  0.00    +0.171 C 
ATOM     10  C   UNL     1      14.679   7.113  19.574  0.00  0.00    +0.130 C 
ATOM     11  C   UNL     1      12.386   9.726  20.284  0.00  0.00    +0.130 C 
ATOM     12  C   UNL     1      13.789   6.684  20.726  0.00  0.00    +0.185 C 
ATOM     13  C   UNL     1      11.875   8.953  19.083  0.00  0.00    +0.185 C 
ENDROOT
BRANCH  11   5
ATOM      5  N   UNL     1      12.650  11.101  19.920  0.00  0.00    -0.306 N 
ATOM      6  N   UNL     1      11.555  11.932  21.821  0.00  0.00    -0.219 NA
ATOM      7  N   UNL     1      12.560  13.426  20.219  0.00  0.00    -0.223 NA
ATOM     26  C   UNL     1      12.243  12.185  20.676  0.00  0.00    +0.216 A 
ATOM     27  C   UNL     1      11.173  13.012  22.534  0.00  0.00    +0.049 A 
ATOM     28  C   UNL     1      11.445  14.312  22.159  0.00  0.00    +0.043 A 
ATOM     29  C   UNL     1      12.147  14.461  20.980  0.00  0.00    +0.116 A 
ATOM     31  H   UNL     1      13.208  11.299  19.096  0.00  0.00    +0.149 HD
BRANCH  27  18
ATOM     18  C   UNL     1      10.404  12.749  23.816  0.00  0.00    +0.038 C 
ATOM     22  C   UNL     1      11.119  11.728  24.710  0.00  0.00    +0.010 C 
ATOM     23  C   UNL     1      10.207  13.938  24.767  0.00  0.00    +0.010 C 
ATOM     24  C   UNL     1      12.081  12.566  25.540  0.00  0.00    +0.001 C 
ATOM     25  C   UNL     1      11.367  13.894  25.765  0.00  0.00    +0.001 C 
ENDBRANCH  27  18
ENDBRANCH  11   5
BRANCH  10   4
ATOM      3  O   UNL     1      16.830   5.422  18.603  0.00  0.00    -0.276 OA
ATOM      4  N   UNL     1      16.067   7.145  19.970  0.00  0.00    -0.307 N 
ATOM     15  C   UNL     1      17.026   6.293  19.446  0.00  0.00    +0.216 C 
ATOM     30  H   UNL     1      16.357   7.873  20.617  0.00  0.00    +0.149 HD
BRANCH  15  14
ATOM     14  C   UNL     1      18.391   6.555  20.010  0.00  0.00    +0.075 C 
ATOM     16  C   UNL     1      18.271   7.207  21.389  0.00  0.00    +0.013 C 
ATOM     17  C   UNL     1      19.187   5.250  20.074  0.00  0.00    +0.013 C 
ATOM     19  C   UNL     1      19.636   7.405  22.040  0.00  0.00    +0.001 C 
ATOM     20  C   UNL     1      20.551   5.453  20.730  0.00  0.00    +0.001 C 
ATOM     21  C   UNL     1      20.424   6.100  22.105  0.00  0.00    +0.000 C 
ENDBRANCH  15  14
ENDBRANCH  10   4
TORSDOF 4
ENDMDL
MODEL 3
REMARK VINA RESULT:      -7.3      2.111      8.862
REMARK  Name = 11913027
REMARK  4 active torsions:
REMARK  status: ('A' for Active; 'I' for Inactive)
REMARK    1  A    between atoms: N_4  and  C_10
REMARK    2  A    between atoms: N_5  and  C_11
REMARK    3  A    between atoms: C_14  and  C_15
REMARK    4  A    between atoms: C_18  and  C_27
REMARK                            x       y       z     vdW  Elec       q    Type
REMARK                         _______ _______ _______ _____ _____    ______ ____
ROOT
ATOM      1  O   UNL     1     -17.108   5.143  25.266  0.00  0.00    -0.370 OA
ATOM      2  O   UNL     1     -16.283   2.286  24.321  0.00  0.00    -0.370 OA
ATOM      8  C   UNL     1     -15.739   3.197  25.291  0.00  0.00    +0.171 C 
ATOM      9  C   UNL     1     -15.891   4.598  24.729  0.00  0.00    +0.171 C 
ATOM     10  C   UNL     1     -16.593   3.207  26.538  0.00  0.00    +0.130 C 
ATOM     11  C   UNL     1     -16.024   4.385  23.239  0.00  0.00    +0.130 C 
ATOM     12  C   UNL     1     -17.687   4.196  26.176  0.00  0.00    +0.185 C 
ATOM     13  C   UNL     1     -16.683   3.021  23.155  0.00  0.00    +0.185 C 
ENDROOT
BRANCH  11   5
ATOM      5  N   UNL     1     -14.715   4.348  22.625  0.00  0.00    -0.306 N 
ATOM      6  N   UNL     1     -14.676   6.672  22.306  0.00  0.00    -0.219 NA
ATOM      7  N   UNL     1     -12.824   5.296  21.611  0.00  0.00    -0.223 NA
ATOM     26  C   UNL     1     -14.052   5.472  22.167  0.00  0.00    +0.216 A 
ATOM     27  C   UNL     1     -14.002   7.747  21.848  0.00  0.00    +0.049 A 
ATOM     28  C   UNL     1     -12.751   7.677  21.268  0.00  0.00    +0.043 A 
ATOM     29  C   UNL     1     -12.205   6.413  21.175  0.00  0.00    +0.116 A 
ATOM     31  H   UNL     1     -14.218   3.466  22.566  0.00  0.00    +0.149 HD
BRANCH  27  18
ATOM     18  C   UNL     1     -14.684   9.095  21.994  0.00  0.00    +0.038 C 
ATOM     22  C   UNL     1     -15.300   9.274  23.387  0.00  0.00    +0.010 C 
ATOM     23  C   UNL     1     -13.797  10.342  21.864  0.00  0.00    +0.010 C 
ATOM     24  C   UNL     1     -14.164   9.834  24.231  0.00  0.00    +0.001 C 
ATOM     25  C   UNL     1     -13.352  10.709  23.282  0.00  0.00    +0.001 C 
ENDBRANCH  27  18
ENDBRANCH  11   5
BRANCH  10   4
ATOM      3  O   UNL     1     -15.703   1.619  28.800  0.00  0.00    -0.276 OA
ATOM      4  N   UNL     1     -15.839   3.658  27.683  0.00  0.00    -0.307 N 
ATOM     15  C   UNL     1     -15.457   2.820  28.719  0.00  0.00    +0.216 C 
ATOM     30  H   UNL     1     -15.524   4.624  27.690  0.00  0.00    +0.149 HD
BRANCH  15  14
ATOM     14  C   UNL     1     -14.663   3.537  29.770  0.00  0.00    +0.075 C 
ATOM     16  C   UNL     1     -15.599   4.338  30.677  0.00  0.00    +0.013 C 
ATOM     17  C   UNL     1     -13.830   2.533  30.570  0.00  0.00    +0.013 C 
ATOM     19  C   UNL     1     -14.841   5.008  31.819  0.00  0.00    +0.001 C 
ATOM     20  C   UNL     1     -13.077   3.208  31.713  0.00  0.00    +0.001 C 
ATOM     21  C   UNL     1     -14.015   4.002  32.615  0.00  0.00    +0.000 C 
ENDBRANCH  15  14
ENDBRANCH  10   4
TORSDOF 4
ENDMDL
MODEL 4
REMARK VINA RESULT:      -6.9     22.917     24.904
REMARK  Name = 11913027
REMARK  4 active torsions:
REMARK  status: ('A' for Active; 'I' for Inactive)
REMARK    1  A    between atoms: N_4  and  C_10
REMARK    2  A    between atoms: N_5  and  C_11
REMARK    3  A    between atoms: C_14  and  C_15
REMARK    4  A    between atoms: C_18  and  C_27
REMARK                            x       y       z     vdW  Elec       q    Type
REMARK                         _______ _______ _______ _____ _____    ______ ____
ROOT
ATOM      1  O   UNL     1      -5.902 -11.764  10.105  0.00  0.00    -0.370 OA
ATOM      2  O   UNL     1      -4.479  -8.996   9.884  0.00  0.00    -0.370 OA
ATOM      8  C   UNL     1      -4.179 -10.301   9.362  0.00  0.00    +0.171 C 
ATOM      9  C   UNL     1      -4.575 -11.312  10.422  0.00  0.00    +0.171 C 
ATOM     10  C   UNL     1      -5.083 -10.620   8.194  0.00  0.00    +0.130 C 
ATOM     11  C   UNL     1      -4.584 -10.516  11.705  0.00  0.00    +0.130 C 
ATOM     12  C   UNL     1      -6.330 -11.147   8.881  0.00  0.00    +0.185 C 
ATOM     13  C   UNL     1      -4.955  -9.123  11.232  0.00  0.00    +0.185 C 
ENDROOT
BRANCH  11   5
ATOM      5  N   UNL     1      -3.262 -10.510  12.294  0.00  0.00    -0.306 N 
ATOM      6  N   UNL     1      -4.112 -10.642  14.477  0.00  0.00    -0.219 NA
ATOM      7  N   UNL     1      -1.737 -10.561  14.075  0.00  0.00    -0.223 NA
ATOM     26  C   UNL     1      -3.030 -10.573  13.656  0.00  0.00    +0.216 A 
ATOM     27  C   UNL     1      -3.850 -10.702  15.799  0.00  0.00    +0.049 A 
ATOM     28  C   UNL     1      -2.575 -10.697  16.328  0.00  0.00    +0.043 A 
ATOM     29  C   UNL     1      -1.547 -10.623  15.410  0.00  0.00    +0.116 A 
ATOM     31  H   UNL     1      -2.448 -10.512  11.689  0.00  0.00    +0.149 HD
BRANCH  27  18
ATOM     18  C   UNL     1      -5.046 -10.780  16.731  0.00  0.00    +0.038 C 
ATOM     22  C   UNL     1      -5.993 -11.924  16.348  0.00  0.00    +0.010 C 
ATOM     23  C   UNL     1      -4.758 -11.071  18.210  0.00  0.00    +0.010 C 
ATOM     24  C   UNL     1      -5.431 -13.135  17.080  0.00  0.00    +0.001 C 
ATOM     25  C   UNL     1      -4.859 -12.588  18.383  0.00  0.00    +0.001 C 
ENDBRANCH  27  18
ENDBRANCH  11   5
BRANCH  10   4
ATOM      3  O   UNL     1      -5.587 -11.039   5.365  0.00  0.00    -0.276 OA
ATOM      4  N   UNL     1      -4.495 -11.622   7.337  0.00  0.00    -0.307 N 
ATOM     15  C   UNL     1      -4.799 -11.744   5.991  0.00  0.00    +0.216 C 
ATOM     30  H   UNL     1      -3.777 -12.221   7.735  0.00  0.00    +0.149 HD
BRANCH  15  14
ATOM     14  C   UNL     1      -4.030 -12.849   5.330  0.00  0.00    +0.075 C 
ATOM     16  C   UNL     1      -3.092 -12.270   4.268  0.00  0.00    +0.013 C 
ATOM     17  C   UNL     1      -3.260 -13.650   6.382  0.00  0.00    +0.013 C 
ATOM     19  C   UNL     1      -2.221 -13.352   3.636  0.00  0.00    +0.001 C 
ATOM     20  C   UNL     1      -2.388 -14.728   5.743  0.00  0.00    +0.001 C 
ATOM     21  C   UNL     1      -1.453 -14.145   4.689  0.00  0.00    +0.000 C 
ENDBRANCH  15  14
ENDBRANCH  10   4
TORSDOF 4
ENDMDL
MODEL 5
REMARK VINA RESULT:      -6.7     15.973     17.574
REMARK  Name = 11913027
REMARK  4 active torsions:
REMARK  status: ('A' for Active; 'I' for Inactive)
REMARK    1  A    between atoms: N_4  and  C_10
REMARK    2  A    between atoms: N_5  and  C_11
REMARK    3  A    between atoms: C_14  and  C_15
REMARK    4  A    between atoms: C_18  and  C_27
REMARK                            x       y       z     vdW  Elec       q    Type
REMARK                         _______ _______ _______ _____ _____    ______ ____
ROOT
ATOM      1  O   UNL     1     -12.602  -8.087  14.849  0.00  0.00    -0.370 OA
ATOM      2  O   UNL     1     -10.962  -5.942  16.411  0.00  0.00    -0.370 OA
ATOM      8  C   UNL     1     -11.107  -6.244  15.014  0.00  0.00    +0.171 C 
ATOM      9  C   UNL     1     -11.205  -7.752  14.886  0.00  0.00    +0.171 C 
ATOM     10  C   UNL     1     -12.440  -5.745  14.504  0.00  0.00    +0.130 C 
ATOM     11  C   UNL     1     -10.575  -8.271  16.157  0.00  0.00    +0.130 C 
ATOM     12  C   UNL     1     -13.377  -6.879  14.879  0.00  0.00    +0.185 C 
ATOM     13  C   UNL     1     -10.875  -7.167  17.153  0.00  0.00    +0.185 C 
ENDROOT
BRANCH  11   5
ATOM      5  N   UNL     1      -9.146  -8.411  15.980  0.00  0.00    -0.306 N 
ATOM      6  N   UNL     1      -8.969  -9.963  17.730  0.00  0.00    -0.219 NA
ATOM      7  N   UNL     1      -7.025  -9.281  16.479  0.00  0.00    -0.223 NA
ATOM     26  C   UNL     1      -8.356  -9.243  16.753  0.00  0.00    +0.216 A 
ATOM     27  C   UNL     1      -8.169 -10.764  18.465  0.00  0.00    +0.049 A 
ATOM     28  C   UNL     1      -6.807 -10.876  18.267  0.00  0.00    +0.043 A 
ATOM     29  C   UNL     1      -6.285 -10.103  17.251  0.00  0.00    +0.116 A 
ATOM     31  H   UNL     1      -8.688  -7.919  15.220  0.00  0.00    +0.149 HD
BRANCH  27  18
ATOM     18  C   UNL     1      -8.836 -11.576  19.561  0.00  0.00    +0.038 C 
ATOM     22  C   UNL     1     -10.256 -12.002  19.171  0.00  0.00    +0.010 C 
ATOM     23  C   UNL     1      -8.181 -12.914  19.932  0.00  0.00    +0.010 C 
ATOM     24  C   UNL     1     -10.062 -13.309  18.416  0.00  0.00    +0.001 C 
ATOM     25  C   UNL     1      -8.870 -13.986  19.084  0.00  0.00    +0.001 C 
ENDBRANCH  27  18
ENDBRANCH  11   5
BRANCH  10   4
ATOM      3  O   UNL     1     -13.304  -3.392  13.039  0.00  0.00    -0.276 OA
ATOM      4  N   UNL     1     -12.410  -5.542  13.076  0.00  0.00    -0.307 N 
ATOM     15  C   UNL     1     -12.846  -4.377  12.465  0.00  0.00    +0.216 C 
ATOM     30  H   UNL     1     -11.988  -6.268  12.504  0.00  0.00    +0.149 HD
BRANCH  15  14
ATOM     14  C   UNL     1     -12.682  -4.418  10.975  0.00  0.00    +0.075 C 
ATOM     16  C   UNL     1     -11.629  -3.397  10.537  0.00  0.00    +0.013 C 
ATOM     17  C   UNL     1     -12.309  -5.834  10.530  0.00  0.00    +0.013 C 
ATOM     19  C   UNL     1     -11.362  -3.471   9.036  0.00  0.00    +0.001 C 
ATOM     20  C   UNL     1     -12.039  -5.901   9.029  0.00  0.00    +0.001 C 
ATOM     21  C   UNL     1     -10.987  -4.884   8.599  0.00  0.00    +0.000 C 
ENDBRANCH  15  14
ENDBRANCH  10   4
TORSDOF 4
ENDMDL
MODEL 6
REMARK VINA RESULT:      -6.7     42.599     44.673
REMARK  Name = 11913027
REMARK  4 active torsions:
REMARK  status: ('A' for Active; 'I' for Inactive)
REMARK    1  A    between atoms: N_4  and  C_10
REMARK    2  A    between atoms: N_5  and  C_11
REMARK    3  A    between atoms: C_14  and  C_15
REMARK    4  A    between atoms: C_18  and  C_27
REMARK                            x       y       z     vdW  Elec       q    Type
REMARK                         _______ _______ _______ _____ _____    ______ ____
ROOT
ATOM      1  O   UNL     1      19.452  -8.701   2.158  0.00  0.00    -0.370 OA
ATOM      2  O   UNL     1      21.545  -9.664   0.054  0.00  0.00    -0.370 OA
ATOM      8  C   UNL     1      20.315  -8.927  -0.047  0.00  0.00    +0.171 C 
ATOM      9  C   UNL     1      19.355  -9.509   0.973  0.00  0.00    +0.171 C 
ATOM     10  C   UNL     1      20.518  -7.501   0.411  0.00  0.00    +0.130 C 
ATOM     11  C   UNL     1      19.895 -10.895   1.238  0.00  0.00    +0.130 C 
ATOM     12  C   UNL     1      20.361  -7.617   1.916  0.00  0.00    +0.185 C 
ATOM     13  C   UNL     1      21.385 -10.722   1.010  0.00  0.00    +0.185 C 
ENDROOT
BRANCH  11   5
ATOM      5  N   UNL     1      19.346 -11.831   0.280  0.00  0.00    -0.306 N 
ATOM      6  N   UNL     1      17.404 -12.166   1.553  0.00  0.00    -0.219 NA
ATOM      7  N   UNL     1      17.724 -13.312  -0.542  0.00  0.00    -0.223 NA
ATOM     26  C   UNL     1      18.122 -12.455   0.435  0.00  0.00    +0.216 A 
ATOM     27  C   UNL     1      16.215 -12.793   1.672  0.00  0.00    +0.049 A 
ATOM     28  C   UNL     1      15.719 -13.679   0.738  0.00  0.00    +0.043 A 
ATOM     29  C   UNL     1      16.525 -13.904  -0.360  0.00  0.00    +0.116 A 
ATOM     31  H   UNL     1      19.848 -12.012  -0.582  0.00  0.00    +0.149 HD
BRANCH  27  18
ATOM     18  C   UNL     1      15.400 -12.482   2.915  0.00  0.00    +0.038 C 
ATOM     22  C   UNL     1      14.844 -13.754   3.565  0.00  0.00    +0.010 C 
ATOM     23  C   UNL     1      16.138 -11.810   4.082  0.00  0.00    +0.010 C 
ATOM     24  C   UNL     1      15.958 -14.216   4.495  0.00  0.00    +0.001 C 
ATOM     25  C   UNL     1      16.617 -12.938   5.000  0.00  0.00    +0.001 C 
ENDBRANCH  27  18
ENDBRANCH  11   5
BRANCH  10   4
ATOM      3  O   UNL     1      20.900  -4.798  -0.580  0.00  0.00    -0.276 OA
ATOM      4  N   UNL     1      19.520  -6.624  -0.153  0.00  0.00    -0.307 N 
ATOM     15  C   UNL     1      19.800  -5.344  -0.602  0.00  0.00    +0.216 C 
ATOM     30  H   UNL     1      18.583  -6.996  -0.281  0.00  0.00    +0.149 HD
BRANCH  15  14
ATOM     14  C   UNL     1      18.590  -4.658  -1.164  0.00  0.00    +0.075 C 
ATOM     16  C   UNL     1      18.959  -3.252  -1.641  0.00  0.00    +0.013 C 
ATOM     17  C   UNL     1      17.995  -5.496  -2.298  0.00  0.00    +0.013 C 
ATOM     19  C   UNL     1      17.777  -2.553  -2.306  0.00  0.00    +0.001 C 
ATOM     20  C   UNL     1      16.816  -4.791  -2.962  0.00  0.00    +0.001 C 
ATOM     21  C   UNL     1      17.190  -3.392  -3.438  0.00  0.00    +0.000 C 
ENDBRANCH  15  14
ENDBRANCH  10   4
TORSDOF 4
ENDMDL
MODEL 7
REMARK VINA RESULT:      -6.6     32.721     34.785
REMARK  Name = 11913027
REMARK  4 active torsions:
REMARK  status: ('A' for Active; 'I' for Inactive)
REMARK    1  A    between atoms: N_4  and  C_10
REMARK    2  A    between atoms: N_5  and  C_11
REMARK    3  A    between atoms: C_14  and  C_15
REMARK    4  A    between atoms: C_18  and  C_27
REMARK                            x       y       z     vdW  Elec       q    Type
REMARK                         _______ _______ _______ _____ _____    ______ ____
ROOT
ATOM      1  O   UNL     1      16.243  -2.404  30.154  0.00  0.00    -0.370 OA
ATOM      2  O   UNL     1      18.896  -3.133  31.625  0.00  0.00    -0.370 OA
ATOM      8  C   UNL     1      18.238  -1.887  31.342  0.00  0.00    +0.171 C 
ATOM      9  C   UNL     1      17.613  -2.010  29.965  0.00  0.00    +0.171 C 
ATOM     10  C   UNL     1      17.058  -1.694  32.266  0.00  0.00    +0.130 C 
ATOM     11  C   UNL     1      18.392  -3.122  29.304  0.00  0.00    +0.130 C 
ATOM     12  C   UNL     1      15.961  -2.470  31.559  0.00  0.00    +0.185 C 
ATOM     13  C   UNL     1      18.795  -3.992  30.480  0.00  0.00    +0.185 C 
ENDROOT
BRANCH  11   5
ATOM      5  N   UNL     1      19.567  -2.583  28.653  0.00  0.00    -0.306 N 
ATOM      6  N   UNL     1      18.400  -2.143  26.666  0.00  0.00    -0.219 NA
ATOM      7  N   UNL     1      20.745  -1.622  26.867  0.00  0.00    -0.223 NA
ATOM     26  C   UNL     1      19.571  -2.102  27.357  0.00  0.00    +0.216 A 
ATOM     27  C   UNL     1      18.440  -1.666  25.405  0.00  0.00    +0.049 A 
ATOM     28  C   UNL     1      19.579  -1.156  24.814  0.00  0.00    +0.043 A 
ATOM     29  C   UNL     1      20.713  -1.160  25.599  0.00  0.00    +0.116 A 
ATOM     31  H   UNL     1      20.431  -2.499  29.177  0.00  0.00    +0.149 HD
BRANCH  27  18
ATOM     18  C   UNL     1      17.142  -1.704  24.618  0.00  0.00    +0.038 C 
ATOM     22  C   UNL     1      17.352  -1.309  23.152  0.00  0.00    +0.010 C 
ATOM     23  C   UNL     1      16.442  -3.065  24.495  0.00  0.00    +0.010 C 
ATOM     24  C   UNL     1      17.728  -2.613  22.462  0.00  0.00    +0.001 C 
ATOM     25  C   UNL     1      16.941  -3.695  23.193  0.00  0.00    +0.001 C 
ENDBRANCH  27  18
ENDBRANCH  11   5
BRANCH  10   4
ATOM      3  O   UNL     1      17.307  -0.018  34.624  0.00  0.00    -0.276 OA
ATOM      4  N   UNL     1      16.715  -0.298  32.390  0.00  0.00    -0.307 N 
ATOM     15  C   UNL     1      16.871   0.422  33.564  0.00  0.00    +0.216 C 
ATOM     30  H   UNL     1      16.404   0.188  31.553  0.00  0.00    +0.149 HD
BRANCH  15  14
ATOM     14  C   UNL     1      16.461   1.857  33.412  0.00  0.00    +0.075 C 
ATOM     16  C   UNL     1      17.056   2.693  34.547  0.00  0.00    +0.013 C 
ATOM     17  C   UNL     1      16.897   2.382  32.042  0.00  0.00    +0.013 C 
ATOM     19  C   UNL     1      16.742   4.177  34.379  0.00  0.00    +0.001 C 
ATOM     20  C   UNL     1      16.584   3.867  31.881  0.00  0.00    +0.001 C 
ATOM     21  C   UNL     1      17.182   4.695  33.013  0.00  0.00    +0.000 C 
ENDBRANCH  15  14
ENDBRANCH  10   4
TORSDOF 4
ENDMDL
MODEL 8
REMARK VINA RESULT:      -6.6     21.191     24.931
REMARK  Name = 11913027
REMARK  4 active torsions:
REMARK  status: ('A' for Active; 'I' for Inactive)
REMARK    1  A    between atoms: N_4  and  C_10
REMARK    2  A    between atoms: N_5  and  C_11
REMARK    3  A    between atoms: C_14  and  C_15
REMARK    4  A    between atoms: C_18  and  C_27
REMARK                            x       y       z     vdW  Elec       q    Type
REMARK                         _______ _______ _______ _____ _____    ______ ____
ROOT
ATOM      1  O   UNL     1      -4.927 -11.629  10.352  0.00  0.00    -0.370 OA
ATOM      2  O   UNL     1      -3.846  -8.703  10.293  0.00  0.00    -0.370 OA
ATOM      8  C   UNL     1      -4.556  -9.470  11.280  0.00  0.00    +0.171 C 
ATOM      9  C   UNL     1      -5.549 -10.347  10.541  0.00  0.00    +0.171 C 
ATOM     10  C   UNL     1      -3.625 -10.454  11.950  0.00  0.00    +0.130 C 
ATOM     11  C   UNL     1      -5.735  -9.654   9.212  0.00  0.00    +0.130 C 
ATOM     12  C   UNL     1      -3.639 -11.625  10.984  0.00  0.00    +0.185 C 
ATOM     13  C   UNL     1      -4.392  -8.981   8.996  0.00  0.00    +0.185 C 
ENDROOT
BRANCH  11   5
ATOM      5  N   UNL     1      -6.782  -8.661   9.313  0.00  0.00    -0.306 N 
ATOM      6  N   UNL     1      -7.108  -8.605   6.991  0.00  0.00    -0.219 NA
ATOM      7  N   UNL     1      -8.423  -7.219   8.459  0.00  0.00    -0.223 NA
ATOM     26  C   UNL     1      -7.457  -8.146   8.222  0.00  0.00    +0.216 A 
ATOM     27  C   UNL     1      -7.786  -8.081   5.949  0.00  0.00    +0.049 A 
ATOM     28  C   UNL     1      -8.783  -7.136   6.081  0.00  0.00    +0.043 A 
ATOM     29  C   UNL     1      -9.061  -6.737   7.372  0.00  0.00    +0.116 A 
ATOM     31  H   UNL     1      -7.087  -8.352  10.230  0.00  0.00    +0.149 HD
BRANCH  27  18
ATOM     18  C   UNL     1      -7.409  -8.582   4.566  0.00  0.00    +0.038 C 
ATOM     22  C   UNL     1      -7.332 -10.113   4.515  0.00  0.00    +0.010 C 
ATOM     23  C   UNL     1      -8.380  -8.263   3.421  0.00  0.00    +0.010 C 
ATOM     24  C   UNL     1      -8.758 -10.549   4.209  0.00  0.00    +0.001 C 
ATOM     25  C   UNL     1      -9.327  -9.460   3.307  0.00  0.00    +0.001 C 
ENDBRANCH  27  18
ENDBRANCH  11   5
BRANCH  10   4
ATOM      3  O   UNL     1      -2.209 -10.351  14.483  0.00  0.00    -0.276 OA
ATOM      4  N   UNL     1      -4.121 -10.842  13.249  0.00  0.00    -0.307 N 
ATOM     15  C   UNL     1      -3.366 -10.755  14.408  0.00  0.00    +0.216 C 
ATOM     30  H   UNL     1      -5.093 -11.131  13.315  0.00  0.00    +0.149 HD
BRANCH  15  14
ATOM     14  C   UNL     1      -4.130 -11.198  15.620  0.00  0.00    +0.075 C 
ATOM     16  C   UNL     1      -3.241 -11.099  16.862  0.00  0.00    +0.013 C 
ATOM     17  C   UNL     1      -5.400 -10.358  15.772  0.00  0.00    +0.013 C 
ATOM     19  C   UNL     1      -4.007 -11.451  18.134  0.00  0.00    +0.001 C 
ATOM     20  C   UNL     1      -6.161 -10.712  17.048  0.00  0.00    +0.001 C 
ATOM     21  C   UNL     1      -5.271 -10.609  18.282  0.00  0.00    +0.000 C 
ENDBRANCH  15  14
ENDBRANCH  10   4
TORSDOF 4
ENDMDL
MODEL 9
REMARK VINA RESULT:      -6.6     21.825     23.769
REMARK  Name = 11913027
REMARK  4 active torsions:
REMARK  status: ('A' for Active; 'I' for Inactive)
REMARK    1  A    between atoms: N_4  and  C_10
REMARK    2  A    between atoms: N_5  and  C_11
REMARK    3  A    between atoms: C_14  and  C_15
REMARK    4  A    between atoms: C_18  and  C_27
REMARK                            x       y       z     vdW  Elec       q    Type
REMARK                         _______ _______ _______ _____ _____    ______ ____
ROOT
ATOM      1  O   UNL     1      -6.792 -11.346  10.506  0.00  0.00    -0.370 OA
ATOM      2  O   UNL     1      -5.702  -8.483  11.096  0.00  0.00    -0.370 OA
ATOM      8  C   UNL     1      -5.403  -9.461  10.087  0.00  0.00    +0.171 C 
ATOM      9  C   UNL     1      -5.474 -10.825  10.745  0.00  0.00    +0.171 C 
ATOM     10  C   UNL     1      -6.501  -9.496   9.048  0.00  0.00    +0.130 C 
ATOM     11  C   UNL     1      -5.283 -10.535  12.215  0.00  0.00    +0.130 C 
ATOM     12  C   UNL     1      -7.522 -10.421   9.686  0.00  0.00    +0.185 C 
ATOM     13  C   UNL     1      -5.869  -9.143  12.359  0.00  0.00    +0.185 C 
ENDROOT
BRANCH  11   5
ATOM      5  N   UNL     1      -3.873 -10.522  12.538  0.00  0.00    -0.306 N 
ATOM      6  N   UNL     1      -4.286 -10.649  14.844  0.00  0.00    -0.219 NA
ATOM      7  N   UNL     1      -2.033 -10.560  13.993  0.00  0.00    -0.223 NA
ATOM     26  C   UNL     1      -3.383 -10.578  13.830  0.00  0.00    +0.216 A 
ATOM     27  C   UNL     1      -3.774 -10.702  16.091  0.00  0.00    +0.049 A 
ATOM     28  C   UNL     1      -2.421 -10.690  16.364  0.00  0.00    +0.043 A 
ATOM     29  C   UNL     1      -1.589 -10.616  15.266  0.00  0.00    +0.116 A 
ATOM     31  H   UNL     1      -3.191 -10.524  11.788  0.00  0.00    +0.149 HD
BRANCH  27  18
ATOM     18  C   UNL     1      -4.768 -10.781  17.236  0.00  0.00    +0.038 C 
ATOM     22  C   UNL     1      -6.008 -11.600  16.859  0.00  0.00    +0.010 C 
ATOM     23  C   UNL     1      -4.295 -11.474  18.522  0.00  0.00    +0.010 C 
ATOM     24  C   UNL     1      -5.623 -13.036  17.185  0.00  0.00    +0.001 C 
ATOM     25  C   UNL     1      -4.715 -12.941  18.405  0.00  0.00    +0.001 C 
ENDBRANCH  27  18
ENDBRANCH  11   5
BRANCH  10   4
ATOM      3  O   UNL     1      -7.692  -9.178   6.419  0.00  0.00    -0.276 OA
ATOM      4  N   UNL     1      -6.020 -10.032   7.797  0.00  0.00    -0.307 N 
ATOM     15  C   UNL     1      -6.660  -9.824   6.586  0.00  0.00    +0.216 C 
ATOM     30  H   UNL     1      -5.135 -10.530   7.807  0.00  0.00    +0.149 HD
BRANCH  15  14
ATOM     14  C   UNL     1      -5.937 -10.469   5.441  0.00  0.00    +0.075 C 
ATOM     16  C   UNL     1      -4.851 -11.408   5.971  0.00  0.00    +0.013 C 
ATOM     17  C   UNL     1      -6.933 -11.212   4.548  0.00  0.00    +0.013 C 
ATOM     19  C   UNL     1      -4.153 -12.157   4.840  0.00  0.00    +0.001 C 
ATOM     20  C   UNL     1      -6.229 -11.963   3.421  0.00  0.00    +0.001 C 
ATOM     21  C   UNL     1      -5.150 -12.899   3.955  0.00  0.00    +0.000 C 
ENDBRANCH  15  14
ENDBRANCH  10   4
TORSDOF 4
ENDMDL
MODEL 10
REMARK VINA RESULT:      -6.5     21.963     25.236
REMARK  Name = 11913027
REMARK  4 active torsions:
REMARK  status: ('A' for Active; 'I' for Inactive)
REMARK    1  A    between atoms: N_4  and  C_10
REMARK    2  A    between atoms: N_5  and  C_11
REMARK    3  A    between atoms: C_14  and  C_15
REMARK    4  A    between atoms: C_18  and  C_27
REMARK                            x       y       z     vdW  Elec       q    Type
REMARK                         _______ _______ _______ _____ _____    ______ ____
ROOT
ATOM      1  O   UNL     1      -2.790 -12.962  12.923  0.00  0.00    -0.370 OA
ATOM      2  O   UNL     1      -1.875  -9.997  13.241  0.00  0.00    -0.370 OA
ATOM      8  C   UNL     1      -2.881 -10.791  13.891  0.00  0.00    +0.171 C 
ATOM      9  C   UNL     1      -3.482 -11.706  12.840  0.00  0.00    +0.171 C 
ATOM     10  C   UNL     1      -2.244 -11.738  14.882  0.00  0.00    +0.130 C 
ATOM     11  C   UNL     1      -3.168 -11.020  11.532  0.00  0.00    +0.130 C 
ATOM     12  C   UNL     1      -1.844 -12.908  14.001  0.00  0.00    +0.185 C 
ATOM     13  C   UNL     1      -1.870 -10.295  11.838  0.00  0.00    +0.185 C 
ENDROOT
BRANCH  11   5
ATOM      5  N   UNL     1      -4.209 -10.069  11.209  0.00  0.00    -0.306 N 
ATOM      6  N   UNL     1      -4.345 -10.804   8.985  0.00  0.00    -0.219 NA
ATOM      7  N   UNL     1      -5.759  -9.026   9.790  0.00  0.00    -0.223 NA
ATOM     26  C   UNL     1      -4.788  -9.963   9.957  0.00  0.00    +0.216 A 
ATOM     27  C   UNL     1      -4.931 -10.673   7.777  0.00  0.00    +0.049 A 
ATOM     28  C   UNL     1      -5.925  -9.756   7.503  0.00  0.00    +0.043 A 
ATOM     29  C   UNL     1      -6.302  -8.949   8.557  0.00  0.00    +0.116 A 
ATOM     31  H   UNL     1      -4.583  -9.474  11.940  0.00  0.00    +0.149 HD
BRANCH  27  18
ATOM     18  C   UNL     1      -4.449 -11.605   6.679  0.00  0.00    +0.038 C 
ATOM     22  C   UNL     1      -4.360 -13.057   7.161  0.00  0.00    +0.010 C 
ATOM     23  C   UNL     1      -5.335 -11.726   5.430  0.00  0.00    +0.010 C 
ATOM     24  C   UNL     1      -5.756 -13.616   6.928  0.00  0.00    +0.001 C 
ATOM     25  C   UNL     1      -6.263 -12.919   5.670  0.00  0.00    +0.001 C 
ENDBRANCH  27  18
ENDBRANCH  11   5
BRANCH  10   4
ATOM      3  O   UNL     1      -3.786 -10.024  16.647  0.00  0.00    -0.276 OA
ATOM      4  N   UNL     1      -3.187 -12.145  15.896  0.00  0.00    -0.307 N 
ATOM     15  C   UNL     1      -3.879 -11.248  16.693  0.00  0.00    +0.216 C 
ATOM     30  H   UNL     1      -3.393 -13.137  15.978  0.00  0.00    +0.149 HD
BRANCH  15  14
ATOM     14  C   UNL     1      -4.812 -11.934  17.646  0.00  0.00    +0.075 C 
ATOM     16  C   UNL     1      -5.134 -11.007  18.821  0.00  0.00    +0.013 C 
ATOM     17  C   UNL     1      -6.082 -12.369  16.911  0.00  0.00    +0.013 C 
ATOM     19  C   UNL     1      -6.155 -11.631  19.768  0.00  0.00    +0.001 C 
ATOM     20  C   UNL     1      -7.101 -12.988  17.864  0.00  0.00    +0.001 C 
ATOM     21  C   UNL     1      -7.420 -12.059  19.030  0.00  0.00    +0.000 C 
ENDBRANCH  15  14
ENDBRANCH  10   4
TORSDOF 4
ENDMDL
