MODEL 1
REMARK VINA RESULT:      -6.1      0.000      0.000
REMARK  Name = 75367670
REMARK  4 active torsions:
REMARK  status: ('A' for Active; 'I' for Inactive)
REMARK    1  A    between atoms: O_5  and  C_10
REMARK    2  A    between atoms: O_5  and  C_16
REMARK    3  A    between atoms: C_15  and  C_17
REMARK    4  A    between atoms: C_20  and  C_24
REMARK                            x       y       z     vdW  Elec       q    Type
REMARK                         _______ _______ _______ _____ _____    ______ ____
ROOT
ATOM      4  O   UNL     1      14.698   3.761   1.591  0.00  0.00    -0.375 OA
ATOM      6  O   UNL     1      13.910   4.251  -3.148  0.00  0.00    -0.268 OA
ATOM      7  N   UNL     1      13.102   4.597  -0.975  0.00  0.00    -0.290 N 
ATOM     10  C   UNL     1      12.348   4.401   1.456  0.00  0.00    +0.216 C 
ATOM     11  C   UNL     1      11.984   4.521  -0.027  0.00  0.00    +0.155 C 
ATOM     12  C   UNL     1      14.407   5.039  -0.478  0.00  0.00    +0.136 C 
ATOM     13  C   UNL     1      13.361   3.294   1.740  0.00  0.00    +0.206 C 
ATOM     14  C   UNL     1      15.130   3.907   0.241  0.00  0.00    +0.179 C 
ATOM     15  C   UNL     1      12.992   4.232  -2.327  0.00  0.00    +0.267 C 
ENDROOT
BRANCH  15  17
ATOM      8  N   UNL     1      10.943   4.708  -3.480  0.00  0.00    -0.247 NA
ATOM      9  N   UNL     1      10.036   2.085  -3.081  0.00  0.00    -0.259 NA
ATOM     17  C   UNL     1      11.681   3.789  -2.826  0.00  0.00    +0.144 A 
ATOM     23  C   UNL     1      11.237   2.501  -2.630  0.00  0.00    +0.143 A 
ATOM     25  C   UNL     1       9.743   4.292  -3.931  0.00  0.00    +0.131 A 
ATOM     26  C   UNL     1       9.297   3.003  -3.735  0.00  0.00    +0.130 A 
ENDBRANCH  15  17
BRANCH  10   5
ATOM      5  O   UNL     1      11.135   4.113   2.154  0.00  0.00    -0.485 OA
BRANCH   5  16
ATOM     16  C   UNL     1      10.973   4.714   3.372  0.00  0.00    +0.121 A 
ATOM     18  C   UNL     1      11.585   5.941   3.631  0.00  0.00    +0.046 A 
ATOM     19  C   UNL     1      10.196   4.100   4.354  0.00  0.00    +0.046 A 
ATOM     20  C   UNL     1      10.642   5.940   5.855  0.00  0.00    +0.055 A 
ATOM     21  C   UNL     1      11.419   6.554   4.873  0.00  0.00    +0.016 A 
ATOM     22  C   UNL     1      10.032   4.713   5.596  0.00  0.00    +0.016 A 
BRANCH  20  24
ATOM      1  F   UNL     1      10.946   7.872   7.232  0.00  0.00    -0.166 F 
ATOM      2  F   UNL     1      11.093   5.939   8.205  0.00  0.00    -0.166 F 
ATOM      3  F   UNL     1       9.155   6.683   7.556  0.00  0.00    -0.166 F 
ATOM     24  C   UNL     1      10.465   6.594   7.184  0.00  0.00    +0.417 C 
ENDBRANCH  20  24
ENDBRANCH   5  16
ENDBRANCH  10   5
TORSDOF 4
ENDMDL
MODEL 2
REMARK VINA RESULT:      -6.0     19.166     21.653
REMARK  Name = 75367670
REMARK  4 active torsions:
REMARK  status: ('A' for Active; 'I' for Inactive)
REMARK    1  A    between atoms: O_5  and  C_10
REMARK    2  A    between atoms: O_5  and  C_16
REMARK    3  A    between atoms: C_15  and  C_17
REMARK    4  A    between atoms: C_20  and  C_24
REMARK                            x       y       z     vdW  Elec       q    Type
REMARK                         _______ _______ _______ _____ _____    ______ ____
ROOT
ATOM      4  O   UNL     1      20.958   8.846  22.024  0.00  0.00    -0.375 OA
ATOM      6  O   UNL     1      25.203   6.930  20.749  0.00  0.00    -0.268 OA
ATOM      7  N   UNL     1      22.873   6.890  20.496  0.00  0.00    -0.290 N 
ATOM     10  C   UNL     1      20.340   6.823  20.809  0.00  0.00    +0.216 C 
ATOM     11  C   UNL     1      21.635   6.106  20.413  0.00  0.00    +0.155 C 
ATOM     12  C   UNL     1      22.775   8.350  20.459  0.00  0.00    +0.136 C 
ATOM     13  C   UNL     1      20.432   7.530  22.160  0.00  0.00    +0.206 C 
ATOM     14  C   UNL     1      22.366   8.906  21.817  0.00  0.00    +0.179 C 
ATOM     15  C   UNL     1      24.144   6.310  20.645  0.00  0.00    +0.267 C 
ENDROOT
BRANCH  15  17
ATOM      8  N   UNL     1      23.829   4.239  21.813  0.00  0.00    -0.247 NA
ATOM      9  N   UNL     1      24.829   2.785  19.634  0.00  0.00    -0.259 NA
ATOM     17  C   UNL     1      24.242   4.842  20.681  0.00  0.00    +0.144 A 
ATOM     23  C   UNL     1      24.732   4.129  19.611  0.00  0.00    +0.143 A 
ATOM     25  C   UNL     1      23.925   2.894  21.836  0.00  0.00    +0.131 A 
ATOM     26  C   UNL     1      24.417   2.180  20.766  0.00  0.00    +0.130 A 
ENDBRANCH  15  17
BRANCH  10   5
ATOM      5  O   UNL     1      19.322   5.823  20.876  0.00  0.00    -0.485 OA
BRANCH   5  16
ATOM     16  C   UNL     1      18.083   6.181  20.417  0.00  0.00    +0.121 A 
ATOM     18  C   UNL     1      17.680   5.811  19.134  0.00  0.00    +0.046 A 
ATOM     19  C   UNL     1      17.224   6.916  21.234  0.00  0.00    +0.046 A 
ATOM     20  C   UNL     1      15.559   6.912  19.484  0.00  0.00    +0.055 A 
ATOM     21  C   UNL     1      16.418   6.176  18.667  0.00  0.00    +0.016 A 
ATOM     22  C   UNL     1      15.962   7.282  20.766  0.00  0.00    +0.016 A 
BRANCH  20  24
ATOM      1  F   UNL     1      14.095   7.258  17.624  0.00  0.00    -0.166 F 
ATOM      2  F   UNL     1      13.844   8.573  19.331  0.00  0.00    -0.166 F 
ATOM      3  F   UNL     1      13.218   6.495  19.461  0.00  0.00    -0.166 F 
ATOM     24  C   UNL     1      14.209   7.303  18.984  0.00  0.00    +0.417 C 
ENDBRANCH  20  24
ENDBRANCH   5  16
ENDBRANCH  10   5
TORSDOF 4
ENDMDL
MODEL 3
REMARK VINA RESULT:      -6.0     26.389     28.988
REMARK  Name = 75367670
REMARK  4 active torsions:
REMARK  status: ('A' for Active; 'I' for Inactive)
REMARK    1  A    between atoms: O_5  and  C_10
REMARK    2  A    between atoms: O_5  and  C_16
REMARK    3  A    between atoms: C_15  and  C_17
REMARK    4  A    between atoms: C_20  and  C_24
REMARK                            x       y       z     vdW  Elec       q    Type
REMARK                         _______ _______ _______ _____ _____    ______ ____
ROOT
ATOM      4  O   UNL     1      -8.580 -11.202  18.943  0.00  0.00    -0.375 OA
ATOM      6  O   UNL     1      -3.790 -11.802  19.028  0.00  0.00    -0.268 OA
ATOM      7  N   UNL     1      -5.613 -10.673  18.082  0.00  0.00    -0.290 N 
ATOM     10  C   UNL     1      -7.808  -9.988  16.973  0.00  0.00    +0.216 C 
ATOM     11  C   UNL     1      -6.290 -10.174  16.879  0.00  0.00    +0.155 C 
ATOM     12  C   UNL     1      -6.275 -10.498  19.376  0.00  0.00    +0.136 C 
ATOM     13  C   UNL     1      -8.532 -11.217  17.520  0.00  0.00    +0.206 C 
ATOM     14  C   UNL     1      -7.357 -11.551  19.583  0.00  0.00    +0.179 C 
ATOM     15  C   UNL     1      -4.378 -11.342  18.049  0.00  0.00    +0.267 C 
ENDROOT
BRANCH  15  17
ATOM      8  N   UNL     1      -4.139 -12.542  15.986  0.00  0.00    -0.247 NA
ATOM      9  N   UNL     1      -2.087 -10.823  15.151  0.00  0.00    -0.259 NA
ATOM     17  C   UNL     1      -3.712 -11.516  16.748  0.00  0.00    +0.144 A 
ATOM     23  C   UNL     1      -2.705 -10.672  16.339  0.00  0.00    +0.143 A 
ATOM     25  C   UNL     1      -3.521 -12.694  14.798  0.00  0.00    +0.131 A 
ATOM     26  C   UNL     1      -2.512 -11.850  14.387  0.00  0.00    +0.130 A 
ENDBRANCH  15  17
BRANCH  10   5
ATOM      5  O   UNL     1      -8.272  -9.726  15.647  0.00  0.00    -0.485 OA
BRANCH   5  16
ATOM     16  C   UNL     1      -9.360  -8.905  15.532  0.00  0.00    +0.121 A 
ATOM     18  C   UNL     1      -9.589  -7.913  16.485  0.00  0.00    +0.046 A 
ATOM     19  C   UNL     1     -10.239  -9.060  14.461  0.00  0.00    +0.046 A 
ATOM     20  C   UNL     1     -11.578  -7.231  15.296  0.00  0.00    +0.055 A 
ATOM     21  C   UNL     1     -10.698  -7.075  16.368  0.00  0.00    +0.016 A 
ATOM     22  C   UNL     1     -11.349  -8.223  14.344  0.00  0.00    +0.016 A 
BRANCH  20  24
ATOM      1  F   UNL     1     -12.455  -5.071  14.758  0.00  0.00    -0.166 F 
ATOM      2  F   UNL     1     -13.453  -6.172  16.339  0.00  0.00    -0.166 F 
ATOM      3  F   UNL     1     -13.679  -6.800  14.270  0.00  0.00    -0.166 F 
ATOM     24  C   UNL     1     -12.765  -6.336  15.170  0.00  0.00    +0.417 C 
ENDBRANCH  20  24
ENDBRANCH   5  16
ENDBRANCH  10   5
TORSDOF 4
ENDMDL
MODEL 4
REMARK VINA RESULT:      -5.9      5.401      8.658
REMARK  Name = 75367670
REMARK  4 active torsions:
REMARK  status: ('A' for Active; 'I' for Inactive)
REMARK    1  A    between atoms: O_5  and  C_10
REMARK    2  A    between atoms: O_5  and  C_16
REMARK    3  A    between atoms: C_15  and  C_17
REMARK    4  A    between atoms: C_20  and  C_24
REMARK                            x       y       z     vdW  Elec       q    Type
REMARK                         _______ _______ _______ _____ _____    ______ ____
ROOT
ATOM      4  O   UNL     1      12.914   8.441   2.525  0.00  0.00    -0.375 OA
ATOM      6  O   UNL     1      12.749   8.782   7.339  0.00  0.00    -0.268 OA
ATOM      7  N   UNL     1      12.571   7.393   5.460  0.00  0.00    -0.290 N 
ATOM     10  C   UNL     1      11.999   6.292   3.228  0.00  0.00    +0.216 C 
ATOM     11  C   UNL     1      11.849   6.328   4.753  0.00  0.00    +0.155 C 
ATOM     12  C   UNL     1      13.720   8.012   4.798  0.00  0.00    +0.136 C 
ATOM     13  C   UNL     1      11.736   7.643   2.566  0.00  0.00    +0.206 C 
ATOM     14  C   UNL     1      13.270   9.040   3.767  0.00  0.00    +0.179 C 
ATOM     15  C   UNL     1      12.192   7.872   6.724  0.00  0.00    +0.267 C 
ENDROOT
BRANCH  15  17
ATOM      8  N   UNL     1      11.234   6.026   7.920  0.00  0.00    -0.247 NA
ATOM      9  N   UNL     1       8.753   7.326   8.066  0.00  0.00    -0.259 NA
ATOM     17  C   UNL     1      11.037   7.249   7.390  0.00  0.00    +0.144 A 
ATOM     23  C   UNL     1       9.819   7.888   7.462  0.00  0.00    +0.143 A 
ATOM     25  C   UNL     1      10.169   5.464   8.525  0.00  0.00    +0.131 A 
ATOM     26  C   UNL     1       8.950   6.102   8.597  0.00  0.00    +0.130 A 
ENDBRANCH  15  17
BRANCH  10   5
ATOM      5  O   UNL     1      11.046   5.343   2.745  0.00  0.00    -0.485 OA
BRANCH   5  16
ATOM     16  C   UNL     1      11.340   4.734   1.556  0.00  0.00    +0.121 A 
ATOM     18  C   UNL     1      10.486   4.888   0.463  0.00  0.00    +0.046 A 
ATOM     19  C   UNL     1      12.493   3.958   1.437  0.00  0.00    +0.046 A 
ATOM     20  C   UNL     1      11.939   3.490  -0.867  0.00  0.00    +0.055 A 
ATOM     21  C   UNL     1      10.786   4.266  -0.749  0.00  0.00    +0.016 A 
ATOM     22  C   UNL     1      12.792   3.336   0.225  0.00  0.00    +0.016 A 
BRANCH  20  24
ATOM      1  F   UNL     1      13.462   3.203  -2.690  0.00  0.00    -0.166 F 
ATOM      2  F   UNL     1      11.345   3.074  -3.147  0.00  0.00    -0.166 F 
ATOM      3  F   UNL     1      12.319   1.466  -2.055  0.00  0.00    -0.166 F 
ATOM     24  C   UNL     1      12.260   2.825  -2.163  0.00  0.00    +0.417 C 
ENDBRANCH  20  24
ENDBRANCH   5  16
ENDBRANCH  10   5
TORSDOF 4
ENDMDL
MODEL 5
REMARK VINA RESULT:      -5.9     26.237     29.066
REMARK  Name = 75367670
REMARK  4 active torsions:
REMARK  status: ('A' for Active; 'I' for Inactive)
REMARK    1  A    between atoms: O_5  and  C_10
REMARK    2  A    between atoms: O_5  and  C_16
REMARK    3  A    between atoms: C_15  and  C_17
REMARK    4  A    between atoms: C_20  and  C_24
REMARK                            x       y       z     vdW  Elec       q    Type
REMARK                         _______ _______ _______ _____ _____    ______ ____
ROOT
ATOM      4  O   UNL     1     -12.923  11.717  16.556  0.00  0.00    -0.375 OA
ATOM      6  O   UNL     1      -9.383  13.994  14.191  0.00  0.00    -0.268 OA
ATOM      7  N   UNL     1      -9.958  12.347  15.756  0.00  0.00    -0.290 N 
ATOM     10  C   UNL     1     -10.897  10.989  17.704  0.00  0.00    +0.216 C 
ATOM     11  C   UNL     1      -9.713  11.715  17.058  0.00  0.00    +0.155 C 
ATOM     12  C   UNL     1     -11.081  11.864  14.949  0.00  0.00    +0.136 C 
ATOM     13  C   UNL     1     -12.167  11.838  17.756  0.00  0.00    +0.206 C 
ATOM     14  C   UNL     1     -12.400  12.441  15.447  0.00  0.00    +0.179 C 
ATOM     15  C   UNL     1      -9.193  13.416  15.261  0.00  0.00    +0.267 C 
ENDROOT
BRANCH  15  17
ATOM      8  N   UNL     1      -8.362  14.759  17.067  0.00  0.00    -0.247 NA
ATOM      9  N   UNL     1      -5.731  13.932  16.553  0.00  0.00    -0.259 NA
ATOM     17  C   UNL     1      -8.064  13.900  16.072  0.00  0.00    +0.144 A 
ATOM     23  C   UNL     1      -6.773  13.494  15.819  0.00  0.00    +0.143 A 
ATOM     25  C   UNL     1      -7.320  15.198  17.801  0.00  0.00    +0.131 A 
ATOM     26  C   UNL     1      -6.027  14.792  17.549  0.00  0.00    +0.130 A 
ENDBRANCH  15  17
BRANCH  10   5
ATOM      5  O   UNL     1     -10.501  10.663  19.037  0.00  0.00    -0.485 OA
BRANCH   5  16
ATOM     16  C   UNL     1     -11.195   9.658  19.652  0.00  0.00    +0.121 A 
ATOM     18  C   UNL     1     -12.001   9.940  20.755  0.00  0.00    +0.046 A 
ATOM     19  C   UNL     1     -11.097   8.351  19.176  0.00  0.00    +0.046 A 
ATOM     20  C   UNL     1     -12.611   7.608  20.906  0.00  0.00    +0.055 A 
ATOM     21  C   UNL     1     -12.709   8.916  21.383  0.00  0.00    +0.016 A 
ATOM     22  C   UNL     1     -11.805   7.326  19.804  0.00  0.00    +0.016 A 
BRANCH  20  24
ATOM      1  F   UNL     1     -14.006   6.906  22.718  0.00  0.00    -0.166 F 
ATOM      2  F   UNL     1     -12.584   5.457  21.954  0.00  0.00    -0.166 F 
ATOM      3  F   UNL     1     -14.338   5.979  20.780  0.00  0.00    -0.166 F 
ATOM     24  C   UNL     1     -13.367   6.511  21.577  0.00  0.00    +0.417 C 
ENDBRANCH  20  24
ENDBRANCH   5  16
ENDBRANCH  10   5
TORSDOF 4
ENDMDL
MODEL 6
REMARK VINA RESULT:      -5.9      6.528      8.249
REMARK  Name = 75367670
REMARK  4 active torsions:
REMARK  status: ('A' for Active; 'I' for Inactive)
REMARK    1  A    between atoms: O_5  and  C_10
REMARK    2  A    between atoms: O_5  and  C_16
REMARK    3  A    between atoms: C_15  and  C_17
REMARK    4  A    between atoms: C_20  and  C_24
REMARK                            x       y       z     vdW  Elec       q    Type
REMARK                         _______ _______ _______ _____ _____    ______ ____
ROOT
ATOM      4  O   UNL     1       7.612  12.010   5.581  0.00  0.00    -0.375 OA
ATOM      6  O   UNL     1       4.189  12.341   2.192  0.00  0.00    -0.268 OA
ATOM      7  N   UNL     1       5.536  10.933   3.494  0.00  0.00    -0.290 N 
ATOM     10  C   UNL     1       7.439   9.739   4.708  0.00  0.00    +0.216 C 
ATOM     11  C   UNL     1       6.410   9.756   3.573  0.00  0.00    +0.155 C 
ATOM     12  C   UNL     1       5.343  11.738   4.702  0.00  0.00    +0.136 C 
ATOM     13  C   UNL     1       8.265  11.021   4.791  0.00  0.00    +0.206 C 
ATOM     14  C   UNL     1       6.527  12.668   4.934  0.00  0.00    +0.179 C 
ATOM     15  C   UNL     1       4.904  11.346   2.310  0.00  0.00    +0.267 C 
ENDROOT
BRANCH  15  17
ATOM      8  N   UNL     1       6.181  10.822   0.347  0.00  0.00    -0.247 NA
ATOM      9  N   UNL     1       4.377   8.794  -0.360  0.00  0.00    -0.259 NA
ATOM     17  C   UNL     1       5.097  10.536   1.096  0.00  0.00    +0.144 A 
ATOM     23  C   UNL     1       4.212   9.540   0.750  0.00  0.00    +0.143 A 
ATOM     25  C   UNL     1       6.346  10.075  -0.763  0.00  0.00    +0.131 A 
ATOM     26  C   UNL     1       5.460   9.079  -1.111  0.00  0.00    +0.130 A 
ENDBRANCH  15  17
BRANCH  10   5
ATOM      5  O   UNL     1       8.312   8.638   4.453  0.00  0.00    -0.485 OA
BRANCH   5  16
ATOM     16  C   UNL     1       8.594   7.823   5.515  0.00  0.00    +0.121 A 
ATOM     18  C   UNL     1       8.890   6.476   5.302  0.00  0.00    +0.046 A 
ATOM     19  C   UNL     1       8.586   8.338   6.811  0.00  0.00    +0.046 A 
ATOM     20  C   UNL     1       9.168   6.161   7.680  0.00  0.00    +0.055 A 
ATOM     21  C   UNL     1       9.177   5.645   6.384  0.00  0.00    +0.016 A 
ATOM     22  C   UNL     1       8.872   7.506   7.893  0.00  0.00    +0.016 A 
BRANCH  20  24
ATOM      1  F   UNL     1      10.668   5.551   9.440  0.00  0.00    -0.166 F 
ATOM      2  F   UNL     1       9.540   3.948   8.510  0.00  0.00    -0.166 F 
ATOM      3  F   UNL     1       8.538   5.357   9.828  0.00  0.00    -0.166 F 
ATOM     24  C   UNL     1       9.474   5.273   8.838  0.00  0.00    +0.417 C 
ENDBRANCH  20  24
ENDBRANCH   5  16
ENDBRANCH  10   5
TORSDOF 4
ENDMDL
MODEL 7
REMARK VINA RESULT:      -5.9     19.223     21.835
REMARK  Name = 75367670
REMARK  4 active torsions:
REMARK  status: ('A' for Active; 'I' for Inactive)
REMARK    1  A    between atoms: O_5  and  C_10
REMARK    2  A    between atoms: O_5  and  C_16
REMARK    3  A    between atoms: C_15  and  C_17
REMARK    4  A    between atoms: C_20  and  C_24
REMARK                            x       y       z     vdW  Elec       q    Type
REMARK                         _______ _______ _______ _____ _____    ______ ____
ROOT
ATOM      4  O   UNL     1      21.479   5.261  23.347  0.00  0.00    -0.375 OA
ATOM      6  O   UNL     1      23.639   9.526  22.671  0.00  0.00    -0.268 OA
ATOM      7  N   UNL     1      21.796   8.159  22.194  0.00  0.00    -0.290 N 
ATOM     10  C   UNL     1      20.203   6.276  21.532  0.00  0.00    +0.216 C 
ATOM     11  C   UNL     1      20.858   7.621  21.201  0.00  0.00    +0.155 C 
ATOM     12  C   UNL     1      21.688   7.690  23.577  0.00  0.00    +0.136 C 
ATOM     13  C   UNL     1      21.208   5.204  21.950  0.00  0.00    +0.206 C 
ATOM     14  C   UNL     1      22.341   6.324  23.744  0.00  0.00    +0.179 C 
ATOM     15  C   UNL     1      22.813   9.074  21.877  0.00  0.00    +0.267 C 
ENDROOT
BRANCH  15  17
ATOM      8  N   UNL     1      22.177  10.620  20.157  0.00  0.00    -0.247 NA
ATOM      9  N   UNL     1      23.842   9.336  18.300  0.00  0.00    -0.259 NA
ATOM     17  C   UNL     1      22.920   9.545  20.487  0.00  0.00    +0.144 A 
ATOM     23  C   UNL     1      23.738   8.915  19.576  0.00  0.00    +0.143 A 
ATOM     25  C   UNL     1      22.281  11.041  18.880  0.00  0.00    +0.131 A 
ATOM     26  C   UNL     1      23.099  10.411  17.968  0.00  0.00    +0.130 A 
ENDBRANCH  15  17
BRANCH  10   5
ATOM      5  O   UNL     1      19.529   5.846  20.349  0.00  0.00    -0.485 OA
BRANCH   5  16
ATOM     16  C   UNL     1      18.203   6.166  20.250  0.00  0.00    +0.121 A 
ATOM     18  C   UNL     1      17.515   5.933  19.059  0.00  0.00    +0.046 A 
ATOM     19  C   UNL     1      17.538   6.725  21.342  0.00  0.00    +0.046 A 
ATOM     20  C   UNL     1      15.499   6.820  20.050  0.00  0.00    +0.055 A 
ATOM     21  C   UNL     1      16.163   6.260  18.958  0.00  0.00    +0.016 A 
ATOM     22  C   UNL     1      16.186   7.053  21.240  0.00  0.00    +0.016 A 
BRANCH  20  24
ATOM      1  F   UNL     1      13.249   6.429  20.761  0.00  0.00    -0.166 F 
ATOM      2  F   UNL     1      13.540   7.000  18.689  0.00  0.00    -0.166 F 
ATOM      3  F   UNL     1      13.803   8.472  20.267  0.00  0.00    -0.166 F 
ATOM     24  C   UNL     1      14.053   7.170  19.943  0.00  0.00    +0.417 C 
ENDBRANCH  20  24
ENDBRANCH   5  16
ENDBRANCH  10   5
TORSDOF 4
ENDMDL
MODEL 8
REMARK VINA RESULT:      -5.9     39.650     41.316
REMARK  Name = 75367670
REMARK  4 active torsions:
REMARK  status: ('A' for Active; 'I' for Inactive)
REMARK    1  A    between atoms: O_5  and  C_10
REMARK    2  A    between atoms: O_5  and  C_16
REMARK    3  A    between atoms: C_15  and  C_17
REMARK    4  A    between atoms: C_20  and  C_24
REMARK                            x       y       z     vdW  Elec       q    Type
REMARK                         _______ _______ _______ _____ _____    ______ ____
ROOT
ATOM      4  O   UNL     1     -15.824   7.379  31.761  0.00  0.00    -0.375 OA
ATOM      6  O   UNL     1     -12.984  10.912  33.423  0.00  0.00    -0.268 OA
ATOM      7  N   UNL     1     -13.235   8.617  33.021  0.00  0.00    -0.290 N 
ATOM     10  C   UNL     1     -14.012   6.189  32.879  0.00  0.00    +0.216 C 
ATOM     11  C   UNL     1     -13.082   7.237  33.499  0.00  0.00    +0.155 C 
ATOM     12  C   UNL     1     -13.856   8.836  31.714  0.00  0.00    +0.136 C 
ATOM     13  C   UNL     1     -15.483   6.601  32.903  0.00  0.00    +0.206 C 
ATOM     14  C   UNL     1     -15.373   8.730  31.804  0.00  0.00    +0.179 C 
ATOM     15  C   UNL     1     -12.847   9.739  33.771  0.00  0.00    +0.267 C 
ENDROOT
BRANCH  15  17
ATOM      8  N   UNL     1     -10.876   9.446  35.107  0.00  0.00    -0.247 NA
ATOM      9  N   UNL     1     -12.417   9.189  37.436  0.00  0.00    -0.259 NA
ATOM     17  C   UNL     1     -12.221   9.519  35.085  0.00  0.00    +0.144 A 
ATOM     23  C   UNL     1     -12.978   9.393  36.228  0.00  0.00    +0.143 A 
ATOM     25  C   UNL     1     -10.314   9.241  36.315  0.00  0.00    +0.131 A 
ATOM     26  C   UNL     1     -11.071   9.115  37.460  0.00  0.00    +0.130 A 
ENDBRANCH  15  17
BRANCH  10   5
ATOM      5  O   UNL     1     -13.851   4.994  33.645  0.00  0.00    -0.485 OA
BRANCH   5  16
ATOM     16  C   UNL     1     -14.037   3.813  32.980  0.00  0.00    +0.121 A 
ATOM     18  C   UNL     1     -14.767   2.784  33.577  0.00  0.00    +0.046 A 
ATOM     19  C   UNL     1     -13.498   3.638  31.706  0.00  0.00    +0.046 A 
ATOM     20  C   UNL     1     -14.417   1.405  31.625  0.00  0.00    +0.055 A 
ATOM     21  C   UNL     1     -14.957   1.580  32.899  0.00  0.00    +0.016 A 
ATOM     22  C   UNL     1     -13.687   2.432  31.029  0.00  0.00    +0.016 A 
BRANCH  20  24
ATOM      1  F   UNL     1     -14.990  -0.916  31.714  0.00  0.00    -0.166 F 
ATOM      2  F   UNL     1     -13.503  -0.326  30.249  0.00  0.00    -0.166 F 
ATOM      3  F   UNL     1     -15.591   0.198  29.946  0.00  0.00    -0.166 F 
ATOM     24  C   UNL     1     -14.619   0.117  30.900  0.00  0.00    +0.417 C 
ENDBRANCH  20  24
ENDBRANCH   5  16
ENDBRANCH  10   5
TORSDOF 4
ENDMDL
MODEL 9
REMARK VINA RESULT:      -5.7      2.345      4.090
REMARK  Name = 75367670
REMARK  4 active torsions:
REMARK  status: ('A' for Active; 'I' for Inactive)
REMARK    1  A    between atoms: O_5  and  C_10
REMARK    2  A    between atoms: O_5  and  C_16
REMARK    3  A    between atoms: C_15  and  C_17
REMARK    4  A    between atoms: C_20  and  C_24
REMARK                            x       y       z     vdW  Elec       q    Type
REMARK                         _______ _______ _______ _____ _____    ______ ____
ROOT
ATOM      4  O   UNL     1       9.376   7.743  -1.347  0.00  0.00    -0.375 OA
ATOM      6  O   UNL     1      11.667   3.529  -1.907  0.00  0.00    -0.268 OA
ATOM      7  N   UNL     1      10.802   5.113  -0.410  0.00  0.00    -0.290 N 
ATOM     10  C   UNL     1      10.177   7.216   0.896  0.00  0.00    +0.216 C 
ATOM     11  C   UNL     1      10.978   5.912   0.808  0.00  0.00    +0.155 C 
ATOM     12  C   UNL     1       9.585   5.307  -1.200  0.00  0.00    +0.136 C 
ATOM     13  C   UNL     1      10.323   8.096  -0.344  0.00  0.00    +0.206 C 
ATOM     14  C   UNL     1       9.689   6.555  -2.068  0.00  0.00    +0.179 C 
ATOM     15  C   UNL     1      11.760   4.197  -0.876  0.00  0.00    +0.267 C 
ENDROOT
BRANCH  15  17
ATOM      8  N   UNL     1      14.101   4.597  -0.540  0.00  0.00    -0.247 NA
ATOM      9  N   UNL     1      14.092   3.057   1.804  0.00  0.00    -0.259 NA
ATOM     17  C   UNL     1      12.983   4.001  -0.082  0.00  0.00    +0.144 A 
ATOM     23  C   UNL     1      12.978   3.245   1.069  0.00  0.00    +0.143 A 
ATOM     25  C   UNL     1      15.216   4.408   0.194  0.00  0.00    +0.131 A 
ATOM     26  C   UNL     1      15.212   3.652   1.346  0.00  0.00    +0.130 A 
ENDBRANCH  15  17
BRANCH  10   5
ATOM      5  O   UNL     1      10.673   7.925   2.032  0.00  0.00    -0.485 OA
BRANCH   5  16
ATOM     16  C   UNL     1      10.516   7.318   3.248  0.00  0.00    +0.121 A 
ATOM     18  C   UNL     1      11.634   7.008   4.022  0.00  0.00    +0.046 A 
ATOM     19  C   UNL     1       9.238   7.010   3.713  0.00  0.00    +0.046 A 
ATOM     20  C   UNL     1      10.196   6.080   5.727  0.00  0.00    +0.055 A 
ATOM     21  C   UNL     1      11.475   6.389   5.261  0.00  0.00    +0.016 A 
ATOM     22  C   UNL     1       9.079   6.390   4.953  0.00  0.00    +0.016 A 
BRANCH  20  24
ATOM      1  F   UNL     1      11.078   5.609   7.899  0.00  0.00    -0.166 F 
ATOM      2  F   UNL     1       9.874   4.062   6.971  0.00  0.00    -0.166 F 
ATOM      3  F   UNL     1       8.926   5.868   7.726  0.00  0.00    -0.166 F 
ATOM     24  C   UNL     1      10.025   5.418   7.052  0.00  0.00    +0.417 C 
ENDBRANCH  20  24
ENDBRANCH   5  16
ENDBRANCH  10   5
TORSDOF 4
ENDMDL
MODEL 10
REMARK VINA RESULT:      -5.6      2.414      3.280
REMARK  Name = 75367670
REMARK  4 active torsions:
REMARK  status: ('A' for Active; 'I' for Inactive)
REMARK    1  A    between atoms: O_5  and  C_10
REMARK    2  A    between atoms: O_5  and  C_16
REMARK    3  A    between atoms: C_15  and  C_17
REMARK    4  A    between atoms: C_20  and  C_24
REMARK                            x       y       z     vdW  Elec       q    Type
REMARK                         _______ _______ _______ _____ _____    ______ ____
ROOT
ATOM      4  O   UNL     1      10.814   8.959   1.494  0.00  0.00    -0.375 OA
ATOM      6  O   UNL     1       9.878   6.766  -2.704  0.00  0.00    -0.268 OA
ATOM      7  N   UNL     1      10.105   6.549  -0.382  0.00  0.00    -0.290 N 
ATOM     10  C   UNL     1      10.866   6.585   2.055  0.00  0.00    +0.216 C 
ATOM     11  C   UNL     1      10.639   5.798   0.760  0.00  0.00    +0.155 C 
ATOM     12  C   UNL     1       9.384   7.796  -0.118  0.00  0.00    +0.136 C 
ATOM     13  C   UNL     1      11.664   7.871   1.845  0.00  0.00    +0.206 C 
ATOM     14  C   UNL     1      10.351   8.942   0.147  0.00  0.00    +0.179 C 
ATOM     15  C   UNL     1      10.282   6.151  -1.717  0.00  0.00    +0.267 C 
ENDROOT
BRANCH  15  17
ATOM      8  N   UNL     1      10.253   3.801  -2.199  0.00  0.00    -0.247 NA
ATOM      9  N   UNL     1      13.056   3.713  -2.243  0.00  0.00    -0.259 NA
ATOM     17  C   UNL     1      11.006   4.898  -1.982  0.00  0.00    +0.144 A 
ATOM     23  C   UNL     1      12.382   4.855  -2.004  0.00  0.00    +0.143 A 
ATOM     25  C   UNL     1      10.927   2.659  -2.437  0.00  0.00    +0.131 A 
ATOM     26  C   UNL     1      12.304   2.615  -2.459  0.00  0.00    +0.130 A 
ENDBRANCH  15  17
BRANCH  10   5
ATOM      5  O   UNL     1      11.593   5.726   2.935  0.00  0.00    -0.485 OA
BRANCH   5  16
ATOM     16  C   UNL     1      11.146   5.655   4.226  0.00  0.00    +0.121 A 
ATOM     18  C   UNL     1      11.683   6.499   5.198  0.00  0.00    +0.046 A 
ATOM     19  C   UNL     1      10.153   4.738   4.570  0.00  0.00    +0.046 A 
ATOM     20  C   UNL     1      10.234   5.509   6.858  0.00  0.00    +0.055 A 
ATOM     21  C   UNL     1      11.228   6.427   6.514  0.00  0.00    +0.016 A 
ATOM     22  C   UNL     1       9.698   4.665   5.887  0.00  0.00    +0.016 A 
BRANCH  20  24
ATOM      1  F   UNL     1      10.697   5.756   9.192  0.00  0.00    -0.166 F 
ATOM      2  F   UNL     1       9.311   4.188   8.625  0.00  0.00    -0.166 F 
ATOM      3  F   UNL     1       8.699   6.271   8.506  0.00  0.00    -0.166 F 
ATOM     24  C   UNL     1       9.748   5.431   8.265  0.00  0.00    +0.417 C 
ENDBRANCH  20  24
ENDBRANCH   5  16
ENDBRANCH  10   5
TORSDOF 4
ENDMDL
