MODEL 1
REMARK VINA RESULT:      -6.1      0.000      0.000
REMARK  Name = 75536745
REMARK  5 active torsions:
REMARK  status: ('A' for Active; 'I' for Inactive)
REMARK    1  A    between atoms: O_2  and  C_10
REMARK    2  A    between atoms: N_5  and  C_8
REMARK    3  A    between atoms: N_5  and  C_9
REMARK    4  A    between atoms: N_6  and  C_17
REMARK    5  A    between atoms: C_13  and  C_17
REMARK                            x       y       z     vdW  Elec       q    Type
REMARK                         _______ _______ _______ _____ _____    ______ ____
ROOT
ATOM      1  O   UNL     1      11.587   7.134  19.695  0.00  0.00    -0.371 OA
ATOM      9  C   UNL     1      13.932   6.911  20.003  0.00  0.00    +0.111 C 
ATOM     10  C   UNL     1      13.378   7.835  21.072  0.00  0.00    +0.164 C 
ATOM     13  C   UNL     1      11.905   7.447  21.061  0.00  0.00    +0.165 C 
ATOM     16  C   UNL     1      12.816   6.941  18.972  0.00  0.00    +0.181 C 
ENDROOT
BRANCH  10   2
ATOM      2  O   UNL     1      13.971   7.621  22.339  0.00  0.00    -0.388 OA
ATOM     24  H   UNL     1      14.932   7.543  22.217  0.00  0.00    +0.210 HD
ENDBRANCH  10   2
BRANCH   9   5
ATOM      5  N   UNL     1      15.212   7.343  19.464  0.00  0.00    -0.306 NA
ATOM     23  H   UNL     1      15.339   8.342  19.621  0.00  0.00    +0.123 HD
BRANCH   5   8
ATOM      8  C   UNL     1      16.307   6.600  20.062  0.00  0.00    +0.054 C 
ATOM     11  C   UNL     1      17.171   5.891  19.026  0.00  0.00    +0.019 C 
ATOM     12  C   UNL     1      17.314   7.499  20.766  0.00  0.00    +0.019 C 
ATOM     14  C   UNL     1      18.457   5.576  19.785  0.00  0.00    +0.002 C 
ATOM     15  C   UNL     1      18.550   6.614  20.907  0.00  0.00    +0.002 C 
ENDBRANCH   5   8
ENDBRANCH   9   5
BRANCH  13  17
ATOM     17  C   UNL     1      10.990   8.548  21.563  0.00  0.00    +0.140 C 
BRANCH  17   6
ATOM      3  O   UNL     1      14.061  14.080  22.641  0.00  0.00    -0.377 OA
ATOM      4  O   UNL     1      10.818  10.470  23.611  0.00  0.00    -0.253 OA
ATOM      6  N   UNL     1      11.660   9.829  21.575  0.00  0.00    -0.297 N 
ATOM      7  N   UNL     1      12.230  11.933  22.492  0.00  0.00    -0.281 N 
ATOM     18  C   UNL     1      11.522  10.725  22.628  0.00  0.00    +0.302 C 
ATOM     19  C   UNL     1      12.137  12.938  23.552  0.00  0.00    +0.137 C 
ATOM     20  C   UNL     1      12.962  12.378  21.298  0.00  0.00    +0.137 C 
ATOM     21  C   UNL     1      13.498  13.552  23.843  0.00  0.00    +0.179 C 
ATOM     22  C   UNL     1      14.280  13.041  21.686  0.00  0.00    +0.179 C 
ATOM     25  H   UNL     1      12.220  10.044  20.763  0.00  0.00    +0.150 HD
ENDBRANCH  17   6
ENDBRANCH  13  17
TORSDOF 5
ENDMDL
MODEL 2
REMARK VINA RESULT:      -5.9     26.117     28.454
REMARK  Name = 75536745
REMARK  5 active torsions:
REMARK  status: ('A' for Active; 'I' for Inactive)
REMARK    1  A    between atoms: O_2  and  C_10
REMARK    2  A    between atoms: N_5  and  C_8
REMARK    3  A    between atoms: N_5  and  C_9
REMARK    4  A    between atoms: N_6  and  C_17
REMARK    5  A    between atoms: C_13  and  C_17
REMARK                            x       y       z     vdW  Elec       q    Type
REMARK                         _______ _______ _______ _____ _____    ______ ____
ROOT
ATOM      1  O   UNL     1      -1.083 -11.348  15.128  0.00  0.00    -0.371 OA
ATOM      9  C   UNL     1      -3.166 -11.001  16.214  0.00  0.00    +0.111 C 
ATOM     10  C   UNL     1      -3.413 -11.665  14.872  0.00  0.00    +0.164 C 
ATOM     13  C   UNL     1      -2.044 -12.271  14.589  0.00  0.00    +0.165 C 
ATOM     16  C   UNL     1      -1.762 -10.452  16.025  0.00  0.00    +0.181 C 
ENDROOT
BRANCH  10   2
ATOM      2  O   UNL     1      -4.425 -12.652  14.929  0.00  0.00    -0.388 OA
ATOM     24  H   UNL     1      -4.597 -12.860  15.863  0.00  0.00    +0.210 HD
ENDBRANCH  10   2
BRANCH   9   5
ATOM      5  N   UNL     1      -4.138  -9.969  16.542  0.00  0.00    -0.306 NA
ATOM     23  H   UNL     1      -4.745  -9.792  15.742  0.00  0.00    +0.123 HD
BRANCH   5   8
ATOM      8  C   UNL     1      -4.932 -10.348  17.697  0.00  0.00    +0.054 C 
ATOM     11  C   UNL     1      -6.329 -10.826  17.320  0.00  0.00    +0.019 C 
ATOM     12  C   UNL     1      -4.362 -11.553  18.434  0.00  0.00    +0.019 C 
ATOM     14  C   UNL     1      -6.801 -11.573  18.565  0.00  0.00    +0.002 C 
ATOM     15  C   UNL     1      -5.533 -12.042  19.283  0.00  0.00    +0.002 C 
ENDBRANCH   5   8
ENDBRANCH   9   5
BRANCH  13  17
ATOM     17  C   UNL     1      -1.777 -12.485  13.111  0.00  0.00    +0.140 C 
BRANCH  17   6
ATOM      3  O   UNL     1      -5.657  -9.632   8.869  0.00  0.00    -0.377 OA
ATOM      4  O   UNL     1      -1.619 -10.058  11.696  0.00  0.00    -0.253 OA
ATOM      6  N   UNL     1      -2.825 -11.916  12.294  0.00  0.00    -0.297 N 
ATOM      7  N   UNL     1      -3.779 -10.280  10.878  0.00  0.00    -0.281 N 
ATOM     18  C   UNL     1      -2.667 -10.707  11.626  0.00  0.00    +0.302 C 
ATOM     19  C   UNL     1      -3.702  -9.014  10.147  0.00  0.00    +0.137 C 
ATOM     20  C   UNL     1      -5.107 -10.909  10.862  0.00  0.00    +0.137 C 
ATOM     21  C   UNL     1      -4.318  -9.145   8.762  0.00  0.00    +0.179 C 
ATOM     22  C   UNL     1      -5.677 -10.936   9.448  0.00  0.00    +0.179 C 
ATOM     25  H   UNL     1      -3.688 -12.438  12.252  0.00  0.00    +0.150 HD
ENDBRANCH  17   6
ENDBRANCH  13  17
TORSDOF 5
ENDMDL
MODEL 3
REMARK VINA RESULT:      -5.8      3.845      5.083
REMARK  Name = 75536745
REMARK  5 active torsions:
REMARK  status: ('A' for Active; 'I' for Inactive)
REMARK    1  A    between atoms: O_2  and  C_10
REMARK    2  A    between atoms: N_5  and  C_8
REMARK    3  A    between atoms: N_5  and  C_9
REMARK    4  A    between atoms: N_6  and  C_17
REMARK    5  A    between atoms: C_13  and  C_17
REMARK                            x       y       z     vdW  Elec       q    Type
REMARK                         _______ _______ _______ _____ _____    ______ ____
ROOT
ATOM      1  O   UNL     1      15.900   6.169  19.157  0.00  0.00    -0.371 OA
ATOM      9  C   UNL     1      16.961   6.758  21.199  0.00  0.00    +0.111 C 
ATOM     10  C   UNL     1      15.541   7.296  21.205  0.00  0.00    +0.164 C 
ATOM     13  C   UNL     1      14.889   6.415  20.148  0.00  0.00    +0.165 C 
ATOM     16  C   UNL     1      17.181   6.509  19.716  0.00  0.00    +0.181 C 
ENDROOT
BRANCH  10   2
ATOM      2  O   UNL     1      14.913   7.162  22.465  0.00  0.00    -0.388 OA
ATOM     24  H   UNL     1      15.102   7.959  22.988  0.00  0.00    +0.210 HD
ENDBRANCH  10   2
BRANCH   9   5
ATOM      5  N   UNL     1      17.934   7.675  21.770  0.00  0.00    -0.306 NA
ATOM     23  H   UNL     1      17.914   7.620  22.787  0.00  0.00    +0.123 HD
BRANCH   5   8
ATOM      8  C   UNL     1      19.271   7.390  21.280  0.00  0.00    +0.054 C 
ATOM     11  C   UNL     1      20.192   8.602  21.343  0.00  0.00    +0.019 C 
ATOM     12  C   UNL     1      20.009   6.373  22.140  0.00  0.00    +0.019 C 
ATOM     14  C   UNL     1      21.590   7.997  21.230  0.00  0.00    +0.002 C 
ATOM     15  C   UNL     1      21.472   6.560  21.744  0.00  0.00    +0.002 C 
ENDBRANCH   5   8
ENDBRANCH   9   5
BRANCH  13  17
ATOM     17  C   UNL     1      13.676   7.054  19.498  0.00  0.00    +0.140 C 
BRANCH  17   6
ATOM      3  O   UNL     1      14.484  12.318  15.915  0.00  0.00    -0.377 OA
ATOM      4  O   UNL     1      13.789   7.485  16.720  0.00  0.00    -0.253 OA
ATOM      6  N   UNL     1      14.018   8.302  18.852  0.00  0.00    -0.297 N 
ATOM      7  N   UNL     1      14.408   9.705  16.989  0.00  0.00    -0.281 N 
ATOM     18  C   UNL     1      14.051   8.432  17.468  0.00  0.00    +0.302 C 
ATOM     19  C   UNL     1      14.475   9.930  15.544  0.00  0.00    +0.137 C 
ATOM     20  C   UNL     1      14.879  10.836  17.801  0.00  0.00    +0.137 C 
ATOM     21  C   UNL     1      13.858  11.270  15.172  0.00  0.00    +0.179 C 
ATOM     22  C   UNL     1      14.265  12.145  17.315  0.00  0.00    +0.179 C 
ATOM     25  H   UNL     1      14.250   9.070  19.465  0.00  0.00    +0.150 HD
ENDBRANCH  17   6
ENDBRANCH  13  17
TORSDOF 5
ENDMDL
MODEL 4
REMARK VINA RESULT:      -5.7      3.584      6.255
REMARK  Name = 75536745
REMARK  5 active torsions:
REMARK  status: ('A' for Active; 'I' for Inactive)
REMARK    1  A    between atoms: O_2  and  C_10
REMARK    2  A    between atoms: N_5  and  C_8
REMARK    3  A    between atoms: N_5  and  C_9
REMARK    4  A    between atoms: N_6  and  C_17
REMARK    5  A    between atoms: C_13  and  C_17
REMARK                            x       y       z     vdW  Elec       q    Type
REMARK                         _______ _______ _______ _____ _____    ______ ____
ROOT
ATOM      1  O   UNL     1      14.022   7.280  19.354  0.00  0.00    -0.371 OA
ATOM      9  C   UNL     1      12.800   7.729  21.340  0.00  0.00    +0.111 C 
ATOM     10  C   UNL     1      11.925   8.040  20.140  0.00  0.00    +0.164 C 
ATOM     13  C   UNL     1      12.617   7.228  19.054  0.00  0.00    +0.165 C 
ATOM     16  C   UNL     1      14.183   7.726  20.711  0.00  0.00    +0.181 C 
ENDROOT
BRANCH  10   2
ATOM      2  O   UNL     1      10.581   7.638  20.325  0.00  0.00    -0.388 OA
ATOM     24  H   UNL     1      10.095   8.373  20.735  0.00  0.00    +0.210 HD
ENDBRANCH  10   2
BRANCH   9   5
ATOM      5  N   UNL     1      12.671   8.693  22.422  0.00  0.00    -0.306 NA
ATOM     23  H   UNL     1      13.533   8.729  22.965  0.00  0.00    +0.123 HD
BRANCH   5   8
ATOM      8  C   UNL     1      12.349  10.013  21.909  0.00  0.00    +0.054 C 
ATOM     11  C   UNL     1      11.092  10.598  22.540  0.00  0.00    +0.019 C 
ATOM     12  C   UNL     1      13.404  11.054  22.257  0.00  0.00    +0.019 C 
ATOM     14  C   UNL     1      11.192  12.089  22.226  0.00  0.00    +0.002 C 
ATOM     15  C   UNL     1      12.683  12.383  22.044  0.00  0.00    +0.002 C 
ENDBRANCH   5   8
ENDBRANCH   9   5
BRANCH  13  17
ATOM     17  C   UNL     1      12.370   7.763  17.655  0.00  0.00    +0.140 C 
BRANCH  17   6
ATOM      3  O   UNL     1      15.476  12.964  15.533  0.00  0.00    -0.377 OA
ATOM      4  O   UNL     1      13.726   8.343  15.259  0.00  0.00    -0.253 OA
ATOM      6  N   UNL     1      13.153   8.950  17.396  0.00  0.00    -0.297 N 
ATOM      7  N   UNL     1      14.524  10.360  16.083  0.00  0.00    -0.281 N 
ATOM     18  C   UNL     1      13.794   9.162  16.181  0.00  0.00    +0.302 C 
ATOM     19  C   UNL     1      15.236  10.661  14.839  0.00  0.00    +0.137 C 
ATOM     20  C   UNL     1      14.781  11.310  17.174  0.00  0.00    +0.137 C 
ATOM     21  C   UNL     1      15.065  12.122  14.453  0.00  0.00    +0.179 C 
ATOM     22  C   UNL     1      14.656  12.748  16.682  0.00  0.00    +0.179 C 
ATOM     25  H   UNL     1      13.223   9.610  18.157  0.00  0.00    +0.150 HD
ENDBRANCH  17   6
ENDBRANCH  13  17
TORSDOF 5
ENDMDL
MODEL 5
REMARK VINA RESULT:      -5.7     27.350     28.878
REMARK  Name = 75536745
REMARK  5 active torsions:
REMARK  status: ('A' for Active; 'I' for Inactive)
REMARK    1  A    between atoms: O_2  and  C_10
REMARK    2  A    between atoms: N_5  and  C_8
REMARK    3  A    between atoms: N_5  and  C_9
REMARK    4  A    between atoms: N_6  and  C_17
REMARK    5  A    between atoms: C_13  and  C_17
REMARK                            x       y       z     vdW  Elec       q    Type
REMARK                         _______ _______ _______ _____ _____    ______ ____
ROOT
ATOM      1  O   UNL     1      -3.126 -11.046  16.756  0.00  0.00    -0.371 OA
ATOM      9  C   UNL     1      -4.052 -10.555  14.625  0.00  0.00    +0.111 C 
ATOM     10  C   UNL     1      -5.155 -10.509  15.666  0.00  0.00    +0.164 C 
ATOM     13  C   UNL     1      -4.347 -10.311  16.942  0.00  0.00    +0.165 C 
ATOM     16  C   UNL     1      -2.981 -11.345  15.357  0.00  0.00    +0.181 C 
ENDROOT
BRANCH  10   2
ATOM      2  O   UNL     1      -6.067  -9.449  15.449  0.00  0.00    -0.388 OA
ATOM     24  H   UNL     1      -5.734  -8.660  15.908  0.00  0.00    +0.210 HD
ENDBRANCH  10   2
BRANCH   9   5
ATOM      5  N   UNL     1      -4.457 -11.174  13.373  0.00  0.00    -0.306 NA
ATOM     23  H   UNL     1      -5.426 -11.483  13.432  0.00  0.00    +0.123 HD
BRANCH   5   8
ATOM      8  C   UNL     1      -4.292 -10.256  12.260  0.00  0.00    +0.054 C 
ATOM     11  C   UNL     1      -2.839 -10.121  11.819  0.00  0.00    +0.019 C 
ATOM     12  C   UNL     1      -4.975 -10.743  10.989  0.00  0.00    +0.019 C 
ATOM     14  C   UNL     1      -2.942  -9.512  10.423  0.00  0.00    +0.002 C 
ATOM     15  C   UNL     1      -4.319  -9.914   9.887  0.00  0.00    +0.002 C 
ENDBRANCH   5   8
ENDBRANCH   9   5
BRANCH  13  17
ATOM     17  C   UNL     1      -5.060 -10.804  18.188  0.00  0.00    +0.140 C 
BRANCH  17   6
ATOM      3  O   UNL     1     -11.359  -9.749  18.822  0.00  0.00    -0.377 OA
ATOM      4  O   UNL     1      -6.959 -11.622  20.096  0.00  0.00    -0.253 OA
ATOM      6  N   UNL     1      -6.488 -10.596  18.098  0.00  0.00    -0.297 N 
ATOM      7  N   UNL     1      -8.722 -10.764  18.854  0.00  0.00    -0.281 N 
ATOM     18  C   UNL     1      -7.361 -11.033  19.087  0.00  0.00    +0.302 C 
ATOM     19  C   UNL     1      -9.713 -11.195  19.842  0.00  0.00    +0.137 C 
ATOM     20  C   UNL     1      -9.297 -10.210  17.620  0.00  0.00    +0.137 C 
ATOM     21  C   UNL     1     -10.762 -10.117  20.067  0.00  0.00    +0.179 C 
ATOM     22  C   UNL     1     -10.386  -9.191  17.940  0.00  0.00    +0.179 C 
ATOM     25  H   UNL     1      -6.817 -10.131  17.264  0.00  0.00    +0.150 HD
ENDBRANCH  17   6
ENDBRANCH  13  17
TORSDOF 5
ENDMDL
MODEL 6
REMARK VINA RESULT:      -5.6     26.470     28.458
REMARK  Name = 75536745
REMARK  5 active torsions:
REMARK  status: ('A' for Active; 'I' for Inactive)
REMARK    1  A    between atoms: O_2  and  C_10
REMARK    2  A    between atoms: N_5  and  C_8
REMARK    3  A    between atoms: N_5  and  C_9
REMARK    4  A    between atoms: N_6  and  C_17
REMARK    5  A    between atoms: C_13  and  C_17
REMARK                            x       y       z     vdW  Elec       q    Type
REMARK                         _______ _______ _______ _____ _____    ______ ____
ROOT
ATOM      1  O   UNL     1      -4.112 -12.305  15.864  0.00  0.00    -0.371 OA
ATOM      9  C   UNL     1      -2.194 -12.016  14.494  0.00  0.00    +0.111 C 
ATOM     10  C   UNL     1      -2.596 -10.672  15.071  0.00  0.00    +0.164 C 
ATOM     13  C   UNL     1      -3.433 -11.105  16.268  0.00  0.00    +0.165 C 
ATOM     16  C   UNL     1      -3.469 -12.820  14.685  0.00  0.00    +0.181 C 
ENDROOT
BRANCH  10   2
ATOM      2  O   UNL     1      -1.484  -9.889  15.460  0.00  0.00    -0.388 OA
ATOM     24  H   UNL     1      -1.647  -8.970  15.189  0.00  0.00    +0.210 HD
ENDBRANCH  10   2
BRANCH   9   5
ATOM      5  N   UNL     1      -1.767 -11.951  13.105  0.00  0.00    -0.306 NA
ATOM     23  H   UNL     1      -1.953 -12.838  12.639  0.00  0.00    +0.123 HD
BRANCH   5   8
ATOM      8  C   UNL     1      -2.435 -10.868  12.404  0.00  0.00    +0.054 C 
ATOM     11  C   UNL     1      -1.457  -9.920  11.720  0.00  0.00    +0.019 C 
ATOM     12  C   UNL     1      -3.286 -11.356  11.240  0.00  0.00    +0.019 C 
ATOM     14  C   UNL     1      -2.328  -9.172  10.714  0.00  0.00    +0.002 C 
ATOM     15  C   UNL     1      -3.507 -10.098  10.403  0.00  0.00    +0.002 C 
ENDBRANCH   5   8
ENDBRANCH   9   5
BRANCH  13  17
ATOM     17  C   UNL     1      -4.446 -10.062  16.701  0.00  0.00    +0.140 C 
BRANCH  17   6
ATOM      3  O   UNL     1      -9.481 -12.430  19.901  0.00  0.00    -0.377 OA
ATOM      4  O   UNL     1      -7.157  -9.318  16.834  0.00  0.00    -0.253 OA
ATOM      6  N   UNL     1      -5.431 -10.621  17.601  0.00  0.00    -0.297 N 
ATOM      7  N   UNL     1      -7.590 -10.831  18.541  0.00  0.00    -0.281 N 
ATOM     18  C   UNL     1      -6.754 -10.197  17.604  0.00  0.00    +0.302 C 
ATOM     19  C   UNL     1      -8.999 -10.441  18.617  0.00  0.00    +0.137 C 
ATOM     20  C   UNL     1      -7.163 -11.769  19.588  0.00  0.00    +0.137 C 
ATOM     21  C   UNL     1      -9.895 -11.660  18.770  0.00  0.00    +0.179 C 
ATOM     22  C   UNL     1      -8.153 -12.922  19.719  0.00  0.00    +0.179 C 
ATOM     25  H   UNL     1      -5.096 -11.326  18.241  0.00  0.00    +0.150 HD
ENDBRANCH  17   6
ENDBRANCH  13  17
TORSDOF 5
ENDMDL
MODEL 7
REMARK VINA RESULT:      -5.6     27.360     30.364
REMARK  Name = 75536745
REMARK  5 active torsions:
REMARK  status: ('A' for Active; 'I' for Inactive)
REMARK    1  A    between atoms: O_2  and  C_10
REMARK    2  A    between atoms: N_5  and  C_8
REMARK    3  A    between atoms: N_5  and  C_9
REMARK    4  A    between atoms: N_6  and  C_17
REMARK    5  A    between atoms: C_13  and  C_17
REMARK                            x       y       z     vdW  Elec       q    Type
REMARK                         _______ _______ _______ _____ _____    ______ ____
ROOT
ATOM      1  O   UNL     1      -8.598 -13.205  19.379  0.00  0.00    -0.371 OA
ATOM      9  C   UNL     1      -9.746 -11.141  19.628  0.00  0.00    +0.111 C 
ATOM     10  C   UNL     1      -8.296 -10.861  19.276  0.00  0.00    +0.164 C 
ATOM     13  C   UNL     1      -7.884 -12.189  18.655  0.00  0.00    +0.165 C 
ATOM     16  C   UNL     1      -9.666 -12.579  20.110  0.00  0.00    +0.181 C 
ENDROOT
BRANCH  10   2
ATOM      2  O   UNL     1      -8.152  -9.787  18.367  0.00  0.00    -0.388 OA
ATOM     24  H   UNL     1      -8.510  -8.984  18.783  0.00  0.00    +0.210 HD
ENDBRANCH  10   2
BRANCH   9   5
ATOM      5  N   UNL     1     -10.287 -10.236  20.629  0.00  0.00    -0.306 NA
ATOM     23  H   UNL     1      -9.626  -9.483  20.816  0.00  0.00    +0.123 HD
BRANCH   5   8
ATOM      8  C   UNL     1     -11.562  -9.687  20.202  0.00  0.00    +0.054 C 
ATOM     11  C   UNL     1     -11.793  -9.833  18.703  0.00  0.00    +0.019 C 
ATOM     12  C   UNL     1     -12.752 -10.433  20.790  0.00  0.00    +0.019 C 
ATOM     14  C   UNL     1     -13.298  -9.629  18.549  0.00  0.00    +0.002 C 
ATOM     15  C   UNL     1     -13.917 -10.017  19.895  0.00  0.00    +0.002 C 
ENDBRANCH   5   8
ENDBRANCH   9   5
BRANCH  13  17
ATOM     17  C   UNL     1      -6.392 -12.453  18.736  0.00  0.00    +0.140 C 
BRANCH  17   6
ATOM      3  O   UNL     1      -2.480 -10.500  14.037  0.00  0.00    -0.377 OA
ATOM      4  O   UNL     1      -3.647 -11.841  18.656  0.00  0.00    -0.253 OA
ATOM      6  N   UNL     1      -5.689 -11.876  17.611  0.00  0.00    -0.297 N 
ATOM      7  N   UNL     1      -3.789 -11.036  16.484  0.00  0.00    -0.281 N 
ATOM     18  C   UNL     1      -4.328 -11.603  17.653  0.00  0.00    +0.302 C 
ATOM     19  C   UNL     1      -2.362 -10.709  16.442  0.00  0.00    +0.137 C 
ATOM     20  C   UNL     1      -4.549 -10.583  15.310  0.00  0.00    +0.137 C 
ATOM     21  C   UNL     1      -1.751 -11.106  15.107  0.00  0.00    +0.179 C 
ATOM     22  C   UNL     1      -3.831 -10.962  14.020  0.00  0.00    +0.179 C 
ATOM     25  H   UNL     1      -6.251 -11.665  16.799  0.00  0.00    +0.150 HD
ENDBRANCH  17   6
ENDBRANCH  13  17
TORSDOF 5
ENDMDL
MODEL 8
REMARK VINA RESULT:      -5.6     26.909     28.887
REMARK  Name = 75536745
REMARK  5 active torsions:
REMARK  status: ('A' for Active; 'I' for Inactive)
REMARK    1  A    between atoms: O_2  and  C_10
REMARK    2  A    between atoms: N_5  and  C_8
REMARK    3  A    between atoms: N_5  and  C_9
REMARK    4  A    between atoms: N_6  and  C_17
REMARK    5  A    between atoms: C_13  and  C_17
REMARK                            x       y       z     vdW  Elec       q    Type
REMARK                         _______ _______ _______ _____ _____    ______ ____
ROOT
ATOM      1  O   UNL     1      -4.361 -10.858  14.077  0.00  0.00    -0.371 OA
ATOM      9  C   UNL     1      -4.071 -11.646  16.298  0.00  0.00    +0.111 C 
ATOM     10  C   UNL     1      -2.719 -11.599  15.610  0.00  0.00    +0.164 C 
ATOM     13  C   UNL     1      -3.001 -10.620  14.477  0.00  0.00    +0.165 C 
ATOM     16  C   UNL     1      -5.016 -11.616  15.109  0.00  0.00    +0.181 C 
ENDROOT
BRANCH  10   2
ATOM      2  O   UNL     1      -1.688 -11.137  16.461  0.00  0.00    -0.388 OA
ATOM     24  H   UNL     1      -1.585 -10.181  16.326  0.00  0.00    +0.210 HD
ENDBRANCH  10   2
BRANCH   9   5
ATOM      5  N   UNL     1      -4.256 -12.818  17.140  0.00  0.00    -0.306 NA
ATOM     23  H   UNL     1      -3.354 -13.238  17.360  0.00  0.00    +0.123 HD
BRANCH   5   8
ATOM      8  C   UNL     1      -4.960 -12.477  18.363  0.00  0.00    +0.054 C 
ATOM     11  C   UNL     1      -4.958 -10.980  18.644  0.00  0.00    +0.019 C 
ATOM     12  C   UNL     1      -6.448 -12.795  18.294  0.00  0.00    +0.019 C 
ATOM     14  C   UNL     1      -6.083 -10.804  19.661  0.00  0.00    +0.002 C 
ATOM     15  C   UNL     1      -7.045 -11.974  19.435  0.00  0.00    +0.002 C 
ENDBRANCH   5   8
ENDBRANCH   9   5
BRANCH  13  17
ATOM     17  C   UNL     1      -2.077 -10.797  13.287  0.00  0.00    +0.140 C 
BRANCH  17   6
ATOM      3  O   UNL     1      -5.436  -9.551   7.961  0.00  0.00    -0.377 OA
ATOM      4  O   UNL     1      -3.096 -12.431  11.235  0.00  0.00    -0.253 OA
ATOM      6  N   UNL     1      -2.692 -10.330  12.064  0.00  0.00    -0.297 N 
ATOM      7  N   UNL     1      -3.737 -10.600   9.961  0.00  0.00    -0.281 N 
ATOM     18  C   UNL     1      -3.172 -11.205  11.097  0.00  0.00    +0.302 C 
ATOM     19  C   UNL     1      -4.262 -11.448   8.888  0.00  0.00    +0.137 C 
ATOM     20  C   UNL     1      -3.730  -9.164   9.649  0.00  0.00    +0.137 C 
ATOM     21  C   UNL     1      -5.586 -10.912   8.368  0.00  0.00    +0.179 C 
ATOM     22  C   UNL     1      -5.072  -8.729   9.070  0.00  0.00    +0.179 C 
ATOM     25  H   UNL     1      -2.737  -9.328  11.945  0.00  0.00    +0.150 HD
ENDBRANCH  17   6
ENDBRANCH  13  17
TORSDOF 5
ENDMDL
MODEL 9
REMARK VINA RESULT:      -5.5     28.276     30.601
REMARK  Name = 75536745
REMARK  5 active torsions:
REMARK  status: ('A' for Active; 'I' for Inactive)
REMARK    1  A    between atoms: O_2  and  C_10
REMARK    2  A    between atoms: N_5  and  C_8
REMARK    3  A    between atoms: N_5  and  C_9
REMARK    4  A    between atoms: N_6  and  C_17
REMARK    5  A    between atoms: C_13  and  C_17
REMARK                            x       y       z     vdW  Elec       q    Type
REMARK                         _______ _______ _______ _____ _____    ______ ____
ROOT
ATOM      1  O   UNL     1     -10.198 -12.568  18.261  0.00  0.00    -0.371 OA
ATOM      9  C   UNL     1      -8.643 -11.446  19.663  0.00  0.00    +0.111 C 
ATOM     10  C   UNL     1      -9.913 -10.620  19.571  0.00  0.00    +0.164 C 
ATOM     13  C   UNL     1     -10.918 -11.674  19.126  0.00  0.00    +0.165 C 
ATOM     16  C   UNL     1      -8.789 -12.356  18.455  0.00  0.00    +0.181 C 
ENDROOT
BRANCH  10   2
ATOM      2  O   UNL     1     -10.274 -10.035  20.807  0.00  0.00    -0.388 OA
ATOM     24  H   UNL     1     -10.906 -10.624  21.252  0.00  0.00    +0.210 HD
ENDBRANCH  10   2
BRANCH   9   5
ATOM      5  N   UNL     1      -7.426 -10.651  19.630  0.00  0.00    -0.306 NA
ATOM     23  H   UNL     1      -6.791 -10.950  20.370  0.00  0.00    +0.123 HD
BRANCH   5   8
ATOM      8  C   UNL     1      -6.771 -10.751  18.338  0.00  0.00    +0.054 C 
ATOM     11  C   UNL     1      -7.054  -9.553  17.441  0.00  0.00    +0.019 C 
ATOM     12  C   UNL     1      -5.252 -10.730  18.444  0.00  0.00    +0.019 C 
ATOM     14  C   UNL     1      -5.959  -9.632  16.379  0.00  0.00    +0.002 C 
ATOM     15  C   UNL     1      -4.797 -10.391  17.026  0.00  0.00    +0.002 C 
ENDBRANCH   5   8
ENDBRANCH   9   5
BRANCH  13  17
ATOM     17  C   UNL     1     -12.110 -11.094  18.388  0.00  0.00    +0.140 C 
BRANCH  17   6
ATOM      3  O   UNL     1     -11.389  -5.803  14.826  0.00  0.00    -0.377 OA
ATOM      4  O   UNL     1     -12.202 -10.620  15.615  0.00  0.00    -0.253 OA
ATOM      6  N   UNL     1     -11.773  -9.849  17.733  0.00  0.00    -0.297 N 
ATOM      7  N   UNL     1     -11.480  -8.429  15.866  0.00  0.00    -0.281 N 
ATOM     18  C   UNL     1     -11.845  -9.696  16.354  0.00  0.00    +0.302 C 
ATOM     19  C   UNL     1     -11.520  -8.182  14.423  0.00  0.00    +0.137 C 
ATOM     20  C   UNL     1     -10.902  -7.331  16.653  0.00  0.00    +0.137 C 
ATOM     21  C   UNL     1     -12.112  -6.814  14.121  0.00  0.00    +0.179 C 
ATOM     22  C   UNL     1     -11.502  -5.992  16.237  0.00  0.00    +0.179 C 
ATOM     25  H   UNL     1     -11.464  -9.101  18.337  0.00  0.00    +0.150 HD
ENDBRANCH  17   6
ENDBRANCH  13  17
TORSDOF 5
ENDMDL
MODEL 10
REMARK VINA RESULT:      -5.5     27.166     28.715
REMARK  Name = 75536745
REMARK  5 active torsions:
REMARK  status: ('A' for Active; 'I' for Inactive)
REMARK    1  A    between atoms: O_2  and  C_10
REMARK    2  A    between atoms: N_5  and  C_8
REMARK    3  A    between atoms: N_5  and  C_9
REMARK    4  A    between atoms: N_6  and  C_17
REMARK    5  A    between atoms: C_13  and  C_17
REMARK                            x       y       z     vdW  Elec       q    Type
REMARK                         _______ _______ _______ _____ _____    ______ ____
ROOT
ATOM      1  O   UNL     1      -3.146 -13.989  13.055  0.00  0.00    -0.371 OA
ATOM      9  C   UNL     1      -2.078 -11.874  13.204  0.00  0.00    +0.111 C 
ATOM     10  C   UNL     1      -2.845 -12.132  14.488  0.00  0.00    +0.164 C 
ATOM     13  C   UNL     1      -2.991 -13.647  14.442  0.00  0.00    +0.165 C 
ATOM     16  C   UNL     1      -2.732 -12.866  12.258  0.00  0.00    +0.181 C 
ENDROOT
BRANCH  10   2
ATOM      2  O   UNL     1      -2.143 -11.704  15.639  0.00  0.00    -0.388 OA
ATOM     24  H   UNL     1      -1.480 -11.047  15.366  0.00  0.00    +0.210 HD
ENDBRANCH  10   2
BRANCH   9   5
ATOM      5  N   UNL     1      -2.170 -10.499  12.735  0.00  0.00    -0.306 NA
ATOM     23  H   UNL     1      -1.241 -10.139  12.520  0.00  0.00    +0.123 HD
BRANCH   5   8
ATOM      8  C   UNL     1      -3.027 -10.402  11.567  0.00  0.00    +0.054 C 
ATOM     11  C   UNL     1      -4.421  -9.885  11.902  0.00  0.00    +0.019 C 
ATOM     12  C   UNL     1      -2.532  -9.377  10.556  0.00  0.00    +0.019 C 
ATOM     14  C   UNL     1      -4.973  -9.441  10.550  0.00  0.00    +0.002 C 
ATOM     15  C   UNL     1      -3.755  -9.113   9.682  0.00  0.00    +0.002 C 
ENDBRANCH   5   8
ENDBRANCH   9   5
BRANCH  13  17
ATOM     17  C   UNL     1      -4.180 -14.160  15.234  0.00  0.00    +0.140 C 
BRANCH  17   6
ATOM      3  O   UNL     1      -6.674 -10.583  19.944  0.00  0.00    -0.377 OA
ATOM      4  O   UNL     1      -6.653 -12.855  15.548  0.00  0.00    -0.253 OA
ATOM      6  N   UNL     1      -4.527 -13.260  16.311  0.00  0.00    -0.297 N 
ATOM      7  N   UNL     1      -5.961 -11.799  17.494  0.00  0.00    -0.281 N 
ATOM     18  C   UNL     1      -5.775 -12.654  16.393  0.00  0.00    +0.302 C 
ATOM     19  C   UNL     1      -7.244 -11.113  17.656  0.00  0.00    +0.137 C 
ATOM     20  C   UNL     1      -4.928 -11.387  18.456  0.00  0.00    +0.137 C 
ATOM     21  C   UNL     1      -7.694 -11.134  19.109  0.00  0.00    +0.179 C 
ATOM     22  C   UNL     1      -5.484 -11.370  19.875  0.00  0.00    +0.179 C 
ATOM     25  H   UNL     1      -3.802 -13.081  16.991  0.00  0.00    +0.150 HD
ENDBRANCH  17   6
ENDBRANCH  13  17
TORSDOF 5
ENDMDL
