MODEL 1
REMARK VINA RESULT:      -7.8      0.000      0.000
REMARK  Name = 75536099
REMARK  9 active torsions:
REMARK  status: ('A' for Active; 'I' for Inactive)
REMARK    1  A    between atoms: S_1  and  N_10
REMARK    2  A    between atoms: S_1  and  C_20
REMARK    3  A    between atoms: O_5  and  C_14
REMARK    4  A    between atoms: O_6  and  C_16
REMARK    5  A    between atoms: O_9  and  C_28
REMARK    6  A    between atoms: O_9  and  C_29
REMARK    7  A    between atoms: N_10  and  C_12
REMARK    8  A    between atoms: C_13  and  C_17
REMARK    9  A    between atoms: C_22  and  C_25
REMARK                            x       y       z     vdW  Elec       q    Type
REMARK                         _______ _______ _______ _____ _____    ______ ____
ROOT
ATOM     12  C   UNL     1      12.505   8.432  19.207  0.00  0.00    +0.115 C 
ATOM     13  C   UNL     1      13.850   9.046  18.729  0.00  0.00    +0.044 C 
ATOM     14  C   UNL     1      11.642   8.282  17.947  0.00  0.00    +0.162 C 
ATOM     15  C   UNL     1      13.752   9.105  17.195  0.00  0.00    +0.044 C 
ATOM     16  C   UNL     1      12.259   9.262  16.951  0.00  0.00    +0.145 C 
ENDROOT
BRANCH  13  17
ATOM     11  N   UNL     1      17.104   8.304  20.531  0.00  0.00    -0.251 NA
ATOM     17  C   UNL     1      15.073   8.302  19.218  0.00  0.00    -0.024 A 
ATOM     18  C   UNL     1      15.313   6.987  18.836  0.00  0.00    +0.007 A 
ATOM     19  C   UNL     1      15.991   8.911  20.060  0.00  0.00    +0.115 A 
ATOM     21  C   UNL     1      16.447   6.329  19.301  0.00  0.00    +0.032 A 
ATOM     22  C   UNL     1      17.303   7.025  20.139  0.00  0.00    +0.144 A 
BRANCH  22  25
ATOM      2  F   UNL     1      19.659   7.085  20.443  0.00  0.00    -0.164 F 
ATOM      3  F   UNL     1      18.495   6.113  22.001  0.00  0.00    -0.164 F 
ATOM      4  F   UNL     1      18.767   5.135  20.084  0.00  0.00    -0.164 F 
ATOM     25  C   UNL     1      18.529   6.351  20.657  0.00  0.00    +0.434 C 
ENDBRANCH  22  25
ENDBRANCH  13  17
BRANCH  14   5
ATOM      5  O   UNL     1      11.771   6.941  17.479  0.00  0.00    -0.388 OA
ATOM     31  H   UNL     1      11.913   6.375  18.256  0.00  0.00    +0.210 HD
ENDBRANCH  14   5
BRANCH  16   6
ATOM      6  O   UNL     1      11.919   8.967  15.613  0.00  0.00    -0.389 OA
ATOM     32  H   UNL     1      11.106   8.435  15.628  0.00  0.00    +0.210 HD
ENDBRANCH  16   6
BRANCH  12  10
ATOM     10  N   UNL     1      11.843   9.373  20.149  0.00  0.00    -0.184 NA
ATOM     30  H   UNL     1      11.554  10.288  19.787  0.00  0.00    +0.148 HD
BRANCH  10   1
ATOM      1  S   UNL     1      11.898   9.074  21.821  0.00  0.00    +0.059 S 
ATOM      7  O   UNL     1      13.272   8.842  22.224  0.00  0.00    -0.153 OA
ATOM      8  O   UNL     1      10.867   8.111  22.157  0.00  0.00    -0.153 OA
BRANCH   1  20
ATOM     20  C   UNL     1      11.389  10.631  22.486  0.00  0.00    +0.105 A 
ATOM     23  C   UNL     1      11.350  11.758  21.666  0.00  0.00    +0.032 A 
ATOM     24  C   UNL     1      11.031  10.731  23.829  0.00  0.00    +0.032 A 
ATOM     26  C   UNL     1      10.950  12.988  22.191  0.00  0.00    +0.047 A 
ATOM     27  C   UNL     1      10.632  11.960  24.355  0.00  0.00    +0.047 A 
ATOM     28  C   UNL     1      10.592  13.088  23.536  0.00  0.00    +0.120 A 
BRANCH  28   9
ATOM      9  O   UNL     1      10.202  14.287  24.048  0.00  0.00    -0.495 OA
ATOM     29  C   UNL     1       9.449  15.146  23.191  0.00  0.00    +0.277 C 
ENDBRANCH  28   9
ENDBRANCH   1  20
ENDBRANCH  10   1
ENDBRANCH  12  10
TORSDOF 8
ENDMDL
MODEL 2
REMARK VINA RESULT:      -6.9     17.756     20.662
REMARK  Name = 75536099
REMARK  9 active torsions:
REMARK  status: ('A' for Active; 'I' for Inactive)
REMARK    1  A    between atoms: S_1  and  N_10
REMARK    2  A    between atoms: S_1  and  C_20
REMARK    3  A    between atoms: O_5  and  C_14
REMARK    4  A    between atoms: O_6  and  C_16
REMARK    5  A    between atoms: O_9  and  C_28
REMARK    6  A    between atoms: O_9  and  C_29
REMARK    7  A    between atoms: N_10  and  C_12
REMARK    8  A    between atoms: C_13  and  C_17
REMARK    9  A    between atoms: C_22  and  C_25
REMARK                            x       y       z     vdW  Elec       q    Type
REMARK                         _______ _______ _______ _____ _____    ______ ____
ROOT
ATOM     12  C   UNL     1      12.932   5.427   0.918  0.00  0.00    +0.115 C 
ATOM     13  C   UNL     1      13.232   4.021   0.328  0.00  0.00    +0.044 C 
ATOM     14  C   UNL     1      14.270   6.177   0.915  0.00  0.00    +0.162 C 
ATOM     15  C   UNL     1      14.706   4.067  -0.110  0.00  0.00    +0.044 C 
ATOM     16  C   UNL     1      15.320   5.070   0.854  0.00  0.00    +0.145 C 
ENDROOT
BRANCH  13  17
ATOM     11  N   UNL     1      10.246   3.997  -2.011  0.00  0.00    -0.251 NA
ATOM     17  C   UNL     1      12.295   3.609  -0.786  0.00  0.00    -0.024 A 
ATOM     18  C   UNL     1      12.578   2.513  -1.593  0.00  0.00    +0.007 A 
ATOM     19  C   UNL     1      11.126   4.313  -1.034  0.00  0.00    +0.115 A 
ATOM     21  C   UNL     1      11.697   2.158  -2.609  0.00  0.00    +0.032 A 
ATOM     22  C   UNL     1      10.555   2.925  -2.775  0.00  0.00    +0.144 A 
BRANCH  22  25
ATOM      2  F   UNL     1       8.594   3.500  -3.989  0.00  0.00    -0.164 F 
ATOM      3  F   UNL     1      10.160   2.468  -5.090  0.00  0.00    -0.164 F 
ATOM      4  F   UNL     1       8.953   1.381  -3.652  0.00  0.00    -0.164 F 
ATOM     25  C   UNL     1       9.587   2.574  -3.855  0.00  0.00    +0.434 C 
ENDBRANCH  22  25
ENDBRANCH  13  17
BRANCH  14   5
ATOM      5  O   UNL     1      14.322   6.985  -0.259  0.00  0.00    -0.388 OA
ATOM     31  H   UNL     1      15.251   7.229  -0.404  0.00  0.00    +0.210 HD
ENDBRANCH  14   5
BRANCH  16   6
ATOM      6  O   UNL     1      16.573   5.530   0.393  0.00  0.00    -0.389 OA
ATOM     32  H   UNL     1      17.232   5.323   1.078  0.00  0.00    +0.210 HD
ENDBRANCH  16   6
BRANCH  12  10
ATOM     10  N   UNL     1      12.453   5.279   2.318  0.00  0.00    -0.184 NA
ATOM     30  H   UNL     1      13.147   5.062   3.041  0.00  0.00    +0.148 HD
BRANCH  10   1
ATOM      1  S   UNL     1      10.790   5.121   2.630  0.00  0.00    +0.059 S 
ATOM      7  O   UNL     1      10.377   3.756   2.368  0.00  0.00    -0.153 OA
ATOM      8  O   UNL     1      10.091   6.227   2.005  0.00  0.00    -0.153 OA
BRANCH   1  20
ATOM     20  C   UNL     1      10.721   5.387   4.377  0.00  0.00    +0.105 A 
ATOM     23  C   UNL     1       9.840   4.642   5.160  0.00  0.00    +0.032 A 
ATOM     24  C   UNL     1      11.545   6.342   4.970  0.00  0.00    +0.032 A 
ATOM     26  C   UNL     1       9.784   4.852   6.538  0.00  0.00    +0.047 A 
ATOM     27  C   UNL     1      11.489   6.554   6.348  0.00  0.00    +0.047 A 
ATOM     28  C   UNL     1      10.608   5.809   7.131  0.00  0.00    +0.120 A 
BRANCH  28   9
ATOM      9  O   UNL     1      10.553   6.015   8.476  0.00  0.00    -0.495 OA
ATOM     29  C   UNL     1       9.697   5.156   9.230  0.00  0.00    +0.277 C 
ENDBRANCH  28   9
ENDBRANCH   1  20
ENDBRANCH  10   1
ENDBRANCH  12  10
TORSDOF 8
ENDMDL
MODEL 3
REMARK VINA RESULT:      -6.9     14.395     17.558
REMARK  Name = 75536099
REMARK  9 active torsions:
REMARK  status: ('A' for Active; 'I' for Inactive)
REMARK    1  A    between atoms: S_1  and  N_10
REMARK    2  A    between atoms: S_1  and  C_20
REMARK    3  A    between atoms: O_5  and  C_14
REMARK    4  A    between atoms: O_6  and  C_16
REMARK    5  A    between atoms: O_9  and  C_28
REMARK    6  A    between atoms: O_9  and  C_29
REMARK    7  A    between atoms: N_10  and  C_12
REMARK    8  A    between atoms: C_13  and  C_17
REMARK    9  A    between atoms: C_22  and  C_25
REMARK                            x       y       z     vdW  Elec       q    Type
REMARK                         _______ _______ _______ _____ _____    ______ ____
ROOT
ATOM     12  C   UNL     1      10.665   6.263   1.601  0.00  0.00    +0.115 C 
ATOM     13  C   UNL     1      11.738   5.814   2.632  0.00  0.00    +0.044 C 
ATOM     14  C   UNL     1      10.775   5.280   0.428  0.00  0.00    +0.162 C 
ATOM     15  C   UNL     1      12.332   4.514   2.065  0.00  0.00    +0.044 C 
ATOM     16  C   UNL     1      12.177   4.691   0.562  0.00  0.00    +0.145 C 
ENDROOT
BRANCH  13  17
ATOM     11  N   UNL     1      11.321   6.304   6.369  0.00  0.00    -0.251 NA
ATOM     17  C   UNL     1      11.210   5.661   4.041  0.00  0.00    -0.024 A 
ATOM     18  C   UNL     1      10.174   4.778   4.327  0.00  0.00    +0.007 A 
ATOM     19  C   UNL     1      11.745   6.394   5.089  0.00  0.00    +0.115 A 
ATOM     21  C   UNL     1       9.710   4.659   5.632  0.00  0.00    +0.032 A 
ATOM     22  C   UNL     1      10.311   5.436   6.608  0.00  0.00    +0.144 A 
BRANCH  22  25
ATOM      2  F   UNL     1      10.762   5.794   8.914  0.00  0.00    -0.164 F 
ATOM      3  F   UNL     1       8.701   6.043   8.269  0.00  0.00    -0.164 F 
ATOM      4  F   UNL     1       9.556   4.056   8.409  0.00  0.00    -0.164 F 
ATOM     25  C   UNL     1       9.840   5.334   8.021  0.00  0.00    +0.434 C 
ENDBRANCH  22  25
ENDBRANCH  13  17
BRANCH  14   5
ATOM      5  O   UNL     1       9.784   4.269   0.604  0.00  0.00    -0.388 OA
ATOM     31  H   UNL     1      10.132   3.450   0.213  0.00  0.00    +0.210 HD
ENDBRANCH  14   5
BRANCH  16   6
ATOM      6  O   UNL     1      12.321   3.464  -0.122  0.00  0.00    -0.389 OA
ATOM     32  H   UNL     1      11.705   3.473  -0.874  0.00  0.00    +0.210 HD
ENDBRANCH  16   6
BRANCH  12  10
ATOM     10  N   UNL     1      10.985   7.636   1.126  0.00  0.00    -0.184 NA
ATOM     30  H   UNL     1      11.966   7.856   0.925  0.00  0.00    +0.148 HD
BRANCH  10   1
ATOM      1  S   UNL     1       9.824   8.869   1.262  0.00  0.00    +0.059 S 
ATOM      7  O   UNL     1       8.621   8.480   0.553  0.00  0.00    -0.153 OA
ATOM      8  O   UNL     1      10.460  10.141   0.977  0.00  0.00    -0.153 OA
BRANCH   1  20
ATOM     20  C   UNL     1       9.470   8.846   2.994  0.00  0.00    +0.105 A 
ATOM     23  C   UNL     1       8.417   8.070   3.479  0.00  0.00    +0.032 A 
ATOM     24  C   UNL     1      10.240   9.604   3.874  0.00  0.00    +0.032 A 
ATOM     26  C   UNL     1       8.135   8.053   4.845  0.00  0.00    +0.047 A 
ATOM     27  C   UNL     1       9.959   9.588   5.240  0.00  0.00    +0.047 A 
ATOM     28  C   UNL     1       8.906   8.812   5.725  0.00  0.00    +0.120 A 
BRANCH  28   9
ATOM      9  O   UNL     1       8.631   8.796   7.058  0.00  0.00    -0.495 OA
ATOM     29  C   UNL     1       9.684   9.179   7.943  0.00  0.00    +0.277 C 
ENDBRANCH  28   9
ENDBRANCH   1  20
ENDBRANCH  10   1
ENDBRANCH  12  10
TORSDOF 8
ENDMDL
MODEL 4
REMARK VINA RESULT:      -6.8      1.561      2.035
REMARK  Name = 75536099
REMARK  9 active torsions:
REMARK  status: ('A' for Active; 'I' for Inactive)
REMARK    1  A    between atoms: S_1  and  N_10
REMARK    2  A    between atoms: S_1  and  C_20
REMARK    3  A    between atoms: O_5  and  C_14
REMARK    4  A    between atoms: O_6  and  C_16
REMARK    5  A    between atoms: O_9  and  C_28
REMARK    6  A    between atoms: O_9  and  C_29
REMARK    7  A    between atoms: N_10  and  C_12
REMARK    8  A    between atoms: C_13  and  C_17
REMARK    9  A    between atoms: C_22  and  C_25
REMARK                            x       y       z     vdW  Elec       q    Type
REMARK                         _______ _______ _______ _____ _____    ______ ____
ROOT
ATOM     12  C   UNL     1      13.009   8.419  18.861  0.00  0.00    +0.115 C 
ATOM     13  C   UNL     1      14.084   9.516  19.095  0.00  0.00    +0.044 C 
ATOM     14  C   UNL     1      12.570   8.567  17.398  0.00  0.00    +0.162 C 
ATOM     15  C   UNL     1      14.312  10.166  17.719  0.00  0.00    +0.044 C 
ATOM     16  C   UNL     1      12.966   9.996  17.031  0.00  0.00    +0.145 C 
ENDROOT
BRANCH  13  17
ATOM     11  N   UNL     1      16.851   7.149  20.155  0.00  0.00    -0.251 NA
ATOM     17  C   UNL     1      15.359   9.003  19.726  0.00  0.00    -0.024 A 
ATOM     18  C   UNL     1      16.199   9.853  20.439  0.00  0.00    +0.007 A 
ATOM     19  C   UNL     1      15.728   7.672  19.614  0.00  0.00    +0.115 A 
ATOM     21  C   UNL     1      17.365   9.352  21.008  0.00  0.00    +0.032 A 
ATOM     22  C   UNL     1      17.643   8.005  20.840  0.00  0.00    +0.144 A 
BRANCH  22  25
ATOM      2  F   UNL     1      19.521   8.313  22.263  0.00  0.00    -0.164 F 
ATOM      3  F   UNL     1      18.665   6.316  22.190  0.00  0.00    -0.164 F 
ATOM      4  F   UNL     1      19.815   7.060  20.509  0.00  0.00    -0.164 F 
ATOM     25  C   UNL     1      18.885   7.433  21.437  0.00  0.00    +0.434 C 
ENDBRANCH  22  25
ENDBRANCH  13  17
BRANCH  14   5
ATOM      5  O   UNL     1      13.304   7.625  16.619  0.00  0.00    -0.388 OA
ATOM     31  H   UNL     1      14.091   8.081  16.276  0.00  0.00    +0.210 HD
ENDBRANCH  14   5
BRANCH  16   6
ATOM      6  O   UNL     1      13.069  10.192  15.637  0.00  0.00    -0.389 OA
ATOM     32  H   UNL     1      13.969   9.937  15.370  0.00  0.00    +0.210 HD
ENDBRANCH  16   6
BRANCH  12  10
ATOM     10  N   UNL     1      11.847   8.673  19.753  0.00  0.00    -0.184 NA
ATOM     30  H   UNL     1      11.175   9.394  19.470  0.00  0.00    +0.148 HD
BRANCH  10   1
ATOM      1  S   UNL     1      11.841   8.049  21.333  0.00  0.00    +0.059 S 
ATOM      7  O   UNL     1      13.048   7.273  21.550  0.00  0.00    -0.153 OA
ATOM      8  O   UNL     1      10.541   7.464  21.599  0.00  0.00    -0.153 OA
BRANCH   1  20
ATOM     20  C   UNL     1      11.956   9.520  22.307  0.00  0.00    +0.105 A 
ATOM     23  C   UNL     1      10.808  10.068  22.879  0.00  0.00    +0.032 A 
ATOM     24  C   UNL     1      13.192  10.134  22.500  0.00  0.00    +0.032 A 
ATOM     26  C   UNL     1      10.897  11.230  23.645  0.00  0.00    +0.047 A 
ATOM     27  C   UNL     1      13.283  11.297  23.266  0.00  0.00    +0.047 A 
ATOM     28  C   UNL     1      12.135  11.844  23.838  0.00  0.00    +0.120 A 
BRANCH  28   9
ATOM      9  O   UNL     1      12.222  12.978  24.586  0.00  0.00    -0.495 OA
ATOM     29  C   UNL     1      12.934  12.889  25.820  0.00  0.00    +0.277 C 
ENDBRANCH  28   9
ENDBRANCH   1  20
ENDBRANCH  10   1
ENDBRANCH  12  10
TORSDOF 8
ENDMDL
MODEL 5
REMARK VINA RESULT:      -6.8      4.893      7.769
REMARK  Name = 75536099
REMARK  9 active torsions:
REMARK  status: ('A' for Active; 'I' for Inactive)
REMARK    1  A    between atoms: S_1  and  N_10
REMARK    2  A    between atoms: S_1  and  C_20
REMARK    3  A    between atoms: O_5  and  C_14
REMARK    4  A    between atoms: O_6  and  C_16
REMARK    5  A    between atoms: O_9  and  C_28
REMARK    6  A    between atoms: O_9  and  C_29
REMARK    7  A    between atoms: N_10  and  C_12
REMARK    8  A    between atoms: C_13  and  C_17
REMARK    9  A    between atoms: C_22  and  C_25
REMARK                            x       y       z     vdW  Elec       q    Type
REMARK                         _______ _______ _______ _____ _____    ______ ____
ROOT
ATOM     12  C   UNL     1      14.279   8.289  18.318  0.00  0.00    +0.115 C 
ATOM     13  C   UNL     1      13.846   9.778  18.219  0.00  0.00    +0.044 C 
ATOM     14  C   UNL     1      13.045   7.525  18.815  0.00  0.00    +0.162 C 
ATOM     15  C   UNL     1      12.342   9.789  18.541  0.00  0.00    +0.044 C 
ATOM     16  C   UNL     1      12.181   8.599  19.474  0.00  0.00    +0.145 C 
ENDROOT
BRANCH  13  17
ATOM     11  N   UNL     1      14.658  10.180  14.536  0.00  0.00    -0.251 NA
ATOM     17  C   UNL     1      14.173  10.427  16.892  0.00  0.00    -0.024 A 
ATOM     18  C   UNL     1      14.294  11.808  16.780  0.00  0.00    +0.007 A 
ATOM     19  C   UNL     1      14.363   9.664  15.750  0.00  0.00    +0.115 A 
ATOM     21  C   UNL     1      14.596  12.376  15.547  0.00  0.00    +0.032 A 
ATOM     22  C   UNL     1      14.767  11.527  14.466  0.00  0.00    +0.144 A 
BRANCH  22  25
ATOM      2  F   UNL     1      15.880  11.274  12.381  0.00  0.00    -0.164 F 
ATOM      3  F   UNL     1      13.992  12.352  12.358  0.00  0.00    -0.164 F 
ATOM      4  F   UNL     1      15.761  13.289  13.191  0.00  0.00    -0.164 F 
ATOM     25  C   UNL     1      15.092  12.101  13.127  0.00  0.00    +0.434 C 
ENDBRANCH  22  25
ENDBRANCH  13  17
BRANCH  14   5
ATOM      5  O   UNL     1      12.381   6.971  17.682  0.00  0.00    -0.388 OA
ATOM     31  H   UNL     1      11.814   7.666  17.307  0.00  0.00    +0.210 HD
ENDBRANCH  14   5
BRANCH  16   6
ATOM      6  O   UNL     1      10.828   8.213  19.593  0.00  0.00    -0.389 OA
ATOM     32  H   UNL     1      10.655   8.038  20.534  0.00  0.00    +0.210 HD
ENDBRANCH  16   6
BRANCH  12  10
ATOM     10  N   UNL     1      15.374   8.161  19.315  0.00  0.00    -0.184 NA
ATOM     30  H   UNL     1      15.894   9.009  19.566  0.00  0.00    +0.148 HD
BRANCH  10   1
ATOM      1  S   UNL     1      15.960   6.623  19.736  0.00  0.00    +0.059 S 
ATOM      7  O   UNL     1      16.176   5.843  18.533  0.00  0.00    -0.153 OA
ATOM      8  O   UNL     1      15.148   6.093  20.813  0.00  0.00    -0.153 OA
BRANCH   1  20
ATOM     20  C   UNL     1      17.542   7.012  20.425  0.00  0.00    +0.105 A 
ATOM     23  C   UNL     1      17.700   8.160  21.200  0.00  0.00    +0.032 A 
ATOM     24  C   UNL     1      18.629   6.173  20.191  0.00  0.00    +0.032 A 
ATOM     26  C   UNL     1      18.948   8.469  21.742  0.00  0.00    +0.047 A 
ATOM     27  C   UNL     1      19.878   6.480  20.732  0.00  0.00    +0.047 A 
ATOM     28  C   UNL     1      20.037   7.629  21.507  0.00  0.00    +0.120 A 
BRANCH  28   9
ATOM      9  O   UNL     1      21.254   7.930  22.036  0.00  0.00    -0.495 OA
ATOM     29  C   UNL     1      21.829   6.975  22.929  0.00  0.00    +0.277 C 
ENDBRANCH  28   9
ENDBRANCH   1  20
ENDBRANCH  10   1
ENDBRANCH  12  10
TORSDOF 8
ENDMDL
MODEL 6
REMARK VINA RESULT:      -6.6     16.549     19.461
REMARK  Name = 75536099
REMARK  9 active torsions:
REMARK  status: ('A' for Active; 'I' for Inactive)
REMARK    1  A    between atoms: S_1  and  N_10
REMARK    2  A    between atoms: S_1  and  C_20
REMARK    3  A    between atoms: O_5  and  C_14
REMARK    4  A    between atoms: O_6  and  C_16
REMARK    5  A    between atoms: O_9  and  C_28
REMARK    6  A    between atoms: O_9  and  C_29
REMARK    7  A    between atoms: N_10  and  C_12
REMARK    8  A    between atoms: C_13  and  C_17
REMARK    9  A    between atoms: C_22  and  C_25
REMARK                            x       y       z     vdW  Elec       q    Type
REMARK                         _______ _______ _______ _____ _____    ______ ____
ROOT
ATOM     12  C   UNL     1      12.597   6.056   2.190  0.00  0.00    +0.115 C 
ATOM     13  C   UNL     1      13.293   4.788   1.624  0.00  0.00    +0.044 C 
ATOM     14  C   UNL     1      13.705   7.105   2.355  0.00  0.00    +0.162 C 
ATOM     15  C   UNL     1      14.752   5.202   1.366  0.00  0.00    +0.044 C 
ATOM     16  C   UNL     1      14.992   6.284   2.408  0.00  0.00    +0.145 C 
ENDROOT
BRANCH  13  17
ATOM     11  N   UNL     1      10.591   3.883  -0.879  0.00  0.00    -0.251 NA
ATOM     17  C   UNL     1      12.616   4.208   0.402  0.00  0.00    -0.024 A 
ATOM     18  C   UNL     1      13.338   3.488  -0.544  0.00  0.00    +0.007 A 
ATOM     19  C   UNL     1      11.257   4.376   0.189  0.00  0.00    +0.115 A 
ATOM     21  C   UNL     1      12.688   2.967  -1.657  0.00  0.00    +0.032 A 
ATOM     22  C   UNL     1      11.327   3.190  -1.777  0.00  0.00    +0.144 A 
BRANCH  22  25
ATOM      2  F   UNL     1       9.503   3.392  -3.288  0.00  0.00    -0.164 F 
ATOM      3  F   UNL     1      11.355   2.585  -4.092  0.00  0.00    -0.164 F 
ATOM      4  F   UNL     1      10.130   1.374  -2.774  0.00  0.00    -0.164 F 
ATOM     25  C   UNL     1      10.596   2.645  -2.959  0.00  0.00    +0.434 C 
ENDBRANCH  22  25
ENDBRANCH  13  17
BRANCH  14   5
ATOM      5  O   UNL     1      13.692   7.947   1.204  0.00  0.00    -0.388 OA
ATOM     31  H   UNL     1      13.853   7.383   0.429  0.00  0.00    +0.210 HD
ENDBRANCH  14   5
BRANCH  16   6
ATOM      6  O   UNL     1      16.140   7.049   2.105  0.00  0.00    -0.389 OA
ATOM     32  H   UNL     1      16.630   7.182   2.934  0.00  0.00    +0.210 HD
ENDBRANCH  16   6
BRANCH  12  10
ATOM     10  N   UNL     1      12.012   5.743   3.520  0.00  0.00    -0.184 NA
ATOM     30  H   UNL     1      12.231   4.831   3.937  0.00  0.00    +0.148 HD
BRANCH  10   1
ATOM      1  S   UNL     1      10.756   6.705   4.141  0.00  0.00    +0.059 S 
ATOM      7  O   UNL     1       9.601   6.612   3.268  0.00  0.00    -0.153 OA
ATOM      8  O   UNL     1      11.297   8.002   4.499  0.00  0.00    -0.153 OA
BRANCH   1  20
ATOM     20  C   UNL     1      10.370   5.870   5.650  0.00  0.00    +0.105 A 
ATOM     23  C   UNL     1      10.479   6.544   6.866  0.00  0.00    +0.032 A 
ATOM     24  C   UNL     1       9.958   4.539   5.625  0.00  0.00    +0.032 A 
ATOM     26  C   UNL     1      10.176   5.886   8.058  0.00  0.00    +0.047 A 
ATOM     27  C   UNL     1       9.655   3.879   6.816  0.00  0.00    +0.047 A 
ATOM     28  C   UNL     1       9.764   4.553   8.032  0.00  0.00    +0.120 A 
BRANCH  28   9
ATOM      9  O   UNL     1       9.469   3.910   9.195  0.00  0.00    -0.495 OA
ATOM     29  C   UNL     1       8.923   4.698  10.253  0.00  0.00    +0.277 C 
ENDBRANCH  28   9
ENDBRANCH   1  20
ENDBRANCH  10   1
ENDBRANCH  12  10
TORSDOF 8
ENDMDL
MODEL 7
REMARK VINA RESULT:      -6.6     25.410     27.124
REMARK  Name = 75536099
REMARK  9 active torsions:
REMARK  status: ('A' for Active; 'I' for Inactive)
REMARK    1  A    between atoms: S_1  and  N_10
REMARK    2  A    between atoms: S_1  and  C_20
REMARK    3  A    between atoms: O_5  and  C_14
REMARK    4  A    between atoms: O_6  and  C_16
REMARK    5  A    between atoms: O_9  and  C_28
REMARK    6  A    between atoms: O_9  and  C_29
REMARK    7  A    between atoms: N_10  and  C_12
REMARK    8  A    between atoms: C_13  and  C_17
REMARK    9  A    between atoms: C_22  and  C_25
REMARK                            x       y       z     vdW  Elec       q    Type
REMARK                         _______ _______ _______ _____ _____    ______ ____
ROOT
ATOM     12  C   UNL     1     -12.137   9.238  17.893  0.00  0.00    +0.115 C 
ATOM     13  C   UNL     1     -11.385   8.181  18.748  0.00  0.00    +0.044 C 
ATOM     14  C   UNL     1     -11.787   8.923  16.433  0.00  0.00    +0.162 C 
ATOM     15  C   UNL     1     -10.737   7.221  17.735  0.00  0.00    +0.044 C 
ATOM     16  C   UNL     1     -10.498   8.110  16.524  0.00  0.00    +0.145 C 
ENDROOT
BRANCH  13  17
ATOM     11  N   UNL     1     -14.479   6.952  20.566  0.00  0.00    -0.251 NA
ATOM     17  C   UNL     1     -12.259   7.473  19.760  0.00  0.00    -0.024 A 
ATOM     18  C   UNL     1     -11.702   6.718  20.786  0.00  0.00    +0.007 A 
ATOM     19  C   UNL     1     -13.641   7.557  19.694  0.00  0.00    +0.115 A 
ATOM     21  C   UNL     1     -12.531   6.079  21.701  0.00  0.00    +0.032 A 
ATOM     22  C   UNL     1     -13.900   6.226  21.549  0.00  0.00    +0.144 A 
BRANCH  22  25
ATOM      2  F   UNL     1     -15.801   4.840  21.889  0.00  0.00    -0.164 F 
ATOM      3  F   UNL     1     -14.194   4.671  23.343  0.00  0.00    -0.164 F 
ATOM      4  F   UNL     1     -15.471   6.424  23.342  0.00  0.00    -0.164 F 
ATOM     25  C   UNL     1     -14.821   5.555  22.513  0.00  0.00    +0.434 C 
ENDBRANCH  22  25
ENDBRANCH  13  17
BRANCH  14   5
ATOM      5  O   UNL     1     -12.842   8.134  15.887  0.00  0.00    -0.388 OA
ATOM     31  H   UNL     1     -12.569   7.203  15.944  0.00  0.00    +0.210 HD
ENDBRANCH  14   5
BRANCH  16   6
ATOM      6  O   UNL     1     -10.251   7.346  15.362  0.00  0.00    -0.389 OA
ATOM     32  H   UNL     1     -10.887   6.610  15.354  0.00  0.00    +0.210 HD
ENDBRANCH  16   6
BRANCH  12  10
ATOM     10  N   UNL     1     -11.636  10.595  18.239  0.00  0.00    -0.184 NA
ATOM     30  H   UNL     1     -10.621  10.722  18.328  0.00  0.00    +0.148 HD
BRANCH  10   1
ATOM      1  S   UNL     1     -12.715  11.776  18.810  0.00  0.00    +0.059 S 
ATOM      7  O   UNL     1     -13.868  11.841  17.932  0.00  0.00    -0.153 OA
ATOM      8  O   UNL     1     -11.969  12.979  19.122  0.00  0.00    -0.153 OA
BRANCH   1  20
ATOM     20  C   UNL     1     -13.239  11.078  20.347  0.00  0.00    +0.105 A 
ATOM     23  C   UNL     1     -14.598  10.890  20.600  0.00  0.00    +0.032 A 
ATOM     24  C   UNL     1     -12.295  10.718  21.307  0.00  0.00    +0.032 A 
ATOM     26  C   UNL     1     -15.012  10.341  21.814  0.00  0.00    +0.047 A 
ATOM     27  C   UNL     1     -12.708  10.170  22.522  0.00  0.00    +0.047 A 
ATOM     28  C   UNL     1     -14.067   9.982  22.774  0.00  0.00    +0.120 A 
BRANCH  28   9
ATOM      9  O   UNL     1     -14.470   9.446  23.959  0.00  0.00    -0.495 OA
ATOM     29  C   UNL     1     -15.852   9.576  24.293  0.00  0.00    +0.277 C 
ENDBRANCH  28   9
ENDBRANCH   1  20
ENDBRANCH  10   1
ENDBRANCH  12  10
TORSDOF 8
ENDMDL
MODEL 8
REMARK VINA RESULT:      -6.6     25.265     27.478
REMARK  Name = 75536099
REMARK  9 active torsions:
REMARK  status: ('A' for Active; 'I' for Inactive)
REMARK    1  A    between atoms: S_1  and  N_10
REMARK    2  A    between atoms: S_1  and  C_20
REMARK    3  A    between atoms: O_5  and  C_14
REMARK    4  A    between atoms: O_6  and  C_16
REMARK    5  A    between atoms: O_9  and  C_28
REMARK    6  A    between atoms: O_9  and  C_29
REMARK    7  A    between atoms: N_10  and  C_12
REMARK    8  A    between atoms: C_13  and  C_17
REMARK    9  A    between atoms: C_22  and  C_25
REMARK                            x       y       z     vdW  Elec       q    Type
REMARK                         _______ _______ _______ _____ _____    ______ ____
ROOT
ATOM     12  C   UNL     1     -14.797   7.286  22.690  0.00  0.00    +0.115 C 
ATOM     13  C   UNL     1     -15.018   6.928  21.194  0.00  0.00    +0.044 C 
ATOM     14  C   UNL     1     -15.116   6.009  23.478  0.00  0.00    +0.162 C 
ATOM     15  C   UNL     1     -15.331   5.422  21.175  0.00  0.00    +0.044 C 
ATOM     16  C   UNL     1     -15.987   5.190  22.528  0.00  0.00    +0.145 C 
ENDROOT
BRANCH  13  17
ATOM     11  N   UNL     1     -13.094   8.193  18.180  0.00  0.00    -0.251 NA
ATOM     17  C   UNL     1     -13.862   7.305  20.295  0.00  0.00    -0.024 A 
ATOM     18  C   UNL     1     -12.545   7.129  20.707  0.00  0.00    +0.007 A 
ATOM     19  C   UNL     1     -14.081   7.836  19.033  0.00  0.00    +0.115 A 
ATOM     21  C   UNL     1     -11.503   7.485  19.857  0.00  0.00    +0.032 A 
ATOM     22  C   UNL     1     -11.827   8.007  18.616  0.00  0.00    +0.144 A 
BRANCH  22  25
ATOM      2  F   UNL     1     -11.175   9.212  16.674  0.00  0.00    -0.164 F 
ATOM      3  F   UNL     1      -9.716   9.080  18.280  0.00  0.00    -0.164 F 
ATOM      4  F   UNL     1     -10.139   7.339  17.059  0.00  0.00    -0.164 F 
ATOM     25  C   UNL     1     -10.735   8.400  17.678  0.00  0.00    +0.434 C 
ENDBRANCH  22  25
ENDBRANCH  13  17
BRANCH  14   5
ATOM      5  O   UNL     1     -13.888   5.334  23.743  0.00  0.00    -0.388 OA
ATOM     31  H   UNL     1     -14.084   4.599  24.349  0.00  0.00    +0.210 HD
ENDBRANCH  14   5
BRANCH  16   6
ATOM      6  O   UNL     1     -16.016   3.817  22.860  0.00  0.00    -0.389 OA
ATOM     32  H   UNL     1     -16.678   3.391  22.289  0.00  0.00    +0.210 HD
ENDBRANCH  16   6
BRANCH  12  10
ATOM     10  N   UNL     1     -15.748   8.359  23.084  0.00  0.00    -0.184 NA
ATOM     30  H   UNL     1     -16.728   8.257  22.799  0.00  0.00    +0.148 HD
BRANCH  10   1
ATOM      1  S   UNL     1     -15.156   9.844  23.659  0.00  0.00    +0.059 S 
ATOM      7  O   UNL     1     -14.269   9.607  24.782  0.00  0.00    -0.153 OA
ATOM      8  O   UNL     1     -16.265  10.769  23.789  0.00  0.00    -0.153 OA
BRANCH   1  20
ATOM     20  C   UNL     1     -14.176  10.399  22.296  0.00  0.00    +0.105 A 
ATOM     23  C   UNL     1     -14.796  10.841  21.128  0.00  0.00    +0.032 A 
ATOM     24  C   UNL     1     -12.786  10.391  22.389  0.00  0.00    +0.032 A 
ATOM     26  C   UNL     1     -14.023  11.277  20.051  0.00  0.00    +0.047 A 
ATOM     27  C   UNL     1     -12.012  10.826  21.312  0.00  0.00    +0.047 A 
ATOM     28  C   UNL     1     -12.631  11.269  20.144  0.00  0.00    +0.120 A 
BRANCH  28   9
ATOM      9  O   UNL     1     -11.877  11.694  19.093  0.00  0.00    -0.495 OA
ATOM     29  C   UNL     1     -12.561  11.958  17.868  0.00  0.00    +0.277 C 
ENDBRANCH  28   9
ENDBRANCH   1  20
ENDBRANCH  10   1
ENDBRANCH  12  10
TORSDOF 8
ENDMDL
MODEL 9
REMARK VINA RESULT:      -6.5     27.575     29.368
REMARK  Name = 75536099
REMARK  9 active torsions:
REMARK  status: ('A' for Active; 'I' for Inactive)
REMARK    1  A    between atoms: S_1  and  N_10
REMARK    2  A    between atoms: S_1  and  C_20
REMARK    3  A    between atoms: O_5  and  C_14
REMARK    4  A    between atoms: O_6  and  C_16
REMARK    5  A    between atoms: O_9  and  C_28
REMARK    6  A    between atoms: O_9  and  C_29
REMARK    7  A    between atoms: N_10  and  C_12
REMARK    8  A    between atoms: C_13  and  C_17
REMARK    9  A    between atoms: C_22  and  C_25
REMARK                            x       y       z     vdW  Elec       q    Type
REMARK                         _______ _______ _______ _____ _____    ______ ____
ROOT
ATOM     12  C   UNL     1      -5.252 -11.446  16.873  0.00  0.00    +0.115 C 
ATOM     13  C   UNL     1      -5.703 -10.370  17.899  0.00  0.00    +0.044 C 
ATOM     14  C   UNL     1      -4.370 -12.427  17.654  0.00  0.00    +0.162 C 
ATOM     15  C   UNL     1      -5.164 -10.849  19.258  0.00  0.00    +0.044 C 
ATOM     16  C   UNL     1      -3.917 -11.632  18.877  0.00  0.00    +0.145 C 
ENDROOT
BRANCH  13  17
ATOM     11  N   UNL     1      -9.083  -8.882  17.038  0.00  0.00    -0.251 NA
ATOM     17  C   UNL     1      -7.193 -10.114  17.909  0.00  0.00    -0.024 A 
ATOM     18  C   UNL     1      -8.038 -10.828  18.752  0.00  0.00    +0.007 A 
ATOM     19  C   UNL     1      -7.761  -9.160  17.078  0.00  0.00    +0.115 A 
ATOM     21  C   UNL     1      -9.405 -10.570  18.738  0.00  0.00    +0.032 A 
ATOM     22  C   UNL     1      -9.873  -9.597  17.871  0.00  0.00    +0.144 A 
BRANCH  22  25
ATOM      2  F   UNL     1     -12.029 -10.175  17.054  0.00  0.00    -0.164 F 
ATOM      3  F   UNL     1     -11.935  -9.329  19.054  0.00  0.00    -0.164 F 
ATOM      4  F   UNL     1     -11.620  -8.056  17.327  0.00  0.00    -0.164 F 
ATOM     25  C   UNL     1     -11.334  -9.293  17.829  0.00  0.00    +0.434 C 
ENDBRANCH  22  25
ENDBRANCH  13  17
BRANCH  14   5
ATOM      5  O   UNL     1      -5.179 -13.535  18.045  0.00  0.00    -0.388 OA
ATOM     31  H   UNL     1      -4.703 -14.345  17.796  0.00  0.00    +0.210 HD
ENDBRANCH  14   5
BRANCH  16   6
ATOM      6  O   UNL     1      -3.482 -12.460  19.935  0.00  0.00    -0.389 OA
ATOM     32  H   UNL     1      -3.455 -13.373  19.602  0.00  0.00    +0.210 HD
ENDBRANCH  16   6
BRANCH  12  10
ATOM     10  N   UNL     1      -4.445 -10.798  15.805  0.00  0.00    -0.184 NA
ATOM     30  H   UNL     1      -4.746  -9.876  15.471  0.00  0.00    +0.148 HD
BRANCH  10   1
ATOM      1  S   UNL     1      -3.300 -11.708  14.941  0.00  0.00    +0.059 S 
ATOM      7  O   UNL     1      -3.788 -13.064  14.773  0.00  0.00    -0.153 OA
ATOM      8  O   UNL     1      -1.988 -11.470  15.511  0.00  0.00    -0.153 OA
BRANCH   1  20
ATOM     20  C   UNL     1      -3.326 -10.919  13.359  0.00  0.00    +0.105 A 
ATOM     23  C   UNL     1      -2.133 -10.699  12.671  0.00  0.00    +0.032 A 
ATOM     24  C   UNL     1      -4.538 -10.515  12.802  0.00  0.00    +0.032 A 
ATOM     26  C   UNL     1      -2.153 -10.074  11.423  0.00  0.00    +0.047 A 
ATOM     27  C   UNL     1      -4.560  -9.890  11.554  0.00  0.00    +0.047 A 
ATOM     28  C   UNL     1      -3.367  -9.670  10.866  0.00  0.00    +0.120 A 
BRANCH  28   9
ATOM      9  O   UNL     1      -3.387  -9.060   9.649  0.00  0.00    -0.495 OA
ATOM     29  C   UNL     1      -4.575  -9.204   8.870  0.00  0.00    +0.277 C 
ENDBRANCH  28   9
ENDBRANCH   1  20
ENDBRANCH  10   1
ENDBRANCH  12  10
TORSDOF 8
ENDMDL
MODEL 10
REMARK VINA RESULT:      -6.5     27.180     29.525
REMARK  Name = 75536099
REMARK  9 active torsions:
REMARK  status: ('A' for Active; 'I' for Inactive)
REMARK    1  A    between atoms: S_1  and  N_10
REMARK    2  A    between atoms: S_1  and  C_20
REMARK    3  A    between atoms: O_5  and  C_14
REMARK    4  A    between atoms: O_6  and  C_16
REMARK    5  A    between atoms: O_9  and  C_28
REMARK    6  A    between atoms: O_9  and  C_29
REMARK    7  A    between atoms: N_10  and  C_12
REMARK    8  A    between atoms: C_13  and  C_17
REMARK    9  A    between atoms: C_22  and  C_25
REMARK                            x       y       z     vdW  Elec       q    Type
REMARK                         _______ _______ _______ _____ _____    ______ ____
ROOT
ATOM     12  C   UNL     1      -8.824 -10.849  16.923  0.00  0.00    +0.115 C 
ATOM     13  C   UNL     1      -7.753 -11.694  17.665  0.00  0.00    +0.044 C 
ATOM     14  C   UNL     1      -9.648 -10.160  18.019  0.00  0.00    +0.162 C 
ATOM     15  C   UNL     1      -7.924 -11.355  19.156  0.00  0.00    +0.044 C 
ATOM     16  C   UNL     1      -9.401 -11.010  19.263  0.00  0.00    +0.145 C 
ENDROOT
BRANCH  13  17
ATOM     11  N   UNL     1      -4.262 -12.420  16.372  0.00  0.00    -0.251 NA
ATOM     17  C   UNL     1      -6.342 -11.475  17.165  0.00  0.00    -0.024 A 
ATOM     18  C   UNL     1      -5.818 -10.194  17.035  0.00  0.00    +0.007 A 
ATOM     19  C   UNL     1      -5.530 -12.546  16.823  0.00  0.00    +0.115 A 
ATOM     21  C   UNL     1      -4.517 -10.025  16.572  0.00  0.00    +0.032 A 
ATOM     22  C   UNL     1      -3.787 -11.159  16.258  0.00  0.00    +0.144 A 
BRANCH  22  25
ATOM      2  F   UNL     1      -1.940 -12.139  15.128  0.00  0.00    -0.164 F 
ATOM      3  F   UNL     1      -2.230 -10.001  14.859  0.00  0.00    -0.164 F 
ATOM      4  F   UNL     1      -1.480 -10.761  16.747  0.00  0.00    -0.164 F 
ATOM     25  C   UNL     1      -2.388 -11.015  15.759  0.00  0.00    +0.434 C 
ENDBRANCH  22  25
ENDBRANCH  13  17
BRANCH  14   5
ATOM      5  O   UNL     1      -9.131  -8.843  18.198  0.00  0.00    -0.388 OA
ATOM     31  H   UNL     1      -8.191  -8.863  17.953  0.00  0.00    +0.210 HD
ENDBRANCH  14   5
BRANCH  16   6
ATOM      6  O   UNL     1      -9.687 -10.320  20.461  0.00  0.00    -0.389 OA
ATOM     32  H   UNL     1     -10.436 -10.769  20.887  0.00  0.00    +0.210 HD
ENDBRANCH  16   6
BRANCH  12  10
ATOM     10  N   UNL     1      -9.705 -11.753  16.138  0.00  0.00    -0.184 NA
ATOM     30  H   UNL     1      -9.999 -12.633  16.575  0.00  0.00    +0.148 HD
BRANCH  10   1
ATOM      1  S   UNL     1      -9.910 -11.498  14.470  0.00  0.00    +0.059 S 
ATOM      7  O   UNL     1     -10.648 -10.267  14.258  0.00  0.00    -0.153 OA
ATOM      8  O   UNL     1     -10.361 -12.733  13.861  0.00  0.00    -0.153 OA
BRANCH   1  20
ATOM     20  C   UNL     1      -8.245 -11.235  13.936  0.00  0.00    +0.105 A 
ATOM     23  C   UNL     1      -7.765  -9.936  13.766  0.00  0.00    +0.032 A 
ATOM     24  C   UNL     1      -7.414 -12.325  13.681  0.00  0.00    +0.032 A 
ATOM     26  C   UNL     1      -6.452  -9.728  13.342  0.00  0.00    +0.047 A 
ATOM     27  C   UNL     1      -6.101 -12.118  13.257  0.00  0.00    +0.047 A 
ATOM     28  C   UNL     1      -5.621 -10.819  13.087  0.00  0.00    +0.120 A 
BRANCH  28   9
ATOM      9  O   UNL     1      -4.341 -10.616  12.673  0.00  0.00    -0.495 OA
ATOM     29  C   UNL     1      -3.699 -11.696  11.994  0.00  0.00    +0.277 C 
ENDBRANCH  28   9
ENDBRANCH   1  20
ENDBRANCH  10   1
ENDBRANCH  12  10
TORSDOF 8
ENDMDL
