MODEL 1
REMARK VINA RESULT:      -7.3      0.000      0.000
REMARK  Name = 11866321
REMARK  10 active torsions:
REMARK  status: ('A' for Active; 'I' for Inactive)
REMARK    1  A    between atoms: O_1  and  C_11
REMARK    2  A    between atoms: O_2  and  C_12
REMARK    3  A    between atoms: O_6  and  C_30
REMARK    4  A    between atoms: N_7  and  C_13
REMARK    5  A    between atoms: N_8  and  C_18
REMARK    6  A    between atoms: C_15  and  C_17
REMARK    7  A    between atoms: C_18  and  C_20
REMARK    8  A    between atoms: C_18  and  C_22
REMARK    9  A    between atoms: C_19  and  C_23
REMARK   10  A    between atoms: C_20  and  C_21
REMARK                            x       y       z     vdW  Elec       q    Type
REMARK                         _______ _______ _______ _____ _____    ______ ____
ROOT
ATOM     11  C   UNL     1      13.826  13.975  19.421  0.00  0.00    +0.167 C 
ATOM     12  C   UNL     1      14.404  13.764  18.016  0.00  0.00    +0.149 C 
ATOM     13  C   UNL     1      12.683  12.985  19.716  0.00  0.00    +0.128 C 
ATOM     14  C   UNL     1      14.881  12.318  17.798  0.00  0.00    +0.074 C 
ATOM     15  C   UNL     1      13.981  11.292  18.426  0.00  0.00    +0.015 C 
ATOM     16  C   UNL     1      12.988  11.578  19.280  0.00  0.00    +0.006 C 
ENDROOT
BRANCH  15  17
ATOM      3  O   UNL     1      14.646   9.568  16.974  0.00  0.00    -0.271 OA
ATOM      8  N   UNL     1      13.806   9.013  19.077  0.00  0.00    -0.300 N 
ATOM     17  C   UNL     1      14.185   9.884  18.070  0.00  0.00    +0.241 C 
ATOM     36  H   UNL     1      13.354   9.385  19.908  0.00  0.00    +0.150 HD
BRANCH   8  18
ATOM     18  C   UNL     1      13.910   7.577  18.958  0.00  0.00    +0.163 C 
BRANCH  18  22
ATOM      5  O   UNL     1      11.936   7.334  17.562  0.00  0.00    -0.274 OA
ATOM      9  N   UNL     1      12.022   6.190  19.552  0.00  0.00    -0.328 N 
ATOM     22  C   UNL     1      12.526   7.055  18.603  0.00  0.00    +0.231 C 
ATOM     37  H   UNL     1      11.113   5.757  19.431  0.00  0.00    +0.145 HD
ATOM     38  H   UNL     1      12.522   5.964  20.405  0.00  0.00    +0.145 HD
ENDBRANCH  18  22
BRANCH  18  20
ATOM     20  C   UNL     1      14.412   6.924  20.251  0.00  0.00    +0.067 C 
BRANCH  20  21
ATOM     21  C   UNL     1      15.884   6.592  20.204  0.00  0.00    -0.045 A 
ATOM     24  C   UNL     1      16.688   6.826  21.320  0.00  0.00    +0.007 A 
ATOM     25  C   UNL     1      16.439   6.053  19.044  0.00  0.00    +0.007 A 
ATOM     28  C   UNL     1      18.048   6.520  21.276  0.00  0.00    +0.045 A 
ATOM     29  C   UNL     1      17.800   5.747  19.000  0.00  0.00    +0.045 A 
ATOM     30  C   UNL     1      18.604   5.980  20.115  0.00  0.00    +0.117 A 
BRANCH  30   6
ATOM      6  O   UNL     1      19.931   5.682  20.073  0.00  0.00    -0.507 OA
ATOM     39  H   UNL     1      20.299   5.752  20.971  0.00  0.00    +0.292 HD
ENDBRANCH  30   6
ENDBRANCH  20  21
ENDBRANCH  18  20
ENDBRANCH   8  18
ENDBRANCH  15  17
BRANCH  13   7
ATOM      4  O   UNL     1      10.386  14.215  20.924  0.00  0.00    -0.270 OA
ATOM      7  N   UNL     1      12.337  12.975  21.117  0.00  0.00    -0.302 N 
ATOM     19  C   UNL     1      11.200  13.600  21.608  0.00  0.00    +0.246 C 
ATOM     33  H   UNL     1      13.009  12.566  21.758  0.00  0.00    +0.150 HD
BRANCH  19  23
ATOM     10  N   UNL     1      10.621  12.161  25.041  0.00  0.00    -0.263 NA
ATOM     23  C   UNL     1      10.999  13.521  23.078  0.00  0.00    +0.055 A 
ATOM     26  C   UNL     1      10.994  14.669  23.863  0.00  0.00    +0.016 A 
ATOM     27  C   UNL     1      10.809  12.302  23.709  0.00  0.00    +0.123 A 
ATOM     31  C   UNL     1      10.804  14.564  25.237  0.00  0.00    +0.020 A 
ATOM     32  C   UNL     1      10.624  13.298  25.772  0.00  0.00    +0.111 A 
ENDBRANCH  19  23
ENDBRANCH  13   7
BRANCH  11   1
ATOM      1  O   UNL     1      14.873  13.799  20.379  0.00  0.00    -0.387 OA
ATOM     34  H   UNL     1      14.806  12.891  20.721  0.00  0.00    +0.210 HD
ENDBRANCH  11   1
BRANCH  12   2
ATOM      2  O   UNL     1      13.436  14.115  17.030  0.00  0.00    -0.389 OA
ATOM     35  H   UNL     1      12.990  13.297  16.752  0.00  0.00    +0.210 HD
ENDBRANCH  12   2
TORSDOF 10
ENDMDL
MODEL 2
REMARK VINA RESULT:      -7.2     13.783     16.652
REMARK  Name = 11866321
REMARK  10 active torsions:
REMARK  status: ('A' for Active; 'I' for Inactive)
REMARK    1  A    between atoms: O_1  and  C_11
REMARK    2  A    between atoms: O_2  and  C_12
REMARK    3  A    between atoms: O_6  and  C_30
REMARK    4  A    between atoms: N_7  and  C_13
REMARK    5  A    between atoms: N_8  and  C_18
REMARK    6  A    between atoms: C_15  and  C_17
REMARK    7  A    between atoms: C_18  and  C_20
REMARK    8  A    between atoms: C_18  and  C_22
REMARK    9  A    between atoms: C_19  and  C_23
REMARK   10  A    between atoms: C_20  and  C_21
REMARK                            x       y       z     vdW  Elec       q    Type
REMARK                         _______ _______ _______ _____ _____    ______ ____
ROOT
ATOM     11  C   UNL     1      16.144  10.422   5.545  0.00  0.00    +0.167 C 
ATOM     12  C   UNL     1      14.826  10.831   6.214  0.00  0.00    +0.149 C 
ATOM     13  C   UNL     1      16.653   9.069   6.079  0.00  0.00    +0.128 C 
ATOM     14  C   UNL     1      13.739   9.752   6.058  0.00  0.00    +0.074 C 
ATOM     15  C   UNL     1      14.268   8.351   6.181  0.00  0.00    +0.015 C 
ATOM     16  C   UNL     1      15.570   8.032   6.200  0.00  0.00    +0.006 C 
ENDROOT
BRANCH  15  17
ATOM      3  O   UNL     1      13.271   6.552   7.317  0.00  0.00    -0.271 OA
ATOM      8  N   UNL     1      12.475   7.135   5.204  0.00  0.00    -0.300 N 
ATOM     17  C   UNL     1      13.300   7.257   6.309  0.00  0.00    +0.241 C 
ATOM     36  H   UNL     1      12.649   7.720   4.391  0.00  0.00    +0.150 HD
BRANCH   8  18
ATOM     18  C   UNL     1      11.444   6.128   5.097  0.00  0.00    +0.163 C 
BRANCH  18  22
ATOM      5  O   UNL     1      10.235   5.691   3.035  0.00  0.00    -0.274 OA
ATOM      9  N   UNL     1      12.530   5.621   2.998  0.00  0.00    -0.328 N 
ATOM     22  C   UNL     1      11.310   5.779   3.622  0.00  0.00    +0.231 C 
ATOM     37  H   UNL     1      12.584   5.402   2.010  0.00  0.00    +0.145 HD
ATOM     38  H   UNL     1      13.412   5.701   3.495  0.00  0.00    +0.145 HD
ENDBRANCH  18  22
BRANCH  18  20
ATOM     20  C   UNL     1      10.101   6.614   5.655  0.00  0.00    +0.067 C 
BRANCH  20  21
ATOM     21  C   UNL     1       9.776   6.012   7.000  0.00  0.00    -0.045 A 
ATOM     24  C   UNL     1      10.028   4.661   7.240  0.00  0.00    +0.007 A 
ATOM     25  C   UNL     1       9.223   6.807   8.003  0.00  0.00    +0.007 A 
ATOM     28  C   UNL     1       9.727   4.105   8.483  0.00  0.00    +0.045 A 
ATOM     29  C   UNL     1       8.922   6.251   9.247  0.00  0.00    +0.045 A 
ATOM     30  C   UNL     1       9.174   4.901   9.488  0.00  0.00    +0.117 A 
BRANCH  30   6
ATOM      6  O   UNL     1       8.881   4.358  10.701  0.00  0.00    -0.507 OA
ATOM     39  H   UNL     1       9.658   4.444  11.280  0.00  0.00    +0.292 HD
ENDBRANCH  30   6
ENDBRANCH  20  21
ENDBRANCH  18  20
ENDBRANCH   8  18
ENDBRANCH  15  17
BRANCH  13   7
ATOM      4  O   UNL     1      19.294   8.350   6.949  0.00  0.00    -0.270 OA
ATOM      7  N   UNL     1      17.716   8.540   5.259  0.00  0.00    -0.302 N 
ATOM     19  C   UNL     1      18.965   8.220   5.772  0.00  0.00    +0.246 C 
ATOM     33  H   UNL     1      17.550   8.492   4.259  0.00  0.00    +0.150 HD
BRANCH  19  23
ATOM     10  N   UNL     1      20.694   7.539   2.496  0.00  0.00    -0.263 NA
ATOM     23  C   UNL     1      19.959   7.711   4.793  0.00  0.00    +0.055 A 
ATOM     26  C   UNL     1      21.052   6.958   5.207  0.00  0.00    +0.016 A 
ATOM     27  C   UNL     1      19.826   7.971   3.438  0.00  0.00    +0.123 A 
ATOM     31  C   UNL     1      21.966   6.495   4.267  0.00  0.00    +0.020 A 
ATOM     32  C   UNL     1      21.745   6.811   2.936  0.00  0.00    +0.111 A 
ENDBRANCH  19  23
ENDBRANCH  13   7
BRANCH  11   1
ATOM      1  O   UNL     1      15.934  10.333   4.134  0.00  0.00    -0.387 OA
ATOM     34  H   UNL     1      16.700  10.744   3.698  0.00  0.00    +0.210 HD
ENDBRANCH  11   1
BRANCH  12   2
ATOM      2  O   UNL     1      15.043  11.110   7.596  0.00  0.00    -0.389 OA
ATOM     35  H   UNL     1      14.173  11.220   8.014  0.00  0.00    +0.210 HD
ENDBRANCH  12   2
TORSDOF 10
ENDMDL
MODEL 3
REMARK VINA RESULT:      -7.1      2.506      8.499
REMARK  Name = 11866321
REMARK  10 active torsions:
REMARK  status: ('A' for Active; 'I' for Inactive)
REMARK    1  A    between atoms: O_1  and  C_11
REMARK    2  A    between atoms: O_2  and  C_12
REMARK    3  A    between atoms: O_6  and  C_30
REMARK    4  A    between atoms: N_7  and  C_13
REMARK    5  A    between atoms: N_8  and  C_18
REMARK    6  A    between atoms: C_15  and  C_17
REMARK    7  A    between atoms: C_18  and  C_20
REMARK    8  A    between atoms: C_18  and  C_22
REMARK    9  A    between atoms: C_19  and  C_23
REMARK   10  A    between atoms: C_20  and  C_21
REMARK                            x       y       z     vdW  Elec       q    Type
REMARK                         _______ _______ _______ _____ _____    ______ ____
ROOT
ATOM     11  C   UNL     1      13.835   6.605  20.664  0.00  0.00    +0.167 C 
ATOM     12  C   UNL     1      12.419   6.988  20.215  0.00  0.00    +0.149 C 
ATOM     13  C   UNL     1      14.899   7.114  19.673  0.00  0.00    +0.128 C 
ATOM     14  C   UNL     1      12.270   8.505  20.003  0.00  0.00    +0.074 C 
ATOM     15  C   UNL     1      13.479   9.141  19.378  0.00  0.00    +0.015 C 
ATOM     16  C   UNL     1      14.660   8.527  19.216  0.00  0.00    +0.006 C 
ENDROOT
BRANCH  15  17
ATOM      3  O   UNL     1      13.246  10.761  17.691  0.00  0.00    -0.271 OA
ATOM      8  N   UNL     1      13.396  11.455  19.911  0.00  0.00    -0.300 N 
ATOM     17  C   UNL     1      13.360  10.520  18.892  0.00  0.00    +0.241 C 
ATOM     36  H   UNL     1      13.582  11.145  20.861  0.00  0.00    +0.150 HD
BRANCH   8  18
ATOM     18  C   UNL     1      13.298  12.878  19.679  0.00  0.00    +0.163 C 
BRANCH  18  22
ATOM      5  O   UNL     1      15.616  12.828  20.407  0.00  0.00    -0.274 OA
ATOM      9  N   UNL     1      14.748  14.812  19.642  0.00  0.00    -0.328 N 
ATOM     22  C   UNL     1      14.667  13.475  19.970  0.00  0.00    +0.231 C 
ATOM     37  H   UNL     1      15.611  15.328  19.772  0.00  0.00    +0.145 HD
ATOM     38  H   UNL     1      13.957  15.333  19.278  0.00  0.00    +0.145 HD
ENDBRANCH  18  22
BRANCH  18  20
ATOM     20  C   UNL     1      12.231  13.537  20.561  0.00  0.00    +0.067 C 
BRANCH  20  21
ATOM     21  C   UNL     1      12.001  12.793  21.854  0.00  0.00    -0.045 A 
ATOM     24  C   UNL     1      12.611  13.232  23.029  0.00  0.00    +0.007 A 
ATOM     25  C   UNL     1      11.181  11.665  21.872  0.00  0.00    +0.007 A 
ATOM     28  C   UNL     1      12.399  12.543  24.224  0.00  0.00    +0.045 A 
ATOM     29  C   UNL     1      10.969  10.976  23.067  0.00  0.00    +0.045 A 
ATOM     30  C   UNL     1      11.578  11.415  24.242  0.00  0.00    +0.117 A 
BRANCH  30   6
ATOM      6  O   UNL     1      11.371  10.743  25.408  0.00  0.00    -0.507 OA
ATOM     39  H   UNL     1      10.673  10.080  25.269  0.00  0.00    +0.292 HD
ENDBRANCH  30   6
ENDBRANCH  20  21
ENDBRANCH  18  20
ENDBRANCH   8  18
ENDBRANCH  15  17
BRANCH  13   7
ATOM      4  O   UNL     1      17.057   5.492  18.691  0.00  0.00    -0.270 OA
ATOM      7  N   UNL     1      16.229   7.021  20.226  0.00  0.00    -0.302 N 
ATOM     19  C   UNL     1      17.209   6.205  19.679  0.00  0.00    +0.246 C 
ATOM     33  H   UNL     1      16.404   7.510  21.098  0.00  0.00    +0.150 HD
BRANCH  19  23
ATOM     10  N   UNL     1      19.964   7.170  22.059  0.00  0.00    -0.263 NA
ATOM     23  C   UNL     1      18.517   6.201  20.381  0.00  0.00    +0.055 A 
ATOM     26  C   UNL     1      19.503   5.276  20.055  0.00  0.00    +0.016 A 
ATOM     27  C   UNL     1      18.795   7.120  21.381  0.00  0.00    +0.123 A 
ATOM     31  C   UNL     1      20.718   5.296  20.731  0.00  0.00    +0.020 A 
ATOM     32  C   UNL     1      20.897   6.254  21.716  0.00  0.00    +0.111 A 
ENDBRANCH  19  23
ENDBRANCH  13   7
BRANCH  11   1
ATOM      1  O   UNL     1      14.075   7.169  21.956  0.00  0.00    -0.387 OA
ATOM     34  H   UNL     1      14.918   7.652  21.912  0.00  0.00    +0.210 HD
ENDBRANCH  11   1
BRANCH  12   2
ATOM      2  O   UNL     1      12.079   6.291  19.018  0.00  0.00    -0.389 OA
ATOM     35  H   UNL     1      12.173   5.341  19.195  0.00  0.00    +0.210 HD
ENDBRANCH  12   2
TORSDOF 10
ENDMDL
MODEL 4
REMARK VINA RESULT:      -6.9      2.962      7.165
REMARK  Name = 11866321
REMARK  10 active torsions:
REMARK  status: ('A' for Active; 'I' for Inactive)
REMARK    1  A    between atoms: O_1  and  C_11
REMARK    2  A    between atoms: O_2  and  C_12
REMARK    3  A    between atoms: O_6  and  C_30
REMARK    4  A    between atoms: N_7  and  C_13
REMARK    5  A    between atoms: N_8  and  C_18
REMARK    6  A    between atoms: C_15  and  C_17
REMARK    7  A    between atoms: C_18  and  C_20
REMARK    8  A    between atoms: C_18  and  C_22
REMARK    9  A    between atoms: C_19  and  C_23
REMARK   10  A    between atoms: C_20  and  C_21
REMARK                            x       y       z     vdW  Elec       q    Type
REMARK                         _______ _______ _______ _____ _____    ______ ____
ROOT
ATOM     11  C   UNL     1      17.327  12.304  21.516  0.00  0.00    +0.167 C 
ATOM     12  C   UNL     1      16.746  13.575  22.147  0.00  0.00    +0.149 C 
ATOM     13  C   UNL     1      16.669  11.035  22.091  0.00  0.00    +0.128 C 
ATOM     14  C   UNL     1      15.218  13.651  21.992  0.00  0.00    +0.074 C 
ATOM     15  C   UNL     1      14.535  12.323  22.159  0.00  0.00    +0.015 C 
ATOM     16  C   UNL     1      15.173  11.145  22.212  0.00  0.00    +0.006 C 
ENDROOT
BRANCH  15  17
ATOM      3  O   UNL     1      12.402  13.297  21.996  0.00  0.00    -0.271 OA
ATOM      8  N   UNL     1      12.588  11.105  22.768  0.00  0.00    -0.300 N 
ATOM     17  C   UNL     1      13.074  12.310  22.291  0.00  0.00    +0.241 C 
ATOM     36  H   UNL     1      13.245  10.388  23.062  0.00  0.00    +0.150 HD
BRANCH   8  18
ATOM     18  C   UNL     1      11.181  10.853  22.985  0.00  0.00    +0.163 C 
BRANCH  18  22
ATOM      5  O   UNL     1      11.230  11.103  25.401  0.00  0.00    -0.274 OA
ATOM      9  N   UNL     1       9.993  12.593  24.167  0.00  0.00    -0.328 N 
ATOM     22  C   UNL     1      10.811  11.493  24.314  0.00  0.00    +0.231 C 
ATOM     37  H   UNL     1       9.683  13.123  24.975  0.00  0.00    +0.145 HD
ATOM     38  H   UNL     1       9.657  12.907  23.263  0.00  0.00    +0.145 HD
ENDBRANCH  18  22
BRANCH  18  20
ATOM     20  C   UNL     1      10.858   9.354  23.005  0.00  0.00    +0.067 C 
BRANCH  20  21
ATOM     21  C   UNL     1      11.295   8.646  21.746  0.00  0.00    -0.045 A 
ATOM     24  C   UNL     1      10.964   9.173  20.498  0.00  0.00    +0.007 A 
ATOM     25  C   UNL     1      12.028   7.463  21.831  0.00  0.00    +0.007 A 
ATOM     28  C   UNL     1      11.368   8.518  19.335  0.00  0.00    +0.045 A 
ATOM     29  C   UNL     1      12.432   6.807  20.668  0.00  0.00    +0.045 A 
ATOM     30  C   UNL     1      12.102   7.334  19.419  0.00  0.00    +0.117 A 
BRANCH  30   6
ATOM      6  O   UNL     1      12.496   6.695  18.285  0.00  0.00    -0.507 OA
ATOM     39  H   UNL     1      12.165   5.781  18.307  0.00  0.00    +0.292 HD
ENDBRANCH  30   6
ENDBRANCH  20  21
ENDBRANCH  18  20
ENDBRANCH   8  18
ENDBRANCH  15  17
BRANCH  13   7
ATOM      4  O   UNL     1      15.394   8.466  22.241  0.00  0.00    -0.270 OA
ATOM      7  N   UNL     1      16.988   9.868  21.306  0.00  0.00    -0.302 N 
ATOM     19  C   UNL     1      16.312   8.664  21.450  0.00  0.00    +0.246 C 
ATOM     33  H   UNL     1      17.797   9.926  20.696  0.00  0.00    +0.150 HD
BRANCH  19  23
ATOM     10  N   UNL     1      16.323   6.001  18.787  0.00  0.00    -0.263 NA
ATOM     23  C   UNL     1      16.779   7.550  20.587  0.00  0.00    +0.055 A 
ATOM     26  C   UNL     1      18.052   7.010  20.738  0.00  0.00    +0.016 A 
ATOM     27  C   UNL     1      15.960   7.014  19.606  0.00  0.00    +0.123 A 
ATOM     31  C   UNL     1      18.461   5.967  19.915  0.00  0.00    +0.020 A 
ATOM     32  C   UNL     1      17.568   5.503  18.963  0.00  0.00    +0.111 A 
ENDBRANCH  19  23
ENDBRANCH  13   7
BRANCH  11   1
ATOM      1  O   UNL     1      17.116  12.356  20.102  0.00  0.00    -0.387 OA
ATOM     34  H   UNL     1      17.939  12.679  19.696  0.00  0.00    +0.210 HD
ENDBRANCH  11   1
BRANCH  12   2
ATOM      2  O   UNL     1      17.103  13.645  23.526  0.00  0.00    -0.389 OA
ATOM     35  H   UNL     1      16.654  12.915  23.983  0.00  0.00    +0.210 HD
ENDBRANCH  12   2
TORSDOF 10
ENDMDL
MODEL 5
REMARK VINA RESULT:      -6.8      3.862      8.436
REMARK  Name = 11866321
REMARK  10 active torsions:
REMARK  status: ('A' for Active; 'I' for Inactive)
REMARK    1  A    between atoms: O_1  and  C_11
REMARK    2  A    between atoms: O_2  and  C_12
REMARK    3  A    between atoms: O_6  and  C_30
REMARK    4  A    between atoms: N_7  and  C_13
REMARK    5  A    between atoms: N_8  and  C_18
REMARK    6  A    between atoms: C_15  and  C_17
REMARK    7  A    between atoms: C_18  and  C_20
REMARK    8  A    between atoms: C_18  and  C_22
REMARK    9  A    between atoms: C_19  and  C_23
REMARK   10  A    between atoms: C_20  and  C_21
REMARK                            x       y       z     vdW  Elec       q    Type
REMARK                         _______ _______ _______ _____ _____    ______ ____
ROOT
ATOM     11  C   UNL     1      17.885   9.831  21.632  0.00  0.00    +0.167 C 
ATOM     12  C   UNL     1      16.424  10.300  21.647  0.00  0.00    +0.149 C 
ATOM     13  C   UNL     1      17.986   8.296  21.563  0.00  0.00    +0.128 C 
ATOM     14  C   UNL     1      15.635   9.767  20.439  0.00  0.00    +0.074 C 
ATOM     15  C   UNL     1      15.991   8.355  20.069  0.00  0.00    +0.015 C 
ATOM     16  C   UNL     1      17.036   7.682  20.570  0.00  0.00    +0.006 C 
ENDROOT
BRANCH  15  17
ATOM      3  O   UNL     1      15.253   6.447  18.912  0.00  0.00    -0.271 OA
ATOM      8  N   UNL     1      14.219   8.494  18.491  0.00  0.00    -0.300 N 
ATOM     17  C   UNL     1      15.131   7.655  19.109  0.00  0.00    +0.241 C 
ATOM     36  H   UNL     1      14.267   9.493  18.668  0.00  0.00    +0.150 HD
BRANCH   8  18
ATOM     18  C   UNL     1      13.267   8.034  17.506  0.00  0.00    +0.163 C 
BRANCH  18  22
ATOM      5  O   UNL     1      13.892   8.524  15.210  0.00  0.00    -0.274 OA
ATOM      9  N   UNL     1      12.958  10.198  16.475  0.00  0.00    -0.328 N 
ATOM     22  C   UNL     1      13.431   8.917  16.279  0.00  0.00    +0.231 C 
ATOM     37  H   UNL     1      12.992  10.885  15.730  0.00  0.00    +0.145 HD
ATOM     38  H   UNL     1      12.575  10.508  17.362  0.00  0.00    +0.145 HD
ENDBRANCH  18  22
BRANCH  18  20
ATOM     20  C   UNL     1      11.824   8.098  18.021  0.00  0.00    +0.067 C 
BRANCH  20  21
ATOM     21  C   UNL     1      11.742   8.456  19.485  0.00  0.00    -0.045 A 
ATOM     24  C   UNL     1      11.822   9.791  19.883  0.00  0.00    +0.007 A 
ATOM     25  C   UNL     1      11.589   7.451  20.440  0.00  0.00    +0.007 A 
ATOM     28  C   UNL     1      11.747  10.121  21.236  0.00  0.00    +0.045 A 
ATOM     29  C   UNL     1      11.515   7.782  21.794  0.00  0.00    +0.045 A 
ATOM     30  C   UNL     1      11.593   9.116  22.192  0.00  0.00    +0.117 A 
BRANCH  30   6
ATOM      6  O   UNL     1      11.520   9.438  23.512  0.00  0.00    -0.507 OA
ATOM     39  H   UNL     1      10.659   9.149  23.859  0.00  0.00    +0.292 HD
ENDBRANCH  30   6
ENDBRANCH  20  21
ENDBRANCH  18  20
ENDBRANCH   8  18
ENDBRANCH  15  17
BRANCH  13   7
ATOM      4  O   UNL     1      19.538   6.354  23.001  0.00  0.00    -0.270 OA
ATOM      7  N   UNL     1      19.327   7.864  21.253  0.00  0.00    -0.302 N 
ATOM     19  C   UNL     1      19.999   6.915  22.011  0.00  0.00    +0.246 C 
ATOM     33  H   UNL     1      19.809   8.350  20.504  0.00  0.00    +0.150 HD
BRANCH  19  23
ATOM     10  N   UNL     1      22.878   5.186  20.305  0.00  0.00    -0.263 NA
ATOM     23  C   UNL     1      21.383   6.599  21.577  0.00  0.00    +0.055 A 
ATOM     26  C   UNL     1      22.461   7.369  22.001  0.00  0.00    +0.016 A 
ATOM     27  C   UNL     1      21.643   5.527  20.737  0.00  0.00    +0.123 A 
ATOM     31  C   UNL     1      23.746   7.049  21.578  0.00  0.00    +0.020 A 
ATOM     32  C   UNL     1      23.900   5.958  20.737  0.00  0.00    +0.111 A 
ENDBRANCH  19  23
ENDBRANCH  13   7
BRANCH  11   1
ATOM      1  O   UNL     1      18.540  10.407  20.499  0.00  0.00    -0.387 OA
ATOM     34  H   UNL     1      19.499  10.334  20.648  0.00  0.00    +0.210 HD
ENDBRANCH  11   1
BRANCH  12   2
ATOM      2  O   UNL     1      15.793   9.897  22.861  0.00  0.00    -0.389 OA
ATOM     35  H   UNL     1      15.799  10.660  23.462  0.00  0.00    +0.210 HD
ENDBRANCH  12   2
TORSDOF 10
ENDMDL
MODEL 6
REMARK VINA RESULT:      -6.8     28.209     29.759
REMARK  Name = 11866321
REMARK  10 active torsions:
REMARK  status: ('A' for Active; 'I' for Inactive)
REMARK    1  A    between atoms: O_1  and  C_11
REMARK    2  A    between atoms: O_2  and  C_12
REMARK    3  A    between atoms: O_6  and  C_30
REMARK    4  A    between atoms: N_7  and  C_13
REMARK    5  A    between atoms: N_8  and  C_18
REMARK    6  A    between atoms: C_15  and  C_17
REMARK    7  A    between atoms: C_18  and  C_20
REMARK    8  A    between atoms: C_18  and  C_22
REMARK    9  A    between atoms: C_19  and  C_23
REMARK   10  A    between atoms: C_20  and  C_21
REMARK                            x       y       z     vdW  Elec       q    Type
REMARK                         _______ _______ _______ _____ _____    ______ ____
ROOT
ATOM     11  C   UNL     1      -8.447 -10.268  18.083  0.00  0.00    +0.167 C 
ATOM     12  C   UNL     1      -7.361 -11.017  18.865  0.00  0.00    +0.149 C 
ATOM     13  C   UNL     1      -7.846  -9.150  17.211  0.00  0.00    +0.128 C 
ATOM     14  C   UNL     1      -6.272 -11.588  17.941  0.00  0.00    +0.074 C 
ATOM     15  C   UNL     1      -5.915 -10.673  16.804  0.00  0.00    +0.015 C 
ATOM     16  C   UNL     1      -6.606  -9.574  16.471  0.00  0.00    +0.006 C 
ENDROOT
BRANCH  15  17
ATOM      3  O   UNL     1      -3.594 -10.730  16.438  0.00  0.00    -0.271 OA
ATOM      8  N   UNL     1      -5.018 -11.578  14.798  0.00  0.00    -0.300 N 
ATOM     17  C   UNL     1      -4.720 -10.988  16.014  0.00  0.00    +0.241 C 
ATOM     36  H   UNL     1      -5.990 -11.664  14.515  0.00  0.00    +0.150 HD
BRANCH   8  18
ATOM     18  C   UNL     1      -4.007 -11.976  13.846  0.00  0.00    +0.163 C 
BRANCH  18  22
ATOM      5  O   UNL     1      -3.581 -14.171  14.797  0.00  0.00    -0.274 OA
ATOM      9  N   UNL     1      -1.858 -12.655  14.719  0.00  0.00    -0.328 N 
ATOM     22  C   UNL     1      -3.162 -13.052  14.513  0.00  0.00    +0.231 C 
ATOM     37  H   UNL     1      -1.183 -13.283  15.142  0.00  0.00    +0.145 HD
ATOM     38  H   UNL     1      -1.524 -11.728  14.475  0.00  0.00    +0.145 HD
ENDBRANCH  18  22
BRANCH  18  20
ATOM     20  C   UNL     1      -3.125 -10.799  13.411  0.00  0.00    +0.067 C 
BRANCH  20  21
ATOM     21  C   UNL     1      -3.605 -10.152  12.134  0.00  0.00    -0.045 A 
ATOM     24  C   UNL     1      -2.710  -9.917  11.091  0.00  0.00    +0.007 A 
ATOM     25  C   UNL     1      -4.945  -9.788  11.999  0.00  0.00    +0.007 A 
ATOM     28  C   UNL     1      -3.154  -9.319   9.912  0.00  0.00    +0.045 A 
ATOM     29  C   UNL     1      -5.389  -9.189  10.820  0.00  0.00    +0.045 A 
ATOM     30  C   UNL     1      -4.494  -8.954   9.776  0.00  0.00    +0.117 A 
BRANCH  30   6
ATOM      6  O   UNL     1      -4.927  -8.370   8.626  0.00  0.00    -0.507 OA
ATOM     39  H   UNL     1      -4.546  -8.847   7.868  0.00  0.00    +0.292 HD
ENDBRANCH  30   6
ENDBRANCH  20  21
ENDBRANCH  18  20
ENDBRANCH   8  18
ENDBRANCH  15  17
BRANCH  13   7
ATOM      4  O   UNL     1     -10.045  -7.389  17.767  0.00  0.00    -0.270 OA
ATOM      7  N   UNL     1      -8.805  -8.642  16.260  0.00  0.00    -0.302 N 
ATOM     19  C   UNL     1      -9.838  -7.792  16.625  0.00  0.00    +0.246 C 
ATOM     33  H   UNL     1      -8.756  -9.004  15.313  0.00  0.00    +0.150 HD
BRANCH  19  23
ATOM     10  N   UNL     1     -11.934  -7.948  13.499  0.00  0.00    -0.263 NA
ATOM     23  C   UNL     1     -10.757  -7.380  15.534  0.00  0.00    +0.055 A 
ATOM     26  C   UNL     1     -11.298  -6.099  15.497  0.00  0.00    +0.016 A 
ATOM     27  C   UNL     1     -11.103  -8.259  14.520  0.00  0.00    +0.123 A 
ATOM     31  C   UNL     1     -12.156  -5.742  14.462  0.00  0.00    +0.020 A 
ATOM     32  C   UNL     1     -12.440  -6.694  13.497  0.00  0.00    +0.111 A 
ENDBRANCH  19  23
ENDBRANCH  13   7
BRANCH  11   1
ATOM      1  O   UNL     1      -9.142 -11.203  17.252  0.00  0.00    -0.387 OA
ATOM     34  H   UNL     1      -9.908 -11.527  17.756  0.00  0.00    +0.210 HD
ENDBRANCH  11   1
BRANCH  12   2
ATOM      2  O   UNL     1      -6.775 -10.155  19.838  0.00  0.00    -0.389 OA
ATOM     35  H   UNL     1      -6.728 -10.644  20.676  0.00  0.00    +0.210 HD
ENDBRANCH  12   2
TORSDOF 10
ENDMDL
MODEL 7
REMARK VINA RESULT:      -6.7     28.241     30.758
REMARK  Name = 11866321
REMARK  10 active torsions:
REMARK  status: ('A' for Active; 'I' for Inactive)
REMARK    1  A    between atoms: O_1  and  C_11
REMARK    2  A    between atoms: O_2  and  C_12
REMARK    3  A    between atoms: O_6  and  C_30
REMARK    4  A    between atoms: N_7  and  C_13
REMARK    5  A    between atoms: N_8  and  C_18
REMARK    6  A    between atoms: C_15  and  C_17
REMARK    7  A    between atoms: C_18  and  C_20
REMARK    8  A    between atoms: C_18  and  C_22
REMARK    9  A    between atoms: C_19  and  C_23
REMARK   10  A    between atoms: C_20  and  C_21
REMARK                            x       y       z     vdW  Elec       q    Type
REMARK                         _______ _______ _______ _____ _____    ______ ____
ROOT
ATOM     11  C   UNL     1      -3.828 -11.247  16.422  0.00  0.00    +0.167 C 
ATOM     12  C   UNL     1      -3.929 -11.758  17.865  0.00  0.00    +0.149 C 
ATOM     13  C   UNL     1      -5.171 -11.381  15.680  0.00  0.00    +0.128 C 
ATOM     14  C   UNL     1      -5.046 -11.051  18.652  0.00  0.00    +0.074 C 
ATOM     15  C   UNL     1      -6.280 -10.794  17.834  0.00  0.00    +0.015 C 
ATOM     16  C   UNL     1      -6.352 -10.945  16.504  0.00  0.00    +0.006 C 
ENDROOT
BRANCH  15  17
ATOM      3  O   UNL     1      -7.476 -10.110  19.737  0.00  0.00    -0.271 OA
ATOM      8  N   UNL     1      -8.601 -10.299  17.704  0.00  0.00    -0.300 N 
ATOM     17  C   UNL     1      -7.496 -10.366  18.534  0.00  0.00    +0.241 C 
ATOM     36  H   UNL     1      -8.517 -10.619  16.743  0.00  0.00    +0.150 HD
BRANCH   8  18
ATOM     18  C   UNL     1      -9.912  -9.905  18.166  0.00  0.00    +0.163 C 
BRANCH  18  22
ATOM      5  O   UNL     1     -10.391 -12.049  19.204  0.00  0.00    -0.274 OA
ATOM      9  N   UNL     1     -10.422 -10.163  20.514  0.00  0.00    -0.328 N 
ATOM     22  C   UNL     1     -10.278 -10.830  19.316  0.00  0.00    +0.231 C 
ATOM     37  H   UNL     1     -10.650 -10.664  21.366  0.00  0.00    +0.145 HD
ATOM     38  H   UNL     1     -10.322  -9.156  20.593  0.00  0.00    +0.145 HD
ENDBRANCH  18  22
BRANCH  18  20
ATOM     20  C   UNL     1     -10.967  -9.989  17.057  0.00  0.00    +0.067 C 
BRANCH  20  21
ATOM     21  C   UNL     1     -11.150  -8.681  16.326  0.00  0.00    -0.045 A 
ATOM     24  C   UNL     1     -11.600  -8.675  15.006  0.00  0.00    +0.007 A 
ATOM     25  C   UNL     1     -10.868  -7.477  16.972  0.00  0.00    +0.007 A 
ATOM     28  C   UNL     1     -11.769  -7.466  14.331  0.00  0.00    +0.045 A 
ATOM     29  C   UNL     1     -11.037  -6.267  16.297  0.00  0.00    +0.045 A 
ATOM     30  C   UNL     1     -11.487  -6.262  14.977  0.00  0.00    +0.117 A 
BRANCH  30   6
ATOM      6  O   UNL     1     -11.652  -5.082  14.319  0.00  0.00    -0.507 OA
ATOM     39  H   UNL     1     -12.175  -4.481  14.876  0.00  0.00    +0.292 HD
ENDBRANCH  30   6
ENDBRANCH  20  21
ENDBRANCH  18  20
ENDBRANCH   8  18
ENDBRANCH  15  17
BRANCH  13   7
ATOM      4  O   UNL     1      -3.713 -12.039  13.295  0.00  0.00    -0.270 OA
ATOM      7  N   UNL     1      -5.170 -10.644  14.440  0.00  0.00    -0.302 N 
ATOM     19  C   UNL     1      -4.430 -11.043  13.336  0.00  0.00    +0.246 C 
ATOM     33  H   UNL     1      -5.665  -9.758  14.426  0.00  0.00    +0.150 HD
BRANCH  19  23
ATOM     10  N   UNL     1      -5.794  -8.592  10.822  0.00  0.00    -0.263 NA
ATOM     23  C   UNL     1      -4.514 -10.161  12.144  0.00  0.00    +0.055 A 
ATOM     26  C   UNL     1      -3.453 -10.059  11.251  0.00  0.00    +0.016 A 
ATOM     27  C   UNL     1      -5.653  -9.413  11.887  0.00  0.00    +0.123 A 
ATOM     31  C   UNL     1      -3.561  -9.224  10.144  0.00  0.00    +0.020 A 
ATOM     32  C   UNL     1      -4.742  -8.518   9.976  0.00  0.00    +0.111 A 
ENDBRANCH  19  23
ENDBRANCH  13   7
BRANCH  11   1
ATOM      1  O   UNL     1      -3.429  -9.874  16.448  0.00  0.00    -0.387 OA
ATOM     34  H   UNL     1      -4.033  -9.406  17.049  0.00  0.00    +0.210 HD
ENDBRANCH  11   1
BRANCH  12   2
ATOM      2  O   UNL     1      -4.141 -13.168  17.872  0.00  0.00    -0.389 OA
ATOM     35  H   UNL     1      -4.736 -13.380  17.134  0.00  0.00    +0.210 HD
ENDBRANCH  12   2
TORSDOF 10
ENDMDL
MODEL 8
REMARK VINA RESULT:      -6.7      3.274      7.617
REMARK  Name = 11866321
REMARK  10 active torsions:
REMARK  status: ('A' for Active; 'I' for Inactive)
REMARK    1  A    between atoms: O_1  and  C_11
REMARK    2  A    between atoms: O_2  and  C_12
REMARK    3  A    between atoms: O_6  and  C_30
REMARK    4  A    between atoms: N_7  and  C_13
REMARK    5  A    between atoms: N_8  and  C_18
REMARK    6  A    between atoms: C_15  and  C_17
REMARK    7  A    between atoms: C_18  and  C_20
REMARK    8  A    between atoms: C_18  and  C_22
REMARK    9  A    between atoms: C_19  and  C_23
REMARK   10  A    between atoms: C_20  and  C_21
REMARK                            x       y       z     vdW  Elec       q    Type
REMARK                         _______ _______ _______ _____ _____    ______ ____
ROOT
ATOM     11  C   UNL     1      13.104   6.971  21.559  0.00  0.00    +0.167 C 
ATOM     12  C   UNL     1      11.649   7.061  21.081  0.00  0.00    +0.149 C 
ATOM     13  C   UNL     1      14.068   6.706  20.386  0.00  0.00    +0.128 C 
ATOM     14  C   UNL     1      11.465   8.127  19.987  0.00  0.00    +0.074 C 
ATOM     15  C   UNL     1      12.605   8.182  19.010  0.00  0.00    +0.015 C 
ATOM     16  C   UNL     1      13.772   7.544  19.172  0.00  0.00    +0.006 C 
ENDROOT
BRANCH  15  17
ATOM      3  O   UNL     1      11.402   8.866  17.110  0.00  0.00    -0.271 OA
ATOM      8  N   UNL     1      13.506   9.789  17.509  0.00  0.00    -0.300 N 
ATOM     17  C   UNL     1      12.426   8.968  17.785  0.00  0.00    +0.241 C 
ATOM     36  H   UNL     1      14.336   9.726  18.092  0.00  0.00    +0.150 HD
BRANCH   8  18
ATOM     18  C   UNL     1      13.563  10.656  16.355  0.00  0.00    +0.163 C 
BRANCH  18  22
ATOM      5  O   UNL     1      15.062  10.523  14.447  0.00  0.00    -0.274 OA
ATOM      9  N   UNL     1      14.358   8.570  15.429  0.00  0.00    -0.328 N 
ATOM     22  C   UNL     1      14.393   9.942  15.299  0.00  0.00    +0.231 C 
ATOM     37  H   UNL     1      14.882   7.973  14.798  0.00  0.00    +0.145 HD
ATOM     38  H   UNL     1      13.804   8.103  16.140  0.00  0.00    +0.145 HD
ENDBRANCH  18  22
BRANCH  18  20
ATOM     20  C   UNL     1      14.179  12.021  16.685  0.00  0.00    +0.067 C 
BRANCH  20  21
ATOM     21  C   UNL     1      14.388  12.223  18.166  0.00  0.00    -0.045 A 
ATOM     24  C   UNL     1      13.337  12.679  18.964  0.00  0.00    +0.007 A 
ATOM     25  C   UNL     1      15.632  11.957  18.737  0.00  0.00    +0.007 A 
ATOM     28  C   UNL     1      13.531  12.865  20.332  0.00  0.00    +0.045 A 
ATOM     29  C   UNL     1      15.826  12.144  20.106  0.00  0.00    +0.045 A 
ATOM     30  C   UNL     1      14.776  12.598  20.904  0.00  0.00    +0.117 A 
BRANCH  30   6
ATOM      6  O   UNL     1      14.965  12.781  22.239  0.00  0.00    -0.507 OA
ATOM     39  H   UNL     1      15.918  12.863  22.414  0.00  0.00    +0.292 HD
ENDBRANCH  30   6
ENDBRANCH  20  21
ENDBRANCH  18  20
ENDBRANCH   8  18
ENDBRANCH  15  17
BRANCH  13   7
ATOM      4  O   UNL     1      16.399   5.800  18.975  0.00  0.00    -0.270 OA
ATOM      7  N   UNL     1      15.443   6.913  20.772  0.00  0.00    -0.302 N 
ATOM     19  C   UNL     1      16.508   6.435  20.021  0.00  0.00    +0.246 C 
ATOM     33  H   UNL     1      15.613   7.349  21.672  0.00  0.00    +0.150 HD
BRANCH  19  23
ATOM     10  N   UNL     1      20.182   6.053  20.758  0.00  0.00    -0.263 NA
ATOM     23  C   UNL     1      17.862   6.707  20.567  0.00  0.00    +0.055 A 
ATOM     26  C   UNL     1      18.102   7.818  21.367  0.00  0.00    +0.016 A 
ATOM     27  C   UNL     1      18.926   5.862  20.294  0.00  0.00    +0.123 A 
ATOM     31  C   UNL     1      19.380   8.048  21.863  0.00  0.00    +0.020 A 
ATOM     32  C   UNL     1      20.377   7.144  21.532  0.00  0.00    +0.111 A 
ENDBRANCH  19  23
ENDBRANCH  13   7
BRANCH  11   1
ATOM      1  O   UNL     1      13.454   8.201  22.199  0.00  0.00    -0.387 OA
ATOM     34  H   UNL     1      12.753   8.406  22.841  0.00  0.00    +0.210 HD
ENDBRANCH  11   1
BRANCH  12   2
ATOM      2  O   UNL     1      11.210   5.791  20.606  0.00  0.00    -0.389 OA
ATOM     35  H   UNL     1      11.274   5.800  19.637  0.00  0.00    +0.210 HD
ENDBRANCH  12   2
TORSDOF 10
ENDMDL
MODEL 9
REMARK VINA RESULT:      -6.6     28.082     31.553
REMARK  Name = 11866321
REMARK  10 active torsions:
REMARK  status: ('A' for Active; 'I' for Inactive)
REMARK    1  A    between atoms: O_1  and  C_11
REMARK    2  A    between atoms: O_2  and  C_12
REMARK    3  A    between atoms: O_6  and  C_30
REMARK    4  A    between atoms: N_7  and  C_13
REMARK    5  A    between atoms: N_8  and  C_18
REMARK    6  A    between atoms: C_15  and  C_17
REMARK    7  A    between atoms: C_18  and  C_20
REMARK    8  A    between atoms: C_18  and  C_22
REMARK    9  A    between atoms: C_19  and  C_23
REMARK   10  A    between atoms: C_20  and  C_21
REMARK                            x       y       z     vdW  Elec       q    Type
REMARK                         _______ _______ _______ _____ _____    ______ ____
ROOT
ATOM     11  C   UNL     1     -11.073 -10.481  19.850  0.00  0.00    +0.167 C 
ATOM     12  C   UNL     1     -10.971  -9.610  18.592  0.00  0.00    +0.149 C 
ATOM     13  C   UNL     1     -10.664 -11.939  19.563  0.00  0.00    +0.128 C 
ATOM     14  C   UNL     1      -9.565  -9.657  17.968  0.00  0.00    +0.074 C 
ATOM     15  C   UNL     1      -8.936 -11.020  18.019  0.00  0.00    +0.015 C 
ATOM     16  C   UNL     1      -9.422 -12.053  18.721  0.00  0.00    +0.006 C 
ENDROOT
BRANCH  15  17
ATOM      3  O   UNL     1      -7.740 -11.195  16.003  0.00  0.00    -0.271 OA
ATOM      8  N   UNL     1      -6.612 -11.518  18.018  0.00  0.00    -0.300 N 
ATOM     17  C   UNL     1      -7.719 -11.248  17.232  0.00  0.00    +0.241 C 
ATOM     36  H   UNL     1      -6.732 -11.623  19.021  0.00  0.00    +0.150 HD
BRANCH   8  18
ATOM     18  C   UNL     1      -5.301 -11.779  17.470  0.00  0.00    +0.163 C 
BRANCH  18  22
ATOM      5  O   UNL     1      -4.071 -12.161  19.531  0.00  0.00    -0.274 OA
ATOM      9  N   UNL     1      -4.494 -13.951  18.156  0.00  0.00    -0.328 N 
ATOM     22  C   UNL     1      -4.546 -12.615  18.492  0.00  0.00    +0.231 C 
ATOM     37  H   UNL     1      -4.033 -14.623  18.760  0.00  0.00    +0.145 HD
ATOM     38  H   UNL     1      -4.894 -14.314  17.297  0.00  0.00    +0.145 HD
ENDBRANCH  18  22
BRANCH  18  20
ATOM     20  C   UNL     1      -4.533 -10.487  17.166  0.00  0.00    +0.067 C 
BRANCH  20  21
ATOM     21  C   UNL     1      -3.789 -10.546  15.854  0.00  0.00    -0.045 A 
ATOM     24  C   UNL     1      -4.496 -10.585  14.651  0.00  0.00    +0.007 A 
ATOM     25  C   UNL     1      -2.394 -10.563  15.844  0.00  0.00    +0.007 A 
ATOM     28  C   UNL     1      -3.808 -10.640  13.439  0.00  0.00    +0.045 A 
ATOM     29  C   UNL     1      -1.706 -10.619  14.631  0.00  0.00    +0.045 A 
ATOM     30  C   UNL     1      -2.412 -10.657  13.429  0.00  0.00    +0.117 A 
BRANCH  30   6
ATOM      6  O   UNL     1      -1.742 -10.710  12.247  0.00  0.00    -0.507 OA
ATOM     39  H   UNL     1      -1.729  -9.822  11.851  0.00  0.00    +0.292 HD
ENDBRANCH  30   6
ENDBRANCH  20  21
ENDBRANCH  18  20
ENDBRANCH   8  18
ENDBRANCH  15  17
BRANCH  13   7
ATOM      4  O   UNL     1     -12.223 -14.176  20.464  0.00  0.00    -0.270 OA
ATOM      7  N   UNL     1     -10.473 -12.687  20.781  0.00  0.00    -0.302 N 
ATOM     19  C   UNL     1     -11.281 -13.759  21.133  0.00  0.00    +0.246 C 
ATOM     33  H   UNL     1      -9.773 -12.345  21.431  0.00  0.00    +0.150 HD
BRANCH  19  23
ATOM     10  N   UNL     1      -9.436 -15.701  23.781  0.00  0.00    -0.263 NA
ATOM     23  C   UNL     1     -10.971 -14.408  22.432  0.00  0.00    +0.055 A 
ATOM     26  C   UNL     1     -11.867 -14.352  23.493  0.00  0.00    +0.016 A 
ATOM     27  C   UNL     1      -9.779 -15.089  22.625  0.00  0.00    +0.123 A 
ATOM     31  C   UNL     1     -11.549 -14.969  24.698  0.00  0.00    +0.020 A 
ATOM     32  C   UNL     1     -10.332 -15.624  24.790  0.00  0.00    +0.111 A 
ENDBRANCH  19  23
ENDBRANCH  13   7
BRANCH  11   1
ATOM      1  O   UNL     1     -10.220  -9.933  20.858  0.00  0.00    -0.387 OA
ATOM     34  H   UNL     1     -10.609  -9.088  21.141  0.00  0.00    +0.210 HD
ENDBRANCH  11   1
BRANCH  12   2
ATOM      2  O   UNL     1     -11.945 -10.017  17.633  0.00  0.00    -0.389 OA
ATOM     35  H   UNL     1     -12.720 -10.342  18.121  0.00  0.00    +0.210 HD
ENDBRANCH  12   2
TORSDOF 10
ENDMDL
MODEL 10
REMARK VINA RESULT:      -6.6     13.948     16.592
REMARK  Name = 11866321
REMARK  10 active torsions:
REMARK  status: ('A' for Active; 'I' for Inactive)
REMARK    1  A    between atoms: O_1  and  C_11
REMARK    2  A    between atoms: O_2  and  C_12
REMARK    3  A    between atoms: O_6  and  C_30
REMARK    4  A    between atoms: N_7  and  C_13
REMARK    5  A    between atoms: N_8  and  C_18
REMARK    6  A    between atoms: C_15  and  C_17
REMARK    7  A    between atoms: C_18  and  C_20
REMARK    8  A    between atoms: C_18  and  C_22
REMARK    9  A    between atoms: C_19  and  C_23
REMARK   10  A    between atoms: C_20  and  C_21
REMARK                            x       y       z     vdW  Elec       q    Type
REMARK                         _______ _______ _______ _____ _____    ______ ____
ROOT
ATOM     11  C   UNL     1      14.582   8.685   3.750  0.00  0.00    +0.167 C 
ATOM     12  C   UNL     1      13.062   8.877   3.818  0.00  0.00    +0.149 C 
ATOM     13  C   UNL     1      15.219   8.720   5.153  0.00  0.00    +0.128 C 
ATOM     14  C   UNL     1      12.389   7.842   4.736  0.00  0.00    +0.074 C 
ATOM     15  C   UNL     1      13.186   7.533   5.972  0.00  0.00    +0.015 C 
ATOM     16  C   UNL     1      14.451   7.927   6.175  0.00  0.00    +0.006 C 
ENDROOT
BRANCH  15  17
ATOM      3  O   UNL     1      13.195   6.095   7.831  0.00  0.00    -0.271 OA
ATOM      8  N   UNL     1      11.156   6.894   7.030  0.00  0.00    -0.300 N 
ATOM     17  C   UNL     1      12.534   6.767   7.039  0.00  0.00    +0.241 C 
ATOM     36  H   UNL     1      10.712   7.406   6.273  0.00  0.00    +0.150 HD
BRANCH   8  18
ATOM     18  C   UNL     1      10.297   6.230   7.983  0.00  0.00    +0.163 C 
BRANCH  18  22
ATOM      5  O   UNL     1       9.675   4.623   6.269  0.00  0.00    -0.274 OA
ATOM      9  N   UNL     1      10.197   3.846   8.367  0.00  0.00    -0.328 N 
ATOM     22  C   UNL     1      10.004   4.842   7.433  0.00  0.00    +0.231 C 
ATOM     37  H   UNL     1      10.053   2.871   8.126  0.00  0.00    +0.145 HD
ATOM     38  H   UNL     1      10.473   4.040   9.324  0.00  0.00    +0.145 HD
ENDBRANCH  18  22
BRANCH  18  20
ATOM     20  C   UNL     1       8.990   6.997   8.218  0.00  0.00    +0.067 C 
BRANCH  20  21
ATOM     21  C   UNL     1       8.831   8.176   7.289  0.00  0.00    -0.045 A 
ATOM     24  C   UNL     1       8.148   8.027   6.082  0.00  0.00    +0.007 A 
ATOM     25  C   UNL     1       9.370   9.415   7.637  0.00  0.00    +0.007 A 
ATOM     28  C   UNL     1       8.002   9.117   5.224  0.00  0.00    +0.045 A 
ATOM     29  C   UNL     1       9.224  10.505   6.778  0.00  0.00    +0.045 A 
ATOM     30  C   UNL     1       8.540  10.356   5.572  0.00  0.00    +0.117 A 
BRANCH  30   6
ATOM      6  O   UNL     1       8.398  11.419   4.735  0.00  0.00    -0.507 OA
ATOM     39  H   UNL     1       8.619  11.139   3.830  0.00  0.00    +0.292 HD
ENDBRANCH  30   6
ENDBRANCH  20  21
ENDBRANCH  18  20
ENDBRANCH   8  18
ENDBRANCH  15  17
BRANCH  13   7
ATOM      4  O   UNL     1      17.531  10.121   6.122  0.00  0.00    -0.270 OA
ATOM      7  N   UNL     1      16.584   8.251   5.128  0.00  0.00    -0.302 N 
ATOM     19  C   UNL     1      17.639   9.004   5.623  0.00  0.00    +0.246 C 
ATOM     33  H   UNL     1      16.765   7.376   4.648  0.00  0.00    +0.150 HD
BRANCH  19  23
ATOM     10  N   UNL     1      20.621   7.252   4.130  0.00  0.00    -0.263 NA
ATOM     23  C   UNL     1      18.987   8.392   5.501  0.00  0.00    +0.055 A 
ATOM     26  C   UNL     1      19.865   8.371   6.578  0.00  0.00    +0.016 A 
ATOM     27  C   UNL     1      19.409   7.824   4.309  0.00  0.00    +0.123 A 
ATOM     31  C   UNL     1      21.121   7.791   6.433  0.00  0.00    +0.020 A 
ATOM     32  C   UNL     1      21.448   7.251   5.200  0.00  0.00    +0.111 A 
ENDBRANCH  19  23
ENDBRANCH  13   7
BRANCH  11   1
ATOM      1  O   UNL     1      14.858   7.428   3.128  0.00  0.00    -0.387 OA
ATOM     34  H   UNL     1      14.820   6.745   3.820  0.00  0.00    +0.210 HD
ENDBRANCH  11   1
BRANCH  12   2
ATOM      2  O   UNL     1      12.753  10.198   4.261  0.00  0.00    -0.389 OA
ATOM     35  H   UNL     1      13.560  10.573   4.651  0.00  0.00    +0.210 HD
ENDBRANCH  12   2
TORSDOF 10
ENDMDL
