MODEL 1
REMARK VINA RESULT:      -5.7      0.000      0.000
REMARK  Name = 75536589
REMARK  9 active torsions:
REMARK  status: ('A' for Active; 'I' for Inactive)
REMARK    1  A    between atoms: O_3  and  C_9
REMARK    2  A    between atoms: O_5  and  C_17
REMARK    3  A    between atoms: O_5  and  C_20
REMARK    4  A    between atoms: N_6  and  C_8
REMARK    5  A    between atoms: N_6  and  C_13
REMARK    6  A    between atoms: N_7  and  C_12
REMARK    7  A    between atoms: C_10  and  C_12
REMARK    8  A    between atoms: C_13  and  C_14
REMARK    9  A    between atoms: C_15  and  C_17
REMARK                            x       y       z     vdW  Elec       q    Type
REMARK                         _______ _______ _______ _____ _____    ______ ____
ROOT
ATOM      2  O   UNL     1      10.589   8.500  19.900  0.00  0.00    -0.371 OA
ATOM      8  C   UNL     1      12.500   7.254  19.238  0.00  0.00    +0.111 C 
ATOM      9  C   UNL     1      12.441   7.304  20.755  0.00  0.00    +0.164 C 
ATOM     10  C   UNL     1      10.972   7.634  20.981  0.00  0.00    +0.165 C 
ATOM     11  C   UNL     1      11.583   8.407  18.864  0.00  0.00    +0.181 C 
ENDROOT
BRANCH   9   3
ATOM      3  O   UNL     1      12.805   6.076  21.356  0.00  0.00    -0.388 OA
ATOM     22  H   UNL     1      13.771   5.982  21.297  0.00  0.00    +0.210 HD
ENDBRANCH   9   3
BRANCH   8   6
ATOM      6  N   UNL     1      13.842   7.401  18.701  0.00  0.00    -0.304 NA
ATOM     21  H   UNL     1      13.780   7.777  17.754  0.00  0.00    +0.123 HD
BRANCH   6  13
ATOM     13  C   UNL     1      14.640   8.305  19.521  0.00  0.00    +0.124 C 
BRANCH  13  14
ATOM      1  S   UNL     1      16.993   8.528  20.988  0.00  0.00    -0.100 S 
ATOM     14  C   UNL     1      15.962   7.694  19.904  0.00  0.00    +0.004 A 
ATOM     16  C   UNL     1      16.504   6.495  19.495  0.00  0.00    +0.012 A 
ATOM     18  C   UNL     1      17.782   6.259  20.077  0.00  0.00    +0.008 A 
ATOM     19  C   UNL     1      18.169   7.286  20.910  0.00  0.00    +0.045 A 
ENDBRANCH  13  14
ENDBRANCH   6  13
ENDBRANCH   8   6
BRANCH  10  12
ATOM     12  C   UNL     1      10.709   8.323  22.308  0.00  0.00    +0.138 C 
BRANCH  12   7
ATOM      4  O   UNL     1      11.115  11.170  21.993  0.00  0.00    -0.273 OA
ATOM      7  N   UNL     1      11.846   9.088  22.734  0.00  0.00    -0.311 N 
ATOM     15  C   UNL     1      11.956  10.462  22.540  0.00  0.00    +0.239 C 
ATOM     23  H   UNL     1      12.607   8.592  23.189  0.00  0.00    +0.149 HD
BRANCH  15  17
ATOM     17  C   UNL     1      13.257  11.010  23.087  0.00  0.00    +0.255 C 
BRANCH  17   5
ATOM      5  O   UNL     1      13.593  12.224  22.451  0.00  0.00    -0.374 OA
ATOM     20  C   UNL     1      13.630  13.313  23.368  0.00  0.00    +0.194 C 
ENDBRANCH  17   5
ENDBRANCH  15  17
ENDBRANCH  12   7
ENDBRANCH  10  12
TORSDOF 8
ENDMDL
MODEL 2
REMARK VINA RESULT:      -5.6      2.933      4.715
REMARK  Name = 75536589
REMARK  9 active torsions:
REMARK  status: ('A' for Active; 'I' for Inactive)
REMARK    1  A    between atoms: O_3  and  C_9
REMARK    2  A    between atoms: O_5  and  C_17
REMARK    3  A    between atoms: O_5  and  C_20
REMARK    4  A    between atoms: N_6  and  C_8
REMARK    5  A    between atoms: N_6  and  C_13
REMARK    6  A    between atoms: N_7  and  C_12
REMARK    7  A    between atoms: C_10  and  C_12
REMARK    8  A    between atoms: C_13  and  C_14
REMARK    9  A    between atoms: C_15  and  C_17
REMARK                            x       y       z     vdW  Elec       q    Type
REMARK                         _______ _______ _______ _____ _____    ______ ____
ROOT
ATOM      2  O   UNL     1      16.155   6.131  18.978  0.00  0.00    -0.371 OA
ATOM      8  C   UNL     1      17.335   6.372  21.026  0.00  0.00    +0.111 C 
ATOM      9  C   UNL     1      15.988   7.062  21.146  0.00  0.00    +0.164 C 
ATOM     10  C   UNL     1      15.208   6.380  20.030  0.00  0.00    +0.165 C 
ATOM     11  C   UNL     1      17.483   6.262  19.518  0.00  0.00    +0.181 C 
ENDROOT
BRANCH   9   3
ATOM      3  O   UNL     1      15.384   6.864  22.410  0.00  0.00    -0.388 OA
ATOM     22  H   UNL     1      15.411   5.914  22.616  0.00  0.00    +0.210 HD
ENDBRANCH   9   3
BRANCH   8   6
ATOM      6  N   UNL     1      18.424   7.106  21.649  0.00  0.00    -0.304 NA
ATOM     21  H   UNL     1      18.615   6.698  22.565  0.00  0.00    +0.123 HD
BRANCH   6  13
ATOM     13  C   UNL     1      19.634   7.041  20.837  0.00  0.00    +0.124 C 
BRANCH  13  14
ATOM      1  S   UNL     1      21.343   5.874  22.694  0.00  0.00    -0.100 S 
ATOM     14  C   UNL     1      20.494   5.863  21.207  0.00  0.00    +0.004 A 
ATOM     16  C   UNL     1      20.720   4.706  20.492  0.00  0.00    +0.012 A 
ATOM     18  C   UNL     1      21.600   3.819  21.174  0.00  0.00    +0.008 A 
ATOM     19  C   UNL     1      22.016   4.329  22.384  0.00  0.00    +0.045 A 
ENDBRANCH  13  14
ENDBRANCH   6  13
ENDBRANCH   8   6
BRANCH  10  12
ATOM     12  C   UNL     1      14.061   7.219  19.500  0.00  0.00    +0.138 C 
BRANCH  12   7
ATOM      4  O   UNL     1      11.484   6.285  20.427  0.00  0.00    -0.273 OA
ATOM      7  N   UNL     1      13.275   7.765  20.570  0.00  0.00    -0.311 N 
ATOM     15  C   UNL     1      12.039   7.248  20.949  0.00  0.00    +0.239 C 
ATOM     23  H   UNL     1      13.642   8.575  21.061  0.00  0.00    +0.149 HD
BRANCH  15  17
ATOM     17  C   UNL     1      11.433   8.015  22.104  0.00  0.00    +0.255 C 
BRANCH  17   5
ATOM      5  O   UNL     1      10.934   9.261  21.667  0.00  0.00    -0.374 OA
ATOM     20  C   UNL     1      10.744  10.167  22.750  0.00  0.00    +0.194 C 
ENDBRANCH  17   5
ENDBRANCH  15  17
ENDBRANCH  12   7
ENDBRANCH  10  12
TORSDOF 8
ENDMDL
MODEL 3
REMARK VINA RESULT:      -5.5      3.356      6.429
REMARK  Name = 75536589
REMARK  9 active torsions:
REMARK  status: ('A' for Active; 'I' for Inactive)
REMARK    1  A    between atoms: O_3  and  C_9
REMARK    2  A    between atoms: O_5  and  C_17
REMARK    3  A    between atoms: O_5  and  C_20
REMARK    4  A    between atoms: N_6  and  C_8
REMARK    5  A    between atoms: N_6  and  C_13
REMARK    6  A    between atoms: N_7  and  C_12
REMARK    7  A    between atoms: C_10  and  C_12
REMARK    8  A    between atoms: C_13  and  C_14
REMARK    9  A    between atoms: C_15  and  C_17
REMARK                            x       y       z     vdW  Elec       q    Type
REMARK                         _______ _______ _______ _____ _____    ______ ____
ROOT
ATOM      2  O   UNL     1      13.349   8.331  21.353  0.00  0.00    -0.371 OA
ATOM      8  C   UNL     1      11.370   9.012  22.477  0.00  0.00    +0.111 C 
ATOM      9  C   UNL     1      10.996   8.090  21.330  0.00  0.00    +0.164 C 
ATOM     10  C   UNL     1      12.315   7.367  21.093  0.00  0.00    +0.165 C 
ATOM     11  C   UNL     1      12.775   9.433  22.078  0.00  0.00    +0.181 C 
ENDROOT
BRANCH   9   3
ATOM      3  O   UNL     1       9.955   7.193  21.668  0.00  0.00    -0.388 OA
ATOM     22  H   UNL     1       9.113   7.679  21.641  0.00  0.00    +0.210 HD
ENDBRANCH   9   3
BRANCH   8   6
ATOM      6  N   UNL     1      10.466  10.139  22.638  0.00  0.00    -0.304 NA
ATOM     21  H   UNL     1      10.096  10.133  23.589  0.00  0.00    +0.123 HD
BRANCH   6  13
ATOM     13  C   UNL     1      11.154  11.403  22.402  0.00  0.00    +0.124 C 
BRANCH  13  14
ATOM      1  S   UNL     1      11.134  11.981  25.122  0.00  0.00    -0.100 S 
ATOM     14  C   UNL     1      10.867  12.408  23.485  0.00  0.00    +0.004 A 
ATOM     16  C   UNL     1      10.395  13.696  23.358  0.00  0.00    +0.012 A 
ATOM     18  C   UNL     1      10.250  14.340  24.620  0.00  0.00    +0.008 A 
ATOM     19  C   UNL     1      10.616  13.521  25.665  0.00  0.00    +0.045 A 
ENDBRANCH  13  14
ENDBRANCH   6  13
ENDBRANCH   8   6
BRANCH  10  12
ATOM     12  C   UNL     1      12.459   6.828  19.682  0.00  0.00    +0.138 C 
BRANCH  12   7
ATOM      4  O   UNL     1      11.156   7.614  17.221  0.00  0.00    -0.273 OA
ATOM      7  N   UNL     1      12.876   7.855  18.770  0.00  0.00    -0.311 N 
ATOM     15  C   UNL     1      12.184   8.167  17.604  0.00  0.00    +0.239 C 
ATOM     23  H   UNL     1      13.725   8.367  18.991  0.00  0.00    +0.149 HD
BRANCH  15  17
ATOM     17  C   UNL     1      12.846   9.289  16.833  0.00  0.00    +0.255 C 
BRANCH  17   5
ATOM      5  O   UNL     1      14.204   9.408  17.195  0.00  0.00    -0.374 OA
ATOM     20  C   UNL     1      14.667  10.751  17.085  0.00  0.00    +0.194 C 
ENDBRANCH  17   5
ENDBRANCH  15  17
ENDBRANCH  12   7
ENDBRANCH  10  12
TORSDOF 8
ENDMDL
MODEL 4
REMARK VINA RESULT:      -5.5      2.685      6.233
REMARK  Name = 75536589
REMARK  9 active torsions:
REMARK  status: ('A' for Active; 'I' for Inactive)
REMARK    1  A    between atoms: O_3  and  C_9
REMARK    2  A    between atoms: O_5  and  C_17
REMARK    3  A    between atoms: O_5  and  C_20
REMARK    4  A    between atoms: N_6  and  C_8
REMARK    5  A    between atoms: N_6  and  C_13
REMARK    6  A    between atoms: N_7  and  C_12
REMARK    7  A    between atoms: C_10  and  C_12
REMARK    8  A    between atoms: C_13  and  C_14
REMARK    9  A    between atoms: C_15  and  C_17
REMARK                            x       y       z     vdW  Elec       q    Type
REMARK                         _______ _______ _______ _____ _____    ______ ____
ROOT
ATOM      2  O   UNL     1      13.212   6.583  20.713  0.00  0.00    -0.371 OA
ATOM      8  C   UNL     1      11.076   7.612  20.871  0.00  0.00    +0.111 C 
ATOM      9  C   UNL     1      11.799   8.155  19.652  0.00  0.00    +0.164 C 
ATOM     10  C   UNL     1      12.833   7.063  19.413  0.00  0.00    +0.165 C 
ATOM     11  C   UNL     1      12.229   7.025  21.668  0.00  0.00    +0.181 C 
ENDROOT
BRANCH   9   3
ATOM      3  O   UNL     1      10.942   8.323  18.539  0.00  0.00    -0.388 OA
ATOM     22  H   UNL     1      11.440   8.105  17.733  0.00  0.00    +0.210 HD
ENDBRANCH   9   3
BRANCH   8   6
ATOM      6  N   UNL     1      10.334   8.622  21.608  0.00  0.00    -0.304 NA
ATOM     21  H   UNL     1       9.474   8.205  21.966  0.00  0.00    +0.123 HD
BRANCH   6  13
ATOM     13  C   UNL     1      11.117   9.136  22.727  0.00  0.00    +0.124 C 
BRANCH  13  14
ATOM      1  S   UNL     1      10.924  11.487  24.198  0.00  0.00    -0.100 S 
ATOM     14  C   UNL     1      11.167  10.640  22.730  0.00  0.00    +0.004 A 
ATOM     16  C   UNL     1      11.393  11.494  21.672  0.00  0.00    +0.012 A 
ATOM     18  C   UNL     1      11.365  12.861  22.072  0.00  0.00    +0.008 A 
ATOM     19  C   UNL     1      11.119  13.001  23.420  0.00  0.00    +0.045 A 
ENDBRANCH  13  14
ENDBRANCH   6  13
ENDBRANCH   8   6
BRANCH  10  12
ATOM     12  C   UNL     1      14.062   7.553  18.669  0.00  0.00    +0.138 C 
BRANCH  12   7
ATOM      4  O   UNL     1      16.342   5.773  18.626  0.00  0.00    -0.273 OA
ATOM      7  N   UNL     1      15.210   7.596  19.528  0.00  0.00    -0.311 N 
ATOM     15  C   UNL     1      16.266   6.694  19.435  0.00  0.00    +0.239 C 
ATOM     23  H   UNL     1      15.239   8.317  20.243  0.00  0.00    +0.149 HD
BRANCH  15  17
ATOM     17  C   UNL     1      17.342   6.972  20.463  0.00  0.00    +0.255 C 
BRANCH  17   5
ATOM      5  O   UNL     1      18.583   6.450  20.039  0.00  0.00    -0.374 OA
ATOM     20  C   UNL     1      19.514   6.354  21.113  0.00  0.00    +0.194 C 
ENDBRANCH  17   5
ENDBRANCH  15  17
ENDBRANCH  12   7
ENDBRANCH  10  12
TORSDOF 8
ENDMDL
MODEL 5
REMARK VINA RESULT:      -5.3      3.002      4.528
REMARK  Name = 75536589
REMARK  9 active torsions:
REMARK  status: ('A' for Active; 'I' for Inactive)
REMARK    1  A    between atoms: O_3  and  C_9
REMARK    2  A    between atoms: O_5  and  C_17
REMARK    3  A    between atoms: O_5  and  C_20
REMARK    4  A    between atoms: N_6  and  C_8
REMARK    5  A    between atoms: N_6  and  C_13
REMARK    6  A    between atoms: N_7  and  C_12
REMARK    7  A    between atoms: C_10  and  C_12
REMARK    8  A    between atoms: C_13  and  C_14
REMARK    9  A    between atoms: C_15  and  C_17
REMARK                            x       y       z     vdW  Elec       q    Type
REMARK                         _______ _______ _______ _____ _____    ______ ____
ROOT
ATOM      2  O   UNL     1      11.869   6.935  19.611  0.00  0.00    -0.371 OA
ATOM      8  C   UNL     1      13.210   8.060  21.218  0.00  0.00    +0.111 C 
ATOM      9  C   UNL     1      12.980   8.981  20.032  0.00  0.00    +0.164 C 
ATOM     10  C   UNL     1      11.741   8.352  19.409  0.00  0.00    +0.165 C 
ATOM     11  C   UNL     1      12.873   6.706  20.617  0.00  0.00    +0.181 C 
ENDROOT
BRANCH   9   3
ATOM      3  O   UNL     1      12.753  10.322  20.418  0.00  0.00    -0.388 OA
ATOM     22  H   UNL     1      12.291  10.775  19.693  0.00  0.00    +0.210 HD
ENDBRANCH   9   3
BRANCH   8   6
ATOM      6  N   UNL     1      14.560   8.123  21.752  0.00  0.00    -0.304 NA
ATOM     21  H   UNL     1      14.847   7.186  22.035  0.00  0.00    +0.123 HD
BRANCH   6  13
ATOM     13  C   UNL     1      15.496   8.628  20.755  0.00  0.00    +0.124 C 
BRANCH  13  14
ATOM      1  S   UNL     1      18.007   7.486  21.109  0.00  0.00    -0.100 S 
ATOM     14  C   UNL     1      16.484   7.574  20.331  0.00  0.00    +0.004 A 
ATOM     16  C   UNL     1      16.347   6.611  19.355  0.00  0.00    +0.012 A 
ATOM     18  C   UNL     1      17.506   5.791  19.245  0.00  0.00    +0.008 A 
ATOM     19  C   UNL     1      18.487   6.157  20.140  0.00  0.00    +0.045 A 
ENDBRANCH  13  14
ENDBRANCH   6  13
ENDBRANCH   8   6
BRANCH  10  12
ATOM     12  C   UNL     1      11.599   8.648  17.927  0.00  0.00    +0.138 C 
BRANCH  12   7
ATOM      4  O   UNL     1      12.584   8.780  15.210  0.00  0.00    -0.273 OA
ATOM      7  N   UNL     1      12.700   9.430  17.442  0.00  0.00    -0.311 N 
ATOM     15  C   UNL     1      13.106   9.432  16.111  0.00  0.00    +0.239 C 
ATOM     23  H   UNL     1      13.208   9.998  18.113  0.00  0.00    +0.149 HD
BRANCH  15  17
ATOM     17  C   UNL     1      14.290  10.346  15.880  0.00  0.00    +0.255 C 
BRANCH  17   5
ATOM      5  O   UNL     1      14.352  10.749  14.529  0.00  0.00    -0.374 OA
ATOM     20  C   UNL     1      13.794  12.046  14.335  0.00  0.00    +0.194 C 
ENDBRANCH  17   5
ENDBRANCH  15  17
ENDBRANCH  12   7
ENDBRANCH  10  12
TORSDOF 8
ENDMDL
MODEL 6
REMARK VINA RESULT:      -5.3      4.715      7.050
REMARK  Name = 75536589
REMARK  9 active torsions:
REMARK  status: ('A' for Active; 'I' for Inactive)
REMARK    1  A    between atoms: O_3  and  C_9
REMARK    2  A    between atoms: O_5  and  C_17
REMARK    3  A    between atoms: O_5  and  C_20
REMARK    4  A    between atoms: N_6  and  C_8
REMARK    5  A    between atoms: N_6  and  C_13
REMARK    6  A    between atoms: N_7  and  C_12
REMARK    7  A    between atoms: C_10  and  C_12
REMARK    8  A    between atoms: C_13  and  C_14
REMARK    9  A    between atoms: C_15  and  C_17
REMARK                            x       y       z     vdW  Elec       q    Type
REMARK                         _______ _______ _______ _____ _____    ______ ____
ROOT
ATOM      2  O   UNL     1      18.520   7.175  21.753  0.00  0.00    -0.371 OA
ATOM      8  C   UNL     1      19.866   5.973  20.208  0.00  0.00    +0.111 C 
ATOM      9  C   UNL     1      18.410   5.596  19.995  0.00  0.00    +0.164 C 
ATOM     10  C   UNL     1      17.703   6.782  20.637  0.00  0.00    +0.165 C 
ATOM     11  C   UNL     1      19.819   6.575  21.602  0.00  0.00    +0.181 C 
ENDROOT
BRANCH   9   3
ATOM      3  O   UNL     1      18.076   5.461  18.627  0.00  0.00    -0.388 OA
ATOM     22  H   UNL     1      17.418   4.750  18.542  0.00  0.00    +0.210 HD
ENDBRANCH   9   3
BRANCH   8   6
ATOM      6  N   UNL     1      20.780   4.847  20.108  0.00  0.00    -0.304 NA
ATOM     21  H   UNL     1      20.796   4.519  19.142  0.00  0.00    +0.123 HD
BRANCH   6  13
ATOM     13  C   UNL     1      22.130   5.231  20.503  0.00  0.00    +0.124 C 
BRANCH  13  14
ATOM      1  S   UNL     1      24.631   4.152  19.943  0.00  0.00    -0.100 S 
ATOM     14  C   UNL     1      23.049   4.041  20.588  0.00  0.00    +0.004 A 
ATOM     16  C   UNL     1      22.800   2.802  21.136  0.00  0.00    +0.012 A 
ATOM     18  C   UNL     1      23.922   1.932  21.024  0.00  0.00    +0.008 A 
ATOM     19  C   UNL     1      24.987   2.538  20.395  0.00  0.00    +0.045 A 
ENDBRANCH  13  14
ENDBRANCH   6  13
ENDBRANCH   8   6
BRANCH  10  12
ATOM     12  C   UNL     1      16.301   6.457  21.116  0.00  0.00    +0.138 C 
BRANCH  12   7
ATOM      4  O   UNL     1      13.487   7.061  21.414  0.00  0.00    -0.273 OA
ATOM      7  N   UNL     1      15.337   6.632  20.068  0.00  0.00    -0.311 N 
ATOM     15  C   UNL     1      13.996   6.923  20.305  0.00  0.00    +0.239 C 
ATOM     23  H   UNL     1      15.656   6.527  19.109  0.00  0.00    +0.149 HD
BRANCH  15  17
ATOM     17  C   UNL     1      13.208   7.054  19.020  0.00  0.00    +0.255 C 
BRANCH  17   5
ATOM      5  O   UNL     1      11.835   7.235  19.293  0.00  0.00    -0.374 OA
ATOM     20  C   UNL     1      11.433   8.591  19.123  0.00  0.00    +0.194 C 
ENDBRANCH  17   5
ENDBRANCH  15  17
ENDBRANCH  12   7
ENDBRANCH  10  12
TORSDOF 8
ENDMDL
MODEL 7
REMARK VINA RESULT:      -5.2      2.897      4.947
REMARK  Name = 75536589
REMARK  9 active torsions:
REMARK  status: ('A' for Active; 'I' for Inactive)
REMARK    1  A    between atoms: O_3  and  C_9
REMARK    2  A    between atoms: O_5  and  C_17
REMARK    3  A    between atoms: O_5  and  C_20
REMARK    4  A    between atoms: N_6  and  C_8
REMARK    5  A    between atoms: N_6  and  C_13
REMARK    6  A    between atoms: N_7  and  C_12
REMARK    7  A    between atoms: C_10  and  C_12
REMARK    8  A    between atoms: C_13  and  C_14
REMARK    9  A    between atoms: C_15  and  C_17
REMARK                            x       y       z     vdW  Elec       q    Type
REMARK                         _______ _______ _______ _____ _____    ______ ____
ROOT
ATOM      2  O   UNL     1      12.603   9.691  21.545  0.00  0.00    -0.371 OA
ATOM      8  C   UNL     1      11.855   7.991  20.063  0.00  0.00    +0.111 C 
ATOM      9  C   UNL     1      13.215   7.603  20.618  0.00  0.00    +0.164 C 
ATOM     10  C   UNL     1      13.277   8.464  21.871  0.00  0.00    +0.165 C 
ATOM     11  C   UNL     1      11.829   9.483  20.349  0.00  0.00    +0.181 C 
ENDROOT
BRANCH   9   3
ATOM      3  O   UNL     1      13.307   6.224  20.920  0.00  0.00    -0.388 OA
ATOM     22  H   UNL     1      12.456   5.806  20.704  0.00  0.00    +0.210 HD
ENDBRANCH   9   3
BRANCH   8   6
ATOM      6  N   UNL     1      11.691   7.682  18.652  0.00  0.00    -0.304 NA
ATOM     21  H   UNL     1      11.163   8.435  18.209  0.00  0.00    +0.123 HD
BRANCH   6  13
ATOM     13  C   UNL     1      12.983   7.550  17.989  0.00  0.00    +0.124 C 
BRANCH  13  14
ATOM      1  S   UNL     1      14.497   9.877  17.824  0.00  0.00    -0.100 S 
ATOM     14  C   UNL     1      13.336   8.783  17.201  0.00  0.00    +0.004 A 
ATOM     16  C   UNL     1      12.841   9.194  15.982  0.00  0.00    +0.012 A 
ATOM     18  C   UNL     1      13.422  10.422  15.555  0.00  0.00    +0.008 A 
ATOM     19  C   UNL     1      14.339  10.904  16.462  0.00  0.00    +0.045 A 
ENDBRANCH  13  14
ENDBRANCH   6  13
ENDBRANCH   8   6
BRANCH  10  12
ATOM     12  C   UNL     1      14.694   8.763  22.325  0.00  0.00    +0.138 C 
BRANCH  12   7
ATOM      4  O   UNL     1      17.211   8.984  20.916  0.00  0.00    -0.273 OA
ATOM      7  N   UNL     1      15.589   7.696  21.978  0.00  0.00    -0.311 N 
ATOM     15  C   UNL     1      16.786   7.896  21.296  0.00  0.00    +0.239 C 
ATOM     23  H   UNL     1      15.322   6.751  22.238  0.00  0.00    +0.149 HD
BRANCH  15  17
ATOM     17  C   UNL     1      17.531   6.599  21.062  0.00  0.00    +0.255 C 
BRANCH  17   5
ATOM      5  O   UNL     1      17.725   6.377  19.683  0.00  0.00    -0.374 OA
ATOM     20  C   UNL     1      16.499   6.101  19.011  0.00  0.00    +0.194 C 
ENDBRANCH  17   5
ENDBRANCH  15  17
ENDBRANCH  12   7
ENDBRANCH  10  12
TORSDOF 8
ENDMDL
MODEL 8
REMARK VINA RESULT:      -5.2     26.119     27.618
REMARK  Name = 75536589
REMARK  9 active torsions:
REMARK  status: ('A' for Active; 'I' for Inactive)
REMARK    1  A    between atoms: O_3  and  C_9
REMARK    2  A    between atoms: O_5  and  C_17
REMARK    3  A    between atoms: O_5  and  C_20
REMARK    4  A    between atoms: N_6  and  C_8
REMARK    5  A    between atoms: N_6  and  C_13
REMARK    6  A    between atoms: N_7  and  C_12
REMARK    7  A    between atoms: C_10  and  C_12
REMARK    8  A    between atoms: C_13  and  C_14
REMARK    9  A    between atoms: C_15  and  C_17
REMARK                            x       y       z     vdW  Elec       q    Type
REMARK                         _______ _______ _______ _____ _____    ______ ____
ROOT
ATOM      2  O   UNL     1      -5.052 -11.694  15.850  0.00  0.00    -0.371 OA
ATOM      8  C   UNL     1      -3.026 -11.172  14.724  0.00  0.00    +0.111 C 
ATOM      9  C   UNL     1      -2.899 -10.772  16.183  0.00  0.00    +0.164 C 
ATOM     10  C   UNL     1      -3.991 -11.624  16.817  0.00  0.00    +0.165 C 
ATOM     11  C   UNL     1      -4.534 -11.281  14.572  0.00  0.00    +0.181 C 
ENDROOT
BRANCH   9   3
ATOM      3  O   UNL     1      -1.624 -11.064  16.720  0.00  0.00    -0.388 OA
ATOM     22  H   UNL     1      -1.509 -10.546  17.535  0.00  0.00    +0.210 HD
ENDBRANCH   9   3
BRANCH   8   6
ATOM      6  N   UNL     1      -2.432 -10.216  13.803  0.00  0.00    -0.304 NA
ATOM     21  H   UNL     1      -1.655  -9.748  14.270  0.00  0.00    +0.123 HD
BRANCH   6  13
ATOM     13  C   UNL     1      -1.937 -10.881  12.604  0.00  0.00    +0.124 C 
BRANCH  13  14
ATOM      1  S   UNL     1      -3.799 -11.683  10.700  0.00  0.00    -0.100 S 
ATOM     14  C   UNL     1      -2.748 -10.519  11.388  0.00  0.00    +0.004 A 
ATOM     16  C   UNL     1      -2.779  -9.325  10.701  0.00  0.00    +0.012 A 
ATOM     18  C   UNL     1      -3.676  -9.367   9.596  0.00  0.00    +0.008 A 
ATOM     19  C   UNL     1      -4.297 -10.591   9.479  0.00  0.00    +0.045 A 
ENDBRANCH  13  14
ENDBRANCH   6  13
ENDBRANCH   8   6
BRANCH  10  12
ATOM     12  C   UNL     1      -4.520 -11.052  18.118  0.00  0.00    +0.138 C 
BRANCH  12   7
ATOM      4  O   UNL     1      -6.259 -10.680  20.400  0.00  0.00    -0.273 OA
ATOM      7  N   UNL     1      -5.953 -10.979  18.112  0.00  0.00    -0.311 N 
ATOM     15  C   UNL     1      -6.712 -10.797  19.265  0.00  0.00    +0.239 C 
ATOM     23  H   UNL     1      -6.428 -11.076  17.220  0.00  0.00    +0.149 HD
BRANCH  15  17
ATOM     17  C   UNL     1      -8.196 -10.757  18.968  0.00  0.00    +0.255 C 
BRANCH  17   5
ATOM      5  O   UNL     1      -8.936 -11.274  20.052  0.00  0.00    -0.374 OA
ATOM     20  C   UNL     1     -10.287 -10.823  20.037  0.00  0.00    +0.194 C 
ENDBRANCH  17   5
ENDBRANCH  15  17
ENDBRANCH  12   7
ENDBRANCH  10  12
TORSDOF 8
ENDMDL
MODEL 9
REMARK VINA RESULT:      -5.1      4.727      8.301
REMARK  Name = 75536589
REMARK  9 active torsions:
REMARK  status: ('A' for Active; 'I' for Inactive)
REMARK    1  A    between atoms: O_3  and  C_9
REMARK    2  A    between atoms: O_5  and  C_17
REMARK    3  A    between atoms: O_5  and  C_20
REMARK    4  A    between atoms: N_6  and  C_8
REMARK    5  A    between atoms: N_6  and  C_13
REMARK    6  A    between atoms: N_7  and  C_12
REMARK    7  A    between atoms: C_10  and  C_12
REMARK    8  A    between atoms: C_13  and  C_14
REMARK    9  A    between atoms: C_15  and  C_17
REMARK                            x       y       z     vdW  Elec       q    Type
REMARK                         _______ _______ _______ _____ _____    ______ ____
ROOT
ATOM      2  O   UNL     1      17.874   6.591  21.650  0.00  0.00    -0.371 OA
ATOM      8  C   UNL     1      16.276   6.242  19.927  0.00  0.00    +0.111 C 
ATOM      9  C   UNL     1      17.670   6.199  19.327  0.00  0.00    +0.164 C 
ATOM     10  C   UNL     1      18.512   5.905  20.561  0.00  0.00    +0.165 C 
ATOM     11  C   UNL     1      16.539   6.947  21.247  0.00  0.00    +0.181 C 
ENDROOT
BRANCH   9   3
ATOM      3  O   UNL     1      17.809   5.194  18.341  0.00  0.00    -0.388 OA
ATOM     22  H   UNL     1      17.437   5.529  17.508  0.00  0.00    +0.210 HD
ENDBRANCH   9   3
BRANCH   8   6
ATOM      6  N   UNL     1      15.304   6.936  19.098  0.00  0.00    -0.304 NA
ATOM     21  H   UNL     1      14.500   6.325  18.951  0.00  0.00    +0.123 HD
BRANCH   6  13
ATOM     13  C   UNL     1      14.857   8.169  19.734  0.00  0.00    +0.124 C 
BRANCH  13  14
ATOM      1  S   UNL     1      12.696   7.160  21.165  0.00  0.00    -0.100 S 
ATOM     14  C   UNL     1      13.369   8.175  19.960  0.00  0.00    +0.004 A 
ATOM     16  C   UNL     1      12.404   8.913  19.310  0.00  0.00    +0.012 A 
ATOM     18  C   UNL     1      11.097   8.643  19.807  0.00  0.00    +0.008 A 
ATOM     19  C   UNL     1      11.111   7.707  20.817  0.00  0.00    +0.045 A 
ENDBRANCH  13  14
ENDBRANCH   6  13
ENDBRANCH   8   6
BRANCH  10  12
ATOM     12  C   UNL     1      19.950   6.373  20.432  0.00  0.00    +0.138 C 
BRANCH  12   7
ATOM      4  O   UNL     1      21.218   4.996  22.637  0.00  0.00    -0.273 OA
ATOM      7  N   UNL     1      20.856   5.263  20.353  0.00  0.00    -0.311 N 
ATOM     15  C   UNL     1      21.421   4.659  21.473  0.00  0.00    +0.239 C 
ATOM     23  H   UNL     1      21.098   4.914  19.431  0.00  0.00    +0.149 HD
BRANCH  15  17
ATOM     17  C   UNL     1      22.336   3.513  21.100  0.00  0.00    +0.255 C 
BRANCH  17   5
ATOM      5  O   UNL     1      23.688   3.885  21.254  0.00  0.00    -0.374 OA
ATOM     20  C   UNL     1      24.398   3.838  20.020  0.00  0.00    +0.194 C 
ENDBRANCH  17   5
ENDBRANCH  15  17
ENDBRANCH  12   7
ENDBRANCH  10  12
TORSDOF 8
ENDMDL
MODEL 10
REMARK VINA RESULT:      -5.0      3.052      5.922
REMARK  Name = 75536589
REMARK  9 active torsions:
REMARK  status: ('A' for Active; 'I' for Inactive)
REMARK    1  A    between atoms: O_3  and  C_9
REMARK    2  A    between atoms: O_5  and  C_17
REMARK    3  A    between atoms: O_5  and  C_20
REMARK    4  A    between atoms: N_6  and  C_8
REMARK    5  A    between atoms: N_6  and  C_13
REMARK    6  A    between atoms: N_7  and  C_12
REMARK    7  A    between atoms: C_10  and  C_12
REMARK    8  A    between atoms: C_13  and  C_14
REMARK    9  A    between atoms: C_15  and  C_17
REMARK                            x       y       z     vdW  Elec       q    Type
REMARK                         _______ _______ _______ _____ _____    ______ ____
ROOT
ATOM      2  O   UNL     1      13.798   7.107  20.433  0.00  0.00    -0.371 OA
ATOM      8  C   UNL     1      12.190   7.958  21.961  0.00  0.00    +0.111 C 
ATOM      9  C   UNL     1      11.638   8.064  20.550  0.00  0.00    +0.164 C 
ATOM     10  C   UNL     1      12.499   7.042  19.821  0.00  0.00    +0.165 C 
ATOM     11  C   UNL     1      13.677   7.796  21.691  0.00  0.00    +0.181 C 
ENDROOT
BRANCH   9   3
ATOM      3  O   UNL     1      10.263   7.743  20.478  0.00  0.00    -0.388 OA
ATOM     22  H   UNL     1       9.835   8.367  19.867  0.00  0.00    +0.210 HD
ENDBRANCH   9   3
BRANCH   8   6
ATOM      6  N   UNL     1      11.888   9.111  22.794  0.00  0.00    -0.304 NA
ATOM     21  H   UNL     1      12.448   9.058  23.646  0.00  0.00    +0.123 HD
BRANCH   6  13
ATOM     13  C   UNL     1      12.194  10.355  22.099  0.00  0.00    +0.124 C 
BRANCH  13  14
ATOM      1  S   UNL     1      11.074  11.496  24.374  0.00  0.00    -0.100 S 
ATOM     14  C   UNL     1      11.475  11.529  22.710  0.00  0.00    +0.004 A 
ATOM     16  C   UNL     1      11.066  12.696  22.102  0.00  0.00    +0.012 A 
ATOM     18  C   UNL     1      10.414  13.574  23.015  0.00  0.00    +0.008 A 
ATOM     19  C   UNL     1      10.348  13.045  24.285  0.00  0.00    +0.045 A 
ENDBRANCH  13  14
ENDBRANCH   6  13
ENDBRANCH   8   6
BRANCH  10  12
ATOM     12  C   UNL     1      12.620   7.312  18.332  0.00  0.00    +0.138 C 
BRANCH  12   7
ATOM      4  O   UNL     1      13.609   8.416  15.848  0.00  0.00    -0.273 OA
ATOM      7  N   UNL     1      12.990   8.675  18.077  0.00  0.00    -0.311 N 
ATOM     15  C   UNL     1      13.458   9.119  16.843  0.00  0.00    +0.239 C 
ATOM     23  H   UNL     1      12.913   9.337  18.843  0.00  0.00    +0.149 HD
BRANCH  15  17
ATOM     17  C   UNL     1      13.772  10.600  16.855  0.00  0.00    +0.255 C 
BRANCH  17   5
ATOM      5  O   UNL     1      13.910  11.069  18.178  0.00  0.00    -0.374 OA
ATOM     20  C   UNL     1      13.716  12.478  18.265  0.00  0.00    +0.194 C 
ENDBRANCH  17   5
ENDBRANCH  15  17
ENDBRANCH  12   7
ENDBRANCH  10  12
TORSDOF 8
ENDMDL
