MODEL 1
REMARK VINA RESULT:      -7.3      0.000      0.000
REMARK  Name = 7687210
REMARK  4 active torsions:
REMARK  status: ('A' for Active; 'I' for Inactive)
REMARK    1  A    between atoms: S_2  and  N_6
REMARK    2  A    between atoms: S_2  and  C_18
REMARK    3  A    between atoms: C_15  and  C_20
REMARK    4  A    between atoms: C_23  and  C_27
REMARK                            x       y       z     vdW  Elec       q    Type
REMARK                         _______ _______ _______ _____ _____    ______ ____
ROOT
ATOM      5  O   UNL     1      16.151   9.313  22.039  0.00  0.00    -0.268 OA
ATOM      6  N   UNL     1      12.128   8.173  19.337  0.00  0.00    -0.176 NA
ATOM      7  N   UNL     1      13.824   9.210  21.795  0.00  0.00    -0.311 N 
ATOM      8  C   UNL     1      12.612   6.974  21.469  0.00  0.00    +0.025 C 
ATOM      9  C   UNL     1      11.331   9.065  21.516  0.00  0.00    +0.052 C 
ATOM     10  C   UNL     1      11.447   7.678  22.141  0.00  0.00    +0.017 C 
ATOM     11  C   UNL     1      12.375   6.841  19.957  0.00  0.00    +0.114 C 
ATOM     12  C   UNL     1      11.028   8.924  20.012  0.00  0.00    +0.119 C 
ATOM     13  C   UNL     1      13.893   7.742  21.796  0.00  0.00    +0.130 C 
ATOM     14  C   UNL     1      12.597   9.903  21.730  0.00  0.00    +0.033 A 
ATOM     15  C   UNL     1      12.568  11.258  21.835  0.00  0.00    -0.005 A 
ATOM     16  C   UNL     1      15.055   9.868  21.960  0.00  0.00    +0.252 A 
ATOM     17  C   UNL     1      13.827  11.964  22.009  0.00  0.00    +0.015 A 
ATOM     19  C   UNL     1      15.005  11.341  22.061  0.00  0.00    +0.071 A 
ENDROOT
BRANCH   6   2
ATOM      2  S   UNL     1      12.101   8.199  17.626  0.00  0.00    +0.061 S 
ATOM      3  O   UNL     1      10.735   8.401  17.188  0.00  0.00    -0.153 OA
ATOM      4  O   UNL     1      12.914   7.114  17.120  0.00  0.00    -0.153 OA
BRANCH   2  18
ATOM      1 CL   UNL     1      15.154  13.340  15.779  0.00  0.00    -0.084 Cl
ATOM     18  C   UNL     1      12.972   9.671  17.097  0.00  0.00    +0.106 A 
ATOM     21  C   UNL     1      13.188   9.856  15.753  0.00  0.00    +0.030 A 
ATOM     22  C   UNL     1      13.395  10.560  18.056  0.00  0.00    +0.030 A 
ATOM     24  C   UNL     1      13.869  11.001  15.341  0.00  0.00    +0.022 A 
ATOM     25  C   UNL     1      14.075  11.706  17.643  0.00  0.00    +0.022 A 
ATOM     26  C   UNL     1      14.312  11.927  16.287  0.00  0.00    +0.041 A 
ENDBRANCH   2  18
ENDBRANCH   6   2
BRANCH  15  20
ATOM     20  C   UNL     1      11.338  12.030  21.751  0.00  0.00    +0.005 C 
ATOM     23  C   UNL     1      11.305  13.352  21.895  0.00  0.00    -0.030 C 
ATOM     27  C   UNL     1      10.044  14.147  21.813  0.00  0.00    +0.035 C 
ENDBRANCH  15  20
TORSDOF 3
ENDMDL
MODEL 2
REMARK VINA RESULT:      -6.8      3.200      5.645
REMARK  Name = 7687210
REMARK  4 active torsions:
REMARK  status: ('A' for Active; 'I' for Inactive)
REMARK    1  A    between atoms: S_2  and  N_6
REMARK    2  A    between atoms: S_2  and  C_18
REMARK    3  A    between atoms: C_15  and  C_20
REMARK    4  A    between atoms: C_23  and  C_27
REMARK                            x       y       z     vdW  Elec       q    Type
REMARK                         _______ _______ _______ _____ _____    ______ ____
ROOT
ATOM      5  O   UNL     1      15.004  12.296  18.324  0.00  0.00    -0.268 OA
ATOM      6  N   UNL     1      12.749   8.110  19.800  0.00  0.00    -0.176 NA
ATOM      7  N   UNL     1      15.060   9.993  18.747  0.00  0.00    -0.311 N 
ATOM      8  C   UNL     1      13.563   8.360  17.456  0.00  0.00    +0.025 C 
ATOM      9  C   UNL     1      15.084   7.520  19.187  0.00  0.00    +0.052 C 
ATOM     10  C   UNL     1      14.675   7.362  17.725  0.00  0.00    +0.017 C 
ATOM     11  C   UNL     1      12.353   8.092  18.364  0.00  0.00    +0.114 C 
ATOM     12  C   UNL     1      13.884   7.185  20.093  0.00  0.00    +0.119 C 
ATOM     13  C   UNL     1      14.128   9.770  17.634  0.00  0.00    +0.130 C 
ATOM     14  C   UNL     1      15.608   8.927  19.492  0.00  0.00    +0.033 A 
ATOM     15  C   UNL     1      16.546   9.168  20.447  0.00  0.00    -0.005 A 
ATOM     16  C   UNL     1      15.439  11.331  18.954  0.00  0.00    +0.252 A 
ATOM     17  C   UNL     1      16.957  10.544  20.679  0.00  0.00    +0.015 A 
ATOM     19  C   UNL     1      16.449  11.575  20.004  0.00  0.00    +0.071 A 
ENDROOT
BRANCH   6   2
ATOM      2  S   UNL     1      11.459   8.079  20.924  0.00  0.00    +0.061 S 
ATOM      3  O   UNL     1      11.773   7.117  21.961  0.00  0.00    -0.153 OA
ATOM      4  O   UNL     1      10.202   8.047  20.205  0.00  0.00    -0.153 OA
BRANCH   2  18
ATOM      1 CL   UNL     1      11.369  13.613  23.841  0.00  0.00    -0.084 Cl
ATOM     18  C   UNL     1      11.435   9.661  21.760  0.00  0.00    +0.106 A 
ATOM     21  C   UNL     1      10.867   9.733  23.008  0.00  0.00    +0.030 A 
ATOM     22  C   UNL     1      11.983  10.747  21.120  0.00  0.00    +0.030 A 
ATOM     24  C   UNL     1      10.847  10.967  23.659  0.00  0.00    +0.022 A 
ATOM     25  C   UNL     1      11.963  11.980  21.770  0.00  0.00    +0.022 A 
ATOM     26  C   UNL     1      11.395  12.091  23.039  0.00  0.00    +0.041 A 
ENDBRANCH   2  18
ENDBRANCH   6   2
BRANCH  15  20
ATOM     20  C   UNL     1      17.130   8.115  21.263  0.00  0.00    +0.005 C 
ATOM     23  C   UNL     1      18.424   7.812  21.229  0.00  0.00    -0.030 C 
ATOM     27  C   UNL     1      19.027   6.729  22.062  0.00  0.00    +0.035 C 
ENDBRANCH  15  20
TORSDOF 3
ENDMDL
MODEL 3
REMARK VINA RESULT:      -6.7      2.974      5.257
REMARK  Name = 7687210
REMARK  4 active torsions:
REMARK  status: ('A' for Active; 'I' for Inactive)
REMARK    1  A    between atoms: S_2  and  N_6
REMARK    2  A    between atoms: S_2  and  C_18
REMARK    3  A    between atoms: C_15  and  C_20
REMARK    4  A    between atoms: C_23  and  C_27
REMARK                            x       y       z     vdW  Elec       q    Type
REMARK                         _______ _______ _______ _____ _____    ______ ____
ROOT
ATOM      5  O   UNL     1      12.383  11.650  21.367  0.00  0.00    -0.268 OA
ATOM      6  N   UNL     1      14.194   7.469  19.362  0.00  0.00    -0.176 NA
ATOM      7  N   UNL     1      12.732  10.269  19.510  0.00  0.00    -0.311 N 
ATOM      8  C   UNL     1      11.739   7.907  19.395  0.00  0.00    +0.025 C 
ATOM      9  C   UNL     1      13.099   8.754  17.538  0.00  0.00    +0.052 C 
ATOM     10  C   UNL     1      11.750   8.136  17.895  0.00  0.00    +0.017 C 
ATOM     11  C   UNL     1      12.871   6.955  19.814  0.00  0.00    +0.114 C 
ATOM     12  C   UNL     1      14.225   7.767  17.900  0.00  0.00    +0.119 C 
ATOM     13  C   UNL     1      11.830   9.266  20.092  0.00  0.00    +0.130 C 
ATOM     14  C   UNL     1      13.322  10.099  18.240  0.00  0.00    +0.033 A 
ATOM     15  C   UNL     1      14.069  11.095  17.691  0.00  0.00    -0.005 A 
ATOM     16  C   UNL     1      12.887  11.445  20.263  0.00  0.00    +0.252 A 
ATOM     17  C   UNL     1      14.243  12.324  18.450  0.00  0.00    +0.015 A 
ATOM     19  C   UNL     1      13.712  12.511  19.657  0.00  0.00    +0.071 A 
ENDROOT
BRANCH   6   2
ATOM      2  S   UNL     1      15.559   6.640  19.978  0.00  0.00    +0.061 S 
ATOM      3  O   UNL     1      16.214   5.952  18.885  0.00  0.00    -0.153 OA
ATOM      4  O   UNL     1      15.190   5.958  21.201  0.00  0.00    -0.153 OA
BRANCH   2  18
ATOM      1 CL   UNL     1      19.684  10.952  21.861  0.00  0.00    -0.084 Cl
ATOM     18  C   UNL     1      16.740   7.873  20.515  0.00  0.00    +0.106 A 
ATOM     21  C   UNL     1      17.969   7.453  20.960  0.00  0.00    +0.030 A 
ATOM     22  C   UNL     1      16.372   9.197  20.464  0.00  0.00    +0.030 A 
ATOM     24  C   UNL     1      18.888   8.413  21.380  0.00  0.00    +0.022 A 
ATOM     25  C   UNL     1      17.291  10.157  20.883  0.00  0.00    +0.022 A 
ATOM     26  C   UNL     1      18.549   9.766  21.341  0.00  0.00    +0.041 A 
ENDBRANCH   2  18
ENDBRANCH   6   2
BRANCH  15  20
ATOM     20  C   UNL     1      14.721  10.971  16.397  0.00  0.00    +0.005 C 
ATOM     23  C   UNL     1      15.648  11.825  15.973  0.00  0.00    -0.030 C 
ATOM     27  C   UNL     1      16.317  11.704  14.644  0.00  0.00    +0.035 C 
ENDBRANCH  15  20
TORSDOF 3
ENDMDL
MODEL 4
REMARK VINA RESULT:      -6.6     25.950     28.464
REMARK  Name = 7687210
REMARK  4 active torsions:
REMARK  status: ('A' for Active; 'I' for Inactive)
REMARK    1  A    between atoms: S_2  and  N_6
REMARK    2  A    between atoms: S_2  and  C_18
REMARK    3  A    between atoms: C_15  and  C_20
REMARK    4  A    between atoms: C_23  and  C_27
REMARK                            x       y       z     vdW  Elec       q    Type
REMARK                         _______ _______ _______ _____ _____    ______ ____
ROOT
ATOM      5  O   UNL     1      17.012 -16.316   3.015  0.00  0.00    -0.268 OA
ATOM      6  N   UNL     1      18.174 -11.621   1.839  0.00  0.00    -0.176 NA
ATOM      7  N   UNL     1      16.424 -14.057   2.838  0.00  0.00    -0.311 N 
ATOM      8  C   UNL     1      16.413 -12.853   0.574  0.00  0.00    +0.025 C 
ATOM      9  C   UNL     1      15.812 -11.630   2.614  0.00  0.00    +0.052 C 
ATOM     10  C   UNL     1      15.339 -11.988   1.207  0.00  0.00    +0.017 C 
ATOM     11  C   UNL     1      17.750 -12.098   0.493  0.00  0.00    +0.114 C 
ATOM     12  C   UNL     1      17.118 -10.817   2.522  0.00  0.00    +0.119 C 
ATOM     13  C   UNL     1      16.521 -14.151   1.375  0.00  0.00    +0.130 C 
ATOM     14  C   UNL     1      16.017 -12.873   3.487  0.00  0.00    +0.033 A 
ATOM     15  C   UNL     1      15.840 -12.856   4.836  0.00  0.00    -0.005 A 
ATOM     16  C   UNL     1      16.671 -15.253   3.533  0.00  0.00    +0.252 A 
ATOM     17  C   UNL     1      16.086 -14.081   5.579  0.00  0.00    +0.015 A 
ATOM     19  C   UNL     1      16.485 -15.213   4.998  0.00  0.00    +0.071 A 
ENDROOT
BRANCH   6   2
ATOM      2  S   UNL     1      19.762 -10.989   1.933  0.00  0.00    +0.061 S 
ATOM      3  O   UNL     1      19.679  -9.547   2.048  0.00  0.00    -0.153 OA
ATOM      4  O   UNL     1      20.590 -11.631   0.935  0.00  0.00    -0.153 OA
BRANCH   2  18
ATOM      1 CL   UNL     1      22.225 -12.890   7.362  0.00  0.00    -0.084 Cl
ATOM     18  C   UNL     1      20.465 -11.531   3.487  0.00  0.00    +0.106 A 
ATOM     21  C   UNL     1      21.519 -10.823   4.011  0.00  0.00    +0.030 A 
ATOM     22  C   UNL     1      19.926 -12.638   4.098  0.00  0.00    +0.030 A 
ATOM     24  C   UNL     1      22.068 -11.247   5.221  0.00  0.00    +0.022 A 
ATOM     25  C   UNL     1      20.475 -13.061   5.308  0.00  0.00    +0.022 A 
ATOM     26  C   UNL     1      21.546 -12.367   5.869  0.00  0.00    +0.041 A 
ENDBRANCH   2  18
ENDBRANCH   6   2
BRANCH  15  20
ATOM     20  C   UNL     1      15.445 -11.661   5.565  0.00  0.00    +0.005 C 
ATOM     23  C   UNL     1      14.724 -11.704   6.682  0.00  0.00    -0.030 C 
ATOM     27  C   UNL     1      14.314 -10.479   7.432  0.00  0.00    +0.035 C 
ENDBRANCH  15  20
TORSDOF 3
ENDMDL
MODEL 5
REMARK VINA RESULT:      -6.1     14.933     17.637
REMARK  Name = 7687210
REMARK  4 active torsions:
REMARK  status: ('A' for Active; 'I' for Inactive)
REMARK    1  A    between atoms: S_2  and  N_6
REMARK    2  A    between atoms: S_2  and  C_18
REMARK    3  A    between atoms: C_15  and  C_20
REMARK    4  A    between atoms: C_23  and  C_27
REMARK                            x       y       z     vdW  Elec       q    Type
REMARK                         _______ _______ _______ _____ _____    ______ ____
ROOT
ATOM      5  O   UNL     1      22.203  -6.164  24.193  0.00  0.00    -0.268 OA
ATOM      6  N   UNL     1      19.256  -3.495  27.188  0.00  0.00    -0.176 NA
ATOM      7  N   UNL     1      20.902  -4.260  24.599  0.00  0.00    -0.311 N 
ATOM      8  C   UNL     1      21.484  -2.622  26.484  0.00  0.00    +0.025 C 
ATOM      9  C   UNL     1      19.520  -2.216  25.072  0.00  0.00    +0.052 C 
ATOM     10  C   UNL     1      20.811  -1.592  25.595  0.00  0.00    +0.017 C 
ATOM     11  C   UNL     1      20.579  -3.003  27.666  0.00  0.00    +0.114 C 
ATOM     12  C   UNL     1      18.589  -2.535  26.259  0.00  0.00    +0.119 C 
ATOM     13  C   UNL     1      21.862  -3.828  25.624  0.00  0.00    +0.130 C 
ATOM     14  C   UNL     1      19.782  -3.480  24.245  0.00  0.00    +0.033 A 
ATOM     15  C   UNL     1      18.974  -3.864  23.221  0.00  0.00    -0.005 A 
ATOM     16  C   UNL     1      21.231  -5.454  23.935  0.00  0.00    +0.252 A 
ATOM     17  C   UNL     1      19.293  -5.095  22.515  0.00  0.00    +0.015 A 
ATOM     19  C   UNL     1      20.335  -5.862  22.833  0.00  0.00    +0.071 A 
ENDROOT
BRANCH   6   2
ATOM      2  S   UNL     1      18.248  -4.188  28.384  0.00  0.00    +0.061 S 
ATOM      3  O   UNL     1      17.250  -3.212  28.770  0.00  0.00    -0.153 OA
ATOM      4  O   UNL     1      19.070  -4.871  29.362  0.00  0.00    -0.153 OA
BRANCH   2  18
ATOM      1 CL   UNL     1      15.001  -8.796  25.668  0.00  0.00    -0.084 Cl
ATOM     18  C   UNL     1      17.321  -5.508  27.607  0.00  0.00    +0.106 A 
ATOM     21  C   UNL     1      17.565  -5.788  26.285  0.00  0.00    +0.030 A 
ATOM     22  C   UNL     1      16.398  -6.190  28.363  0.00  0.00    +0.030 A 
ATOM     24  C   UNL     1      16.841  -6.815  25.680  0.00  0.00    +0.022 A 
ATOM     25  C   UNL     1      15.674  -7.217  27.757  0.00  0.00    +0.022 A 
ATOM     26  C   UNL     1      15.895  -7.530  26.416  0.00  0.00    +0.041 A 
ENDBRANCH   2  18
ENDBRANCH   6   2
BRANCH  15  20
ATOM     20  C   UNL     1      17.792  -3.115  22.824  0.00  0.00    +0.005 C 
ATOM     23  C   UNL     1      16.558  -3.489  23.151  0.00  0.00    -0.030 C 
ATOM     27  C   UNL     1      15.342  -2.724  22.742  0.00  0.00    +0.035 C 
ENDBRANCH  15  20
TORSDOF 3
ENDMDL
MODEL 6
REMARK VINA RESULT:      -6.1     14.017     16.871
REMARK  Name = 7687210
REMARK  4 active torsions:
REMARK  status: ('A' for Active; 'I' for Inactive)
REMARK    1  A    between atoms: S_2  and  N_6
REMARK    2  A    between atoms: S_2  and  C_18
REMARK    3  A    between atoms: C_15  and  C_20
REMARK    4  A    between atoms: C_23  and  C_27
REMARK                            x       y       z     vdW  Elec       q    Type
REMARK                         _______ _______ _______ _____ _____    ______ ____
ROOT
ATOM      5  O   UNL     1       8.541   9.738   2.545  0.00  0.00    -0.268 OA
ATOM      6  N   UNL     1      11.027   7.149   5.995  0.00  0.00    -0.176 NA
ATOM      7  N   UNL     1       9.065   7.703   3.579  0.00  0.00    -0.311 N 
ATOM      8  C   UNL     1       8.538   7.286   6.053  0.00  0.00    +0.025 C 
ATOM      9  C   UNL     1       9.626   5.537   4.722  0.00  0.00    +0.052 C 
ATOM     10  C   UNL     1       8.438   5.831   5.633  0.00  0.00    +0.017 C 
ATOM     11  C   UNL     1       9.848   7.550   6.812  0.00  0.00    +0.114 C 
ATOM     12  C   UNL     1      10.936   5.740   5.509  0.00  0.00    +0.119 C 
ATOM     13  C   UNL     1       8.398   8.159   4.805  0.00  0.00    +0.130 C 
ATOM     14  C   UNL     1       9.619   6.411   3.463  0.00  0.00    +0.033 A 
ATOM     15  C   UNL     1      10.137   5.990   2.278  0.00  0.00    -0.005 A 
ATOM     16  C   UNL     1       9.026   8.607   2.503  0.00  0.00    +0.252 A 
ATOM     17  C   UNL     1      10.107   6.905   1.148  0.00  0.00    +0.015 A 
ATOM     19  C   UNL     1       9.603   8.136   1.227  0.00  0.00    +0.071 A 
ENDROOT
BRANCH   6   2
ATOM      2  S   UNL     1      12.551   7.621   6.614  0.00  0.00    +0.061 S 
ATOM      3  O   UNL     1      13.052   6.562   7.466  0.00  0.00    -0.153 OA
ATOM      4  O   UNL     1      12.478   8.995   7.063  0.00  0.00    -0.153 OA
BRANCH   2  18
ATOM      1 CL   UNL     1      16.552   7.818   1.807  0.00  0.00    -0.084 Cl
ATOM     18  C   UNL     1      13.696   7.679   5.239  0.00  0.00    +0.106 A 
ATOM     21  C   UNL     1      13.187   7.789   3.968  0.00  0.00    +0.030 A 
ATOM     22  C   UNL     1      15.042   7.609   5.505  0.00  0.00    +0.030 A 
ATOM     24  C   UNL     1      14.078   7.833   2.896  0.00  0.00    +0.022 A 
ATOM     25  C   UNL     1      15.933   7.653   4.434  0.00  0.00    +0.022 A 
ATOM     26  C   UNL     1      15.452   7.765   3.130  0.00  0.00    +0.041 A 
ENDBRANCH   2  18
ENDBRANCH   6   2
BRANCH  15  20
ATOM     20  C   UNL     1      10.743   4.679   2.102  0.00  0.00    +0.005 C 
ATOM     23  C   UNL     1      12.042   4.510   1.875  0.00  0.00    -0.030 C 
ATOM     27  C   UNL     1      12.667   3.167   1.691  0.00  0.00    +0.035 C 
ENDBRANCH  15  20
TORSDOF 3
ENDMDL
MODEL 7
REMARK VINA RESULT:      -5.9     26.612     28.661
REMARK  Name = 7687210
REMARK  4 active torsions:
REMARK  status: ('A' for Active; 'I' for Inactive)
REMARK    1  A    between atoms: S_2  and  N_6
REMARK    2  A    between atoms: S_2  and  C_18
REMARK    3  A    between atoms: C_15  and  C_20
REMARK    4  A    between atoms: C_23  and  C_27
REMARK                            x       y       z     vdW  Elec       q    Type
REMARK                         _______ _______ _______ _____ _____    ______ ____
ROOT
ATOM      5  O   UNL     1      -7.487  -8.800  16.754  0.00  0.00    -0.268 OA
ATOM      6  N   UNL     1      -3.508 -11.651  15.846  0.00  0.00    -0.176 NA
ATOM      7  N   UNL     1      -6.503 -10.914  16.542  0.00  0.00    -0.311 N 
ATOM      8  C   UNL     1      -4.600 -11.664  18.089  0.00  0.00    +0.025 C 
ATOM      9  C   UNL     1      -5.415 -13.169  16.332  0.00  0.00    +0.052 C 
ATOM     10  C   UNL     1      -5.139 -13.059  17.829  0.00  0.00    +0.017 C 
ATOM     11  C   UNL     1      -3.301 -11.422  17.304  0.00  0.00    +0.114 C 
ATOM     12  C   UNL     1      -4.097 -12.992  15.555  0.00  0.00    +0.119 C 
ATOM     13  C   UNL     1      -5.692 -10.652  17.739  0.00  0.00    +0.130 C 
ATOM     14  C   UNL     1      -6.456 -12.148  15.860  0.00  0.00    +0.033 A 
ATOM     15  C   UNL     1      -7.296 -12.389  14.818  0.00  0.00    -0.005 A 
ATOM     16  C   UNL     1      -7.394  -9.888  16.185  0.00  0.00    +0.252 A 
ATOM     17  C   UNL     1      -8.230 -11.344  14.430  0.00  0.00    +0.015 A 
ATOM     19  C   UNL     1      -8.291 -10.162  15.043  0.00  0.00    +0.071 A 
ENDROOT
BRANCH   6   2
ATOM      2  S   UNL     1      -2.216 -11.174  14.831  0.00  0.00    +0.061 S 
ATOM      3  O   UNL     1      -1.457 -12.352  14.463  0.00  0.00    -0.153 OA
ATOM      4  O   UNL     1      -1.581  -9.998  15.389  0.00  0.00    -0.153 OA
BRANCH   2  18
ATOM      1 CL   UNL     1      -4.697  -9.139   9.459  0.00  0.00    -0.084 Cl
ATOM     18  C   UNL     1      -2.926 -10.590  13.296  0.00  0.00    +0.106 A 
ATOM     21  C   UNL     1      -4.282 -10.384  13.238  0.00  0.00    +0.030 A 
ATOM     22  C   UNL     1      -2.086 -10.370  12.229  0.00  0.00    +0.030 A 
ATOM     24  C   UNL     1      -4.835  -9.931  12.041  0.00  0.00    +0.022 A 
ATOM     25  C   UNL     1      -2.640  -9.917  11.032  0.00  0.00    +0.022 A 
ATOM     26  C   UNL     1      -4.014  -9.697  10.937  0.00  0.00    +0.041 A 
ENDBRANCH   2  18
ENDBRANCH   6   2
BRANCH  15  20
ATOM     20  C   UNL     1      -7.280 -13.631  14.062  0.00  0.00    +0.005 C 
ATOM     23  C   UNL     1      -6.669 -13.751  12.887  0.00  0.00    -0.030 C 
ATOM     27  C   UNL     1      -6.652 -15.023  12.105  0.00  0.00    +0.035 C 
ENDBRANCH  15  20
TORSDOF 3
ENDMDL
MODEL 8
REMARK VINA RESULT:      -5.9     27.154     29.712
REMARK  Name = 7687210
REMARK  4 active torsions:
REMARK  status: ('A' for Active; 'I' for Inactive)
REMARK    1  A    between atoms: S_2  and  N_6
REMARK    2  A    between atoms: S_2  and  C_18
REMARK    3  A    between atoms: C_15  and  C_20
REMARK    4  A    between atoms: C_23  and  C_27
REMARK                            x       y       z     vdW  Elec       q    Type
REMARK                         _______ _______ _______ _____ _____    ______ ____
ROOT
ATOM      5  O   UNL     1      -8.012 -11.954  13.255  0.00  0.00    -0.268 OA
ATOM      6  N   UNL     1      -6.950 -12.337  18.104  0.00  0.00    -0.176 NA
ATOM      7  N   UNL     1      -6.498 -12.432  14.976  0.00  0.00    -0.311 N 
ATOM      8  C   UNL     1      -6.914 -14.348  16.629  0.00  0.00    +0.025 C 
ATOM      9  C   UNL     1      -4.902 -12.962  16.843  0.00  0.00    +0.052 C 
ATOM     10  C   UNL     1      -5.400 -14.399  16.720  0.00  0.00    +0.017 C 
ATOM     11  C   UNL     1      -7.518 -13.697  17.883  0.00  0.00    +0.114 C 
ATOM     12  C   UNL     1      -5.458 -12.337  18.137  0.00  0.00    +0.119 C 
ATOM     13  C   UNL     1      -7.295 -13.609  15.345  0.00  0.00    +0.130 C 
ATOM     14  C   UNL     1      -5.289 -12.110  15.629  0.00  0.00    +0.033 A 
ATOM     15  C   UNL     1      -4.528 -11.071  15.191  0.00  0.00    -0.005 A 
ATOM     16  C   UNL     1      -6.974 -11.707  13.870  0.00  0.00    +0.252 A 
ATOM     17  C   UNL     1      -4.997 -10.307  14.046  0.00  0.00    +0.015 A 
ATOM     19  C   UNL     1      -6.140 -10.575  13.416  0.00  0.00    +0.071 A 
ENDROOT
BRANCH   6   2
ATOM      2  S   UNL     1      -7.717 -11.403  19.315  0.00  0.00    +0.061 S 
ATOM      3  O   UNL     1      -6.719 -10.576  19.963  0.00  0.00    -0.153 OA
ATOM      4  O   UNL     1      -8.618 -12.249  20.070  0.00  0.00    -0.153 OA
BRANCH   2  18
ATOM      1 CL   UNL     1     -11.523  -7.358  16.433  0.00  0.00    -0.084 Cl
ATOM     18  C   UNL     1      -8.806 -10.245  18.492  0.00  0.00    +0.106 A 
ATOM     21  C   UNL     1     -10.123 -10.195  18.880  0.00  0.00    +0.030 A 
ATOM     22  C   UNL     1      -8.284  -9.448  17.501  0.00  0.00    +0.030 A 
ATOM     24  C   UNL     1     -10.971  -9.294  18.238  0.00  0.00    +0.022 A 
ATOM     25  C   UNL     1      -9.133  -8.547  16.859  0.00  0.00    +0.022 A 
ATOM     26  C   UNL     1     -10.476  -8.469  17.227  0.00  0.00    +0.041 A 
ENDBRANCH   2  18
ENDBRANCH   6   2
BRANCH  15  20
ATOM     20  C   UNL     1      -3.285 -10.677  15.836  0.00  0.00    +0.005 C 
ATOM     23  C   UNL     1      -2.116 -10.668  15.203  0.00  0.00    -0.030 C 
ATOM     27  C   UNL     1      -0.837 -10.267  15.862  0.00  0.00    +0.035 C 
ENDBRANCH  15  20
TORSDOF 3
ENDMDL
MODEL 9
REMARK VINA RESULT:      -5.8      1.746      3.508
REMARK  Name = 7687210
REMARK  4 active torsions:
REMARK  status: ('A' for Active; 'I' for Inactive)
REMARK    1  A    between atoms: S_2  and  N_6
REMARK    2  A    between atoms: S_2  and  C_18
REMARK    3  A    between atoms: C_15  and  C_20
REMARK    4  A    between atoms: C_23  and  C_27
REMARK                            x       y       z     vdW  Elec       q    Type
REMARK                         _______ _______ _______ _____ _____    ______ ____
ROOT
ATOM      5  O   UNL     1      13.287  11.795  22.397  0.00  0.00    -0.268 OA
ATOM      6  N   UNL     1      13.812   8.600  18.616  0.00  0.00    -0.176 NA
ATOM      7  N   UNL     1      13.375   9.602  21.583  0.00  0.00    -0.311 N 
ATOM      8  C   UNL     1      15.487   8.676  20.462  0.00  0.00    +0.025 C 
ATOM      9  C   UNL     1      13.498   7.259  20.684  0.00  0.00    +0.052 C 
ATOM     10  C   UNL     1      14.994   7.337  20.978  0.00  0.00    +0.017 C 
ATOM     11  C   UNL     1      15.250   8.803  18.948  0.00  0.00    +0.114 C 
ATOM     12  C   UNL     1      13.272   7.320  19.161  0.00  0.00    +0.119 C 
ATOM     13  C   UNL     1      14.796   9.784  21.258  0.00  0.00    +0.130 C 
ATOM     14  C   UNL     1      12.713   8.372  21.387  0.00  0.00    +0.033 A 
ATOM     15  C   UNL     1      11.425   8.213  21.795  0.00  0.00    -0.005 A 
ATOM     16  C   UNL     1      12.752  10.706  22.189  0.00  0.00    +0.252 A 
ATOM     17  C   UNL     1      10.758   9.340  22.428  0.00  0.00    +0.015 A 
ATOM     19  C   UNL     1      11.350  10.519  22.615  0.00  0.00    +0.071 A 
ENDROOT
BRANCH   6   2
ATOM      2  S   UNL     1      13.367   8.964  17.004  0.00  0.00    +0.061 S 
ATOM      3  O   UNL     1      11.951   9.268  16.973  0.00  0.00    -0.153 OA
ATOM      4  O   UNL     1      13.961   7.988  16.114  0.00  0.00    -0.153 OA
BRANCH   2  18
ATOM      1 CL   UNL     1      16.191  14.326  15.445  0.00  0.00    -0.084 Cl
ATOM     18  C   UNL     1      14.173  10.498  16.556  0.00  0.00    +0.106 A 
ATOM     21  C   UNL     1      14.964  10.519  15.434  0.00  0.00    +0.030 A 
ATOM     22  C   UNL     1      13.973  11.599  17.355  0.00  0.00    +0.030 A 
ATOM     24  C   UNL     1      15.593  11.713  15.086  0.00  0.00    +0.022 A 
ATOM     25  C   UNL     1      14.603  12.793  17.007  0.00  0.00    +0.022 A 
ATOM     26  C   UNL     1      15.413  12.851  15.873  0.00  0.00    +0.041 A 
ENDBRANCH   2  18
ENDBRANCH   6   2
BRANCH  15  20
ATOM     20  C   UNL     1      10.682   6.977  21.600  0.00  0.00    +0.005 C 
ATOM     23  C   UNL     1      11.227   5.775  21.764  0.00  0.00    -0.030 C 
ATOM     27  C   UNL     1      10.468   4.505  21.561  0.00  0.00    +0.035 C 
ENDBRANCH  15  20
TORSDOF 3
ENDMDL
MODEL 10
REMARK VINA RESULT:      -5.8     24.397     26.408
REMARK  Name = 7687210
REMARK  4 active torsions:
REMARK  status: ('A' for Active; 'I' for Inactive)
REMARK    1  A    between atoms: S_2  and  N_6
REMARK    2  A    between atoms: S_2  and  C_18
REMARK    3  A    between atoms: C_15  and  C_20
REMARK    4  A    between atoms: C_23  and  C_27
REMARK                            x       y       z     vdW  Elec       q    Type
REMARK                         _______ _______ _______ _____ _____    ______ ____
ROOT
ATOM      5  O   UNL     1     -14.691  12.356  17.973  0.00  0.00    -0.268 OA
ATOM      6  N   UNL     1     -11.226   9.480  15.850  0.00  0.00    -0.176 NA
ATOM      7  N   UNL     1     -12.859  10.908  18.150  0.00  0.00    -0.311 N 
ATOM      8  C   UNL     1     -10.578  11.511  17.146  0.00  0.00    +0.025 C 
ATOM      9  C   UNL     1     -10.878   9.372  18.309  0.00  0.00    +0.052 C 
ATOM     10  C   UNL     1     -10.025  10.637  18.257  0.00  0.00    +0.017 C 
ATOM     11  C   UNL     1     -10.510  10.786  15.792  0.00  0.00    +0.114 C 
ATOM     12  C   UNL     1     -10.752   8.616  16.972  0.00  0.00    +0.119 C 
ATOM     13  C   UNL     1     -12.003  11.922  17.519  0.00  0.00    +0.130 C 
ATOM     14  C   UNL     1     -12.348   9.678  18.614  0.00  0.00    +0.033 A 
ATOM     15  C   UNL     1     -13.152   8.810  19.285  0.00  0.00    -0.005 A 
ATOM     16  C   UNL     1     -14.198  11.290  18.343  0.00  0.00    +0.252 A 
ATOM     17  C   UNL     1     -14.541   9.182  19.500  0.00  0.00    +0.015 A 
ATOM     19  C   UNL     1     -15.059  10.330  19.063  0.00  0.00    +0.071 A 
ENDROOT
BRANCH   6   2
ATOM      2  S   UNL     1     -11.445   8.690  14.349  0.00  0.00    +0.061 S 
ATOM      3  O   UNL     1     -10.535   7.565  14.281  0.00  0.00    -0.153 OA
ATOM      4  O   UNL     1     -11.518   9.680  13.295  0.00  0.00    -0.153 OA
BRANCH   2  18
ATOM      1 CL   UNL     1     -17.155   6.131  14.389  0.00  0.00    -0.084 Cl
ATOM     18  C   UNL     1     -13.078   7.956  14.361  0.00  0.00    +0.106 A 
ATOM     21  C   UNL     1     -13.460   7.192  13.285  0.00  0.00    +0.030 A 
ATOM     22  C   UNL     1     -13.890   8.186  15.445  0.00  0.00    +0.030 A 
ATOM     24  C   UNL     1     -14.732   6.621  13.294  0.00  0.00    +0.022 A 
ATOM     25  C   UNL     1     -15.162   7.616  15.454  0.00  0.00    +0.022 A 
ATOM     26  C   UNL     1     -15.584   6.833  14.379  0.00  0.00    +0.041 A 
ENDBRANCH   2  18
ENDBRANCH   6   2
BRANCH  15  20
ATOM     20  C   UNL     1     -12.690   7.518  19.767  0.00  0.00    +0.005 C 
ATOM     23  C   UNL     1     -12.777   7.151  21.042  0.00  0.00    -0.030 C 
ATOM     27  C   UNL     1     -12.301   5.827  21.541  0.00  0.00    +0.035 C 
ENDBRANCH  15  20
TORSDOF 3
ENDMDL
