MODEL 1
REMARK VINA RESULT:      -5.8      0.000      0.000
REMARK  Name = 75536552
REMARK  7 active torsions:
REMARK  status: ('A' for Active; 'I' for Inactive)
REMARK    1  A    between atoms: O_2  and  C_7
REMARK    2  A    between atoms: N_4  and  C_6
REMARK    3  A    between atoms: N_4  and  C_17
REMARK    4  A    between atoms: N_4  and  C_18
REMARK    5  A    between atoms: N_5  and  C_13
REMARK    6  A    between atoms: C_8  and  C_13
REMARK    7  A    between atoms: C_9  and  C_16
REMARK                            x       y       z     vdW  Elec       q    Type
REMARK                         _______ _______ _______ _____ _____    ______ ____
ROOT
ATOM      1  O   UNL     1      11.704  10.435  20.793  0.00  0.00    -0.371 OA
ATOM      6  C   UNL     1      11.419   8.266  19.867  0.00  0.00    +0.113 C 
ATOM      7  C   UNL     1      11.104   8.216  21.350  0.00  0.00    +0.164 C 
ATOM      8  C   UNL     1      10.818   9.684  21.640  0.00  0.00    +0.165 C 
ATOM     10  C   UNL     1      12.212   9.560  19.772  0.00  0.00    +0.181 C 
ENDROOT
BRANCH   6   4
ATOM      4  N   UNL     1      12.161   7.111  19.388  0.00  0.00    -0.301 NA
ATOM     17  C   UNL     1      13.319   6.843  20.245  0.00  0.00    +0.105 C 
ATOM     18  C   UNL     1      12.595   7.310  18.002  0.00  0.00    +0.105 C 
ENDBRANCH   6   4
BRANCH   7   2
ATOM      2  O   UNL     1       9.992   7.394  21.645  0.00  0.00    -0.388 OA
ATOM     20  H   UNL     1      10.258   6.753  22.325  0.00  0.00    +0.210 HD
ENDBRANCH   7   2
BRANCH   8  13
ATOM     13  C   UNL     1      11.048  10.065  23.091  0.00  0.00    +0.138 C 
BRANCH  13   5
ATOM      3  O   UNL     1      11.276  11.546  25.578  0.00  0.00    -0.276 OA
ATOM      5  N   UNL     1      10.563  11.388  23.365  0.00  0.00    -0.313 N 
ATOM     16  C   UNL     1      10.718  12.022  24.593  0.00  0.00    +0.216 C 
ATOM     19  H   UNL     1      10.085  11.876  22.615  0.00  0.00    +0.149 HD
BRANCH  16   9
ATOM      9  C   UNL     1      10.141  13.405  24.604  0.00  0.00    +0.075 C 
ATOM     11  C   UNL     1      10.942  14.317  25.534  0.00  0.00    +0.013 C 
ATOM     12  C   UNL     1      10.233  14.030  23.207  0.00  0.00    +0.013 C 
ATOM     14  C   UNL     1      11.864  15.096  24.608  0.00  0.00    +0.001 C 
ATOM     15  C   UNL     1      10.998  15.337  23.385  0.00  0.00    +0.001 C 
ENDBRANCH  16   9
ENDBRANCH  13   5
ENDBRANCH   8  13
TORSDOF 5
ENDMDL
MODEL 2
REMARK VINA RESULT:      -5.6     15.691     20.242
REMARK  Name = 75536552
REMARK  7 active torsions:
REMARK  status: ('A' for Active; 'I' for Inactive)
REMARK    1  A    between atoms: O_2  and  C_7
REMARK    2  A    between atoms: N_4  and  C_6
REMARK    3  A    between atoms: N_4  and  C_17
REMARK    4  A    between atoms: N_4  and  C_18
REMARK    5  A    between atoms: N_5  and  C_13
REMARK    6  A    between atoms: C_8  and  C_13
REMARK    7  A    between atoms: C_9  and  C_16
REMARK                            x       y       z     vdW  Elec       q    Type
REMARK                         _______ _______ _______ _____ _____    ______ ____
ROOT
ATOM      1  O   UNL     1      11.990   7.527   5.260  0.00  0.00    -0.371 OA
ATOM      6  C   UNL     1      10.567   6.292   6.707  0.00  0.00    +0.113 C 
ATOM      7  C   UNL     1      10.483   5.705   5.311  0.00  0.00    +0.164 C 
ATOM      8  C   UNL     1      11.776   6.223   4.696  0.00  0.00    +0.165 C 
ATOM     10  C   UNL     1      11.152   7.666   6.420  0.00  0.00    +0.181 C 
ENDROOT
BRANCH   6   4
ATOM      4  N   UNL     1       9.287   6.354   7.393  0.00  0.00    -0.301 NA
ATOM     17  C   UNL     1       8.892   7.745   7.635  0.00  0.00    +0.105 C 
ATOM     18  C   UNL     1       9.339   5.618   8.659  0.00  0.00    +0.105 C 
ENDBRANCH   6   4
BRANCH   7   2
ATOM      2  O   UNL     1      10.430   4.292   5.315  0.00  0.00    -0.388 OA
ATOM     20  H   UNL     1      10.541   3.985   6.230  0.00  0.00    +0.210 HD
ENDBRANCH   7   2
BRANCH   8  13
ATOM     13  C   UNL     1      11.724   6.320   3.182  0.00  0.00    +0.138 C 
BRANCH  13   5
ATOM      3  O   UNL     1      10.871   3.703   2.259  0.00  0.00    -0.276 OA
ATOM      5  N   UNL     1      12.533   5.307   2.566  0.00  0.00    -0.313 N 
ATOM     16  C   UNL     1      12.037   4.075   2.153  0.00  0.00    +0.216 C 
ATOM     19  H   UNL     1      13.517   5.514   2.427  0.00  0.00    +0.149 HD
BRANCH  16   9
ATOM      9  C   UNL     1      13.086   3.215   1.519  0.00  0.00    +0.075 C 
ATOM     11  C   UNL     1      12.927   3.199  -0.002  0.00  0.00    +0.013 C 
ATOM     12  C   UNL     1      14.481   3.786   1.798  0.00  0.00    +0.013 C 
ATOM     14  C   UNL     1      13.953   4.202  -0.507  0.00  0.00    +0.001 C 
ATOM     15  C   UNL     1      15.128   3.991   0.432  0.00  0.00    +0.001 C 
ENDBRANCH  16   9
ENDBRANCH  13   5
ENDBRANCH   8  13
TORSDOF 5
ENDMDL
MODEL 3
REMARK VINA RESULT:      -5.5     24.988     25.996
REMARK  Name = 75536552
REMARK  7 active torsions:
REMARK  status: ('A' for Active; 'I' for Inactive)
REMARK    1  A    between atoms: O_2  and  C_7
REMARK    2  A    between atoms: N_4  and  C_6
REMARK    3  A    between atoms: N_4  and  C_17
REMARK    4  A    between atoms: N_4  and  C_18
REMARK    5  A    between atoms: N_5  and  C_13
REMARK    6  A    between atoms: C_8  and  C_13
REMARK    7  A    between atoms: C_9  and  C_16
REMARK                            x       y       z     vdW  Elec       q    Type
REMARK                         _______ _______ _______ _____ _____    ______ ____
ROOT
ATOM      1  O   UNL     1     -15.813   6.686  23.407  0.00  0.00    -0.371 OA
ATOM      6  C   UNL     1     -15.461   4.344  23.578  0.00  0.00    +0.113 C 
ATOM      7  C   UNL     1     -14.857   4.841  22.278  0.00  0.00    +0.164 C 
ATOM      8  C   UNL     1     -14.696   6.325  22.578  0.00  0.00    +0.165 C 
ATOM     10  C   UNL     1     -16.405   5.483  23.926  0.00  0.00    +0.181 C 
ENDROOT
BRANCH   6   4
ATOM      4  N   UNL     1     -16.140   3.064  23.455  0.00  0.00    -0.301 NA
ATOM     17  C   UNL     1     -17.402   3.212  22.725  0.00  0.00    +0.105 C 
ATOM     18  C   UNL     1     -16.386   2.477  24.775  0.00  0.00    +0.105 C 
ENDBRANCH   6   4
BRANCH   7   2
ATOM      2  O   UNL     1     -13.619   4.226  21.981  0.00  0.00    -0.388 OA
ATOM     20  H   UNL     1     -13.771   3.548  21.301  0.00  0.00    +0.210 HD
ENDBRANCH   7   2
BRANCH   8  13
ATOM     13  C   UNL     1     -14.679   7.192  21.332  0.00  0.00    +0.138 C 
BRANCH  13   5
ATOM      3  O   UNL     1     -12.605   9.215  21.525  0.00  0.00    -0.276 OA
ATOM      5  N   UNL     1     -13.389   7.179  20.705  0.00  0.00    -0.313 N 
ATOM     16  C   UNL     1     -12.453   8.197  20.854  0.00  0.00    +0.216 C 
ATOM     19  H   UNL     1     -13.158   6.378  20.125  0.00  0.00    +0.149 HD
BRANCH  16   9
ATOM      9  C   UNL     1     -11.181   7.924  20.112  0.00  0.00    +0.075 C 
ATOM     11  C   UNL     1     -11.463   7.149  18.824  0.00  0.00    +0.013 C 
ATOM     12  C   UNL     1     -10.521   9.240  19.685  0.00  0.00    +0.013 C 
ATOM     14  C   UNL     1     -11.452   8.205  17.730  0.00  0.00    +0.001 C 
ATOM     15  C   UNL     1     -10.347   9.147  18.173  0.00  0.00    +0.001 C 
ENDBRANCH  16   9
ENDBRANCH  13   5
ENDBRANCH   8  13
TORSDOF 5
ENDMDL
MODEL 4
REMARK VINA RESULT:      -5.5      2.366      6.728
REMARK  Name = 75536552
REMARK  7 active torsions:
REMARK  status: ('A' for Active; 'I' for Inactive)
REMARK    1  A    between atoms: O_2  and  C_7
REMARK    2  A    between atoms: N_4  and  C_6
REMARK    3  A    between atoms: N_4  and  C_17
REMARK    4  A    between atoms: N_4  and  C_18
REMARK    5  A    between atoms: N_5  and  C_13
REMARK    6  A    between atoms: C_8  and  C_13
REMARK    7  A    between atoms: C_9  and  C_16
REMARK                            x       y       z     vdW  Elec       q    Type
REMARK                         _______ _______ _______ _____ _____    ______ ____
ROOT
ATOM      1  O   UNL     1      10.568   7.705  22.208  0.00  0.00    -0.371 OA
ATOM      6  C   UNL     1      10.981  10.044  22.243  0.00  0.00    +0.113 C 
ATOM      7  C   UNL     1      11.852   9.404  21.179  0.00  0.00    +0.164 C 
ATOM      8  C   UNL     1      11.106   8.099  20.935  0.00  0.00    +0.165 C 
ATOM     10  C   UNL     1      10.609   8.839  23.092  0.00  0.00    +0.181 C 
ENDROOT
BRANCH   6   4
ATOM      4  N   UNL     1      11.656  11.084  23.003  0.00  0.00    -0.301 NA
ATOM     17  C   UNL     1      13.104  10.855  23.028  0.00  0.00    +0.105 C 
ATOM     18  C   UNL     1      11.132  11.153  24.370  0.00  0.00    +0.105 C 
ENDBRANCH   6   4
BRANCH   7   2
ATOM      2  O   UNL     1      11.943  10.186  20.004  0.00  0.00    -0.388 OA
ATOM     20  H   UNL     1      12.425  11.002  20.218  0.00  0.00    +0.210 HD
ENDBRANCH   7   2
BRANCH   8  13
ATOM     13  C   UNL     1      11.992   6.994  20.388  0.00  0.00    +0.138 C 
BRANCH  13   5
ATOM      3  O   UNL     1      11.933   7.101  17.487  0.00  0.00    -0.276 OA
ATOM      5  N   UNL     1      13.002   7.519  19.515  0.00  0.00    -0.313 N 
ATOM     16  C   UNL     1      12.888   7.529  18.129  0.00  0.00    +0.216 C 
ATOM     19  H   UNL     1      13.839   7.902  19.944  0.00  0.00    +0.149 HD
BRANCH  16   9
ATOM      9  C   UNL     1      14.073   8.156  17.459  0.00  0.00    +0.075 C 
ATOM     11  C   UNL     1      13.648   8.888  16.186  0.00  0.00    +0.013 C 
ATOM     12  C   UNL     1      14.703   9.213  18.372  0.00  0.00    +0.013 C 
ATOM     14  C   UNL     1      13.558  10.351  16.595  0.00  0.00    +0.001 C 
ATOM     15  C   UNL     1      14.717  10.507  17.564  0.00  0.00    +0.001 C 
ENDBRANCH  16   9
ENDBRANCH  13   5
ENDBRANCH   8  13
TORSDOF 5
ENDMDL
MODEL 5
REMARK VINA RESULT:      -5.4     28.305     29.277
REMARK  Name = 75536552
REMARK  7 active torsions:
REMARK  status: ('A' for Active; 'I' for Inactive)
REMARK    1  A    between atoms: O_2  and  C_7
REMARK    2  A    between atoms: N_4  and  C_6
REMARK    3  A    between atoms: N_4  and  C_17
REMARK    4  A    between atoms: N_4  and  C_18
REMARK    5  A    between atoms: N_5  and  C_13
REMARK    6  A    between atoms: C_8  and  C_13
REMARK    7  A    between atoms: C_9  and  C_16
REMARK                            x       y       z     vdW  Elec       q    Type
REMARK                         _______ _______ _______ _____ _____    ______ ____
ROOT
ATOM      1  O   UNL     1     -16.038   0.329  28.859  0.00  0.00    -0.371 OA
ATOM      6  C   UNL     1     -16.026   2.398  27.693  0.00  0.00    +0.113 C 
ATOM      7  C   UNL     1     -15.476   2.615  29.090  0.00  0.00    +0.164 C 
ATOM      8  C   UNL     1     -15.068   1.198  29.468  0.00  0.00    +0.165 C 
ATOM     10  C   UNL     1     -16.753   1.074  27.858  0.00  0.00    +0.181 C 
ENDROOT
BRANCH   6   4
ATOM      4  N   UNL     1     -16.897   3.469  27.235  0.00  0.00    -0.301 NA
ATOM     17  C   UNL     1     -18.289   3.014  27.164  0.00  0.00    +0.105 C 
ATOM     18  C   UNL     1     -16.463   3.969  25.928  0.00  0.00    +0.105 C 
ENDBRANCH   6   4
BRANCH   7   2
ATOM      2  O   UNL     1     -14.377   3.504  29.113  0.00  0.00    -0.388 OA
ATOM     20  H   UNL     1     -13.560   2.980  29.070  0.00  0.00    +0.210 HD
ENDBRANCH   7   2
BRANCH   8  13
ATOM     13  C   UNL     1     -15.036   0.961  30.967  0.00  0.00    +0.138 C 
BRANCH  13   5
ATOM      3  O   UNL     1     -14.651   1.427  33.807  0.00  0.00    -0.276 OA
ATOM      5  N   UNL     1     -15.279   2.176  31.692  0.00  0.00    -0.313 N 
ATOM     16  C   UNL     1     -15.065   2.309  33.060  0.00  0.00    +0.216 C 
ATOM     19  H   UNL     1     -15.623   2.973  31.167  0.00  0.00    +0.149 HD
BRANCH  16   9
ATOM      9  C   UNL     1     -15.375   3.687  33.560  0.00  0.00    +0.075 C 
ATOM     11  C   UNL     1     -14.087   4.475  33.803  0.00  0.00    +0.013 C 
ATOM     12  C   UNL     1     -16.165   4.470  32.505  0.00  0.00    +0.013 C 
ATOM     14  C   UNL     1     -13.931   5.347  32.566  0.00  0.00    +0.001 C 
ATOM     15  C   UNL     1     -15.362   5.739  32.241  0.00  0.00    +0.001 C 
ENDBRANCH  16   9
ENDBRANCH  13   5
ENDBRANCH   8  13
TORSDOF 5
ENDMDL
MODEL 6
REMARK VINA RESULT:      -5.3     27.014     27.989
REMARK  Name = 75536552
REMARK  7 active torsions:
REMARK  status: ('A' for Active; 'I' for Inactive)
REMARK    1  A    between atoms: O_2  and  C_7
REMARK    2  A    between atoms: N_4  and  C_6
REMARK    3  A    between atoms: N_4  and  C_17
REMARK    4  A    between atoms: N_4  and  C_18
REMARK    5  A    between atoms: N_5  and  C_13
REMARK    6  A    between atoms: C_8  and  C_13
REMARK    7  A    between atoms: C_9  and  C_16
REMARK                            x       y       z     vdW  Elec       q    Type
REMARK                         _______ _______ _______ _____ _____    ______ ____
ROOT
ATOM      1  O   UNL     1      -2.804 -13.026  11.845  0.00  0.00    -0.371 OA
ATOM      6  C   UNL     1      -2.777 -10.695  11.388  0.00  0.00    +0.113 C 
ATOM      7  C   UNL     1      -2.618 -10.909  12.882  0.00  0.00    +0.164 C 
ATOM      8  C   UNL     1      -2.134 -12.352  12.922  0.00  0.00    +0.165 C 
ATOM     10  C   UNL     1      -3.344 -12.037  10.952  0.00  0.00    +0.181 C 
ENDROOT
BRANCH   6   4
ATOM      4  N   UNL     1      -3.642  -9.578  11.047  0.00  0.00    -0.301 NA
ATOM     17  C   UNL     1      -4.976  -9.753  11.629  0.00  0.00    +0.105 C 
ATOM     18  C   UNL     1      -3.743  -9.424   9.593  0.00  0.00    +0.105 C 
ENDBRANCH   6   4
BRANCH   7   2
ATOM      2  O   UNL     1      -1.682 -10.022  13.463  0.00  0.00    -0.388 OA
ATOM     20  H   UNL     1      -1.206 -10.498  14.164  0.00  0.00    +0.210 HD
ENDBRANCH   7   2
BRANCH   8  13
ATOM     13  C   UNL     1      -2.438 -13.051  14.235  0.00  0.00    +0.138 C 
BRANCH  13   5
ATOM      3  O   UNL     1      -4.700 -13.060  16.055  0.00  0.00    -0.276 OA
ATOM      5  N   UNL     1      -2.722 -12.106  15.276  0.00  0.00    -0.313 N 
ATOM     16  C   UNL     1      -3.836 -12.189  16.105  0.00  0.00    +0.216 C 
ATOM     19  H   UNL     1      -2.066 -11.341  15.406  0.00  0.00    +0.149 HD
BRANCH  16   9
ATOM      9  C   UNL     1      -3.880 -11.090  17.122  0.00  0.00    +0.075 C 
ATOM     11  C   UNL     1      -4.927 -10.043  16.741  0.00  0.00    +0.013 C 
ATOM     12  C   UNL     1      -4.305 -11.645  18.486  0.00  0.00    +0.013 C 
ATOM     14  C   UNL     1      -6.143 -10.388  17.588  0.00  0.00    +0.001 C 
ATOM     15  C   UNL     1      -5.528 -10.834  18.903  0.00  0.00    +0.001 C 
ENDBRANCH  16   9
ENDBRANCH  13   5
ENDBRANCH   8  13
TORSDOF 5
ENDMDL
MODEL 7
REMARK VINA RESULT:      -5.2      4.479      7.338
REMARK  Name = 75536552
REMARK  7 active torsions:
REMARK  status: ('A' for Active; 'I' for Inactive)
REMARK    1  A    between atoms: O_2  and  C_7
REMARK    2  A    between atoms: N_4  and  C_6
REMARK    3  A    between atoms: N_4  and  C_17
REMARK    4  A    between atoms: N_4  and  C_18
REMARK    5  A    between atoms: N_5  and  C_13
REMARK    6  A    between atoms: C_8  and  C_13
REMARK    7  A    between atoms: C_9  and  C_16
REMARK                            x       y       z     vdW  Elec       q    Type
REMARK                         _______ _______ _______ _____ _____    ______ ____
ROOT
ATOM      1  O   UNL     1      13.498   9.807  18.451  0.00  0.00    -0.371 OA
ATOM      6  C   UNL     1      12.343   7.991  19.458  0.00  0.00    +0.113 C 
ATOM      7  C   UNL     1      11.929   8.095  18.002  0.00  0.00    +0.164 C 
ATOM      8  C   UNL     1      13.091   8.891  17.422  0.00  0.00    +0.165 C 
ATOM     10  C   UNL     1      12.935   9.370  19.701  0.00  0.00    +0.181 C 
ENDROOT
BRANCH   6   4
ATOM      4  N   UNL     1      11.244   7.681  20.357  0.00  0.00    -0.301 NA
ATOM     17  C   UNL     1      10.903   8.842  21.183  0.00  0.00    +0.105 C 
ATOM     18  C   UNL     1      11.578   6.536  21.210  0.00  0.00    +0.105 C 
ENDBRANCH   6   4
BRANCH   7   2
ATOM      2  O   UNL     1      11.793   6.832  17.381  0.00  0.00    -0.388 OA
ATOM     20  H   UNL     1      12.409   6.793  16.630  0.00  0.00    +0.210 HD
ENDBRANCH   7   2
BRANCH   8  13
ATOM     13  C   UNL     1      12.724   9.659  16.165  0.00  0.00    +0.138 C 
BRANCH  13   5
ATOM      3  O   UNL     1      15.103   9.902  14.518  0.00  0.00    -0.276 OA
ATOM      5  N   UNL     1      13.556  10.817  16.001  0.00  0.00    -0.313 N 
ATOM     16  C   UNL     1      14.683  10.843  15.186  0.00  0.00    +0.216 C 
ATOM     19  H   UNL     1      13.296  11.656  16.510  0.00  0.00    +0.149 HD
BRANCH  16   9
ATOM      9  C   UNL     1      15.355  12.182  15.175  0.00  0.00    +0.075 C 
ATOM     11  C   UNL     1      15.166  12.892  16.516  0.00  0.00    +0.013 C 
ATOM     12  C   UNL     1      16.868  12.015  14.988  0.00  0.00    +0.013 C 
ATOM     14  C   UNL     1      16.465  12.645  17.269  0.00  0.00    +0.001 C 
ATOM     15  C   UNL     1      17.515  12.722  16.175  0.00  0.00    +0.001 C 
ENDBRANCH  16   9
ENDBRANCH  13   5
ENDBRANCH   8  13
TORSDOF 5
ENDMDL
MODEL 8
REMARK VINA RESULT:      -5.1      4.498      7.955
REMARK  Name = 75536552
REMARK  7 active torsions:
REMARK  status: ('A' for Active; 'I' for Inactive)
REMARK    1  A    between atoms: O_2  and  C_7
REMARK    2  A    between atoms: N_4  and  C_6
REMARK    3  A    between atoms: N_4  and  C_17
REMARK    4  A    between atoms: N_4  and  C_18
REMARK    5  A    between atoms: N_5  and  C_13
REMARK    6  A    between atoms: C_8  and  C_13
REMARK    7  A    between atoms: C_9  and  C_16
REMARK                            x       y       z     vdW  Elec       q    Type
REMARK                         _______ _______ _______ _____ _____    ______ ____
ROOT
ATOM      1  O   UNL     1      14.481   7.180  21.543  0.00  0.00    -0.371 OA
ATOM      6  C   UNL     1      12.257   7.669  20.867  0.00  0.00    +0.113 C 
ATOM      7  C   UNL     1      13.109   7.439  19.634  0.00  0.00    +0.164 C 
ATOM      8  C   UNL     1      14.272   6.652  20.223  0.00  0.00    +0.165 C 
ATOM     10  C   UNL     1      13.319   7.938  21.921  0.00  0.00    +0.181 C 
ENDROOT
BRANCH   6   4
ATOM      4  N   UNL     1      11.308   8.762  20.727  0.00  0.00    -0.301 NA
ATOM     17  C   UNL     1      11.984   9.985  20.286  0.00  0.00    +0.105 C 
ATOM     18  C   UNL     1      10.603   9.003  21.988  0.00  0.00    +0.105 C 
ENDBRANCH   6   4
BRANCH   7   2
ATOM      2  O   UNL     1      12.433   6.708  18.630  0.00  0.00    -0.388 OA
ATOM     20  H   UNL     1      11.821   7.309  18.175  0.00  0.00    +0.210 HD
ENDBRANCH   7   2
BRANCH   8  13
ATOM     13  C   UNL     1      15.551   6.773  19.414  0.00  0.00    +0.138 C 
BRANCH  13   5
ATOM      3  O   UNL     1      17.509   8.525  20.649  0.00  0.00    -0.276 OA
ATOM      5  N   UNL     1      16.697   6.391  20.188  0.00  0.00    -0.313 N 
ATOM     16  C   UNL     1      17.586   7.303  20.745  0.00  0.00    +0.216 C 
ATOM     19  H   UNL     1      16.854   5.398  20.332  0.00  0.00    +0.149 HD
BRANCH  16   9
ATOM      9  C   UNL     1      18.680   6.639  21.524  0.00  0.00    +0.075 C 
ATOM     11  C   UNL     1      19.692   5.984  20.584  0.00  0.00    +0.013 C 
ATOM     12  C   UNL     1      19.461   7.679  22.336  0.00  0.00    +0.013 C 
ATOM     14  C   UNL     1      20.842   6.977  20.502  0.00  0.00    +0.001 C 
ATOM     15  C   UNL     1      20.919   7.527  21.915  0.00  0.00    +0.001 C 
ENDBRANCH  16   9
ENDBRANCH  13   5
ENDBRANCH   8  13
TORSDOF 5
ENDMDL
MODEL 9
REMARK VINA RESULT:      -5.0     27.264     29.226
REMARK  Name = 75536552
REMARK  7 active torsions:
REMARK  status: ('A' for Active; 'I' for Inactive)
REMARK    1  A    between atoms: O_2  and  C_7
REMARK    2  A    between atoms: N_4  and  C_6
REMARK    3  A    between atoms: N_4  and  C_17
REMARK    4  A    between atoms: N_4  and  C_18
REMARK    5  A    between atoms: N_5  and  C_13
REMARK    6  A    between atoms: C_8  and  C_13
REMARK    7  A    between atoms: C_9  and  C_16
REMARK                            x       y       z     vdW  Elec       q    Type
REMARK                         _______ _______ _______ _____ _____    ______ ____
ROOT
ATOM      1  O   UNL     1      -7.311 -12.911  18.402  0.00  0.00    -0.371 OA
ATOM      6  C   UNL     1      -5.582 -11.284  18.358  0.00  0.00    +0.113 C 
ATOM      7  C   UNL     1      -6.802 -10.690  19.036  0.00  0.00    +0.164 C 
ATOM      8  C   UNL     1      -7.554 -11.951  19.442  0.00  0.00    +0.165 C 
ATOM     10  C   UNL     1      -6.192 -12.462  17.618  0.00  0.00    +0.181 C 
ENDROOT
BRANCH   6   4
ATOM      4  N   UNL     1      -4.895 -10.355  17.475  0.00  0.00    -0.301 NA
ATOM     17  C   UNL     1      -5.825  -9.777  16.502  0.00  0.00    +0.105 C 
ATOM     18  C   UNL     1      -3.788 -11.020  16.782  0.00  0.00    +0.105 C 
ENDBRANCH   6   4
BRANCH   7   2
ATOM      2  O   UNL     1      -6.472  -9.890  20.154  0.00  0.00    -0.388 OA
ATOM     20  H   UNL     1      -5.955 -10.431  20.774  0.00  0.00    +0.210 HD
ENDBRANCH   7   2
BRANCH   8  13
ATOM     13  C   UNL     1      -9.048 -11.734  19.602  0.00  0.00    +0.138 C 
BRANCH  13   5
ATOM      3  O   UNL     1     -11.202 -11.083  17.767  0.00  0.00    -0.276 OA
ATOM      5  N   UNL     1      -9.439 -10.431  19.144  0.00  0.00    -0.313 N 
ATOM     16  C   UNL     1     -10.489 -10.212  18.259  0.00  0.00    +0.216 C 
ATOM     19  H   UNL     1      -8.914  -9.635  19.493  0.00  0.00    +0.149 HD
BRANCH  16   9
ATOM      9  C   UNL     1     -10.700  -8.759  17.963  0.00  0.00    +0.075 C 
ATOM     11  C   UNL     1      -9.486  -8.174  17.240  0.00  0.00    +0.013 C 
ATOM     12  C   UNL     1     -11.892  -8.576  17.017  0.00  0.00    +0.013 C 
ATOM     14  C   UNL     1      -9.882  -8.161  15.771  0.00  0.00    +0.001 C 
ATOM     15  C   UNL     1     -11.357  -7.801  15.818  0.00  0.00    +0.001 C 
ENDBRANCH  16   9
ENDBRANCH  13   5
ENDBRANCH   8  13
TORSDOF 5
ENDMDL
MODEL 10
REMARK VINA RESULT:      -5.0     27.051     28.380
REMARK  Name = 75536552
REMARK  7 active torsions:
REMARK  status: ('A' for Active; 'I' for Inactive)
REMARK    1  A    between atoms: O_2  and  C_7
REMARK    2  A    between atoms: N_4  and  C_6
REMARK    3  A    between atoms: N_4  and  C_17
REMARK    4  A    between atoms: N_4  and  C_18
REMARK    5  A    between atoms: N_5  and  C_13
REMARK    6  A    between atoms: C_8  and  C_13
REMARK    7  A    between atoms: C_9  and  C_16
REMARK                            x       y       z     vdW  Elec       q    Type
REMARK                         _______ _______ _______ _____ _____    ______ ____
ROOT
ATOM      1  O   UNL     1      -5.793 -12.363  15.505  0.00  0.00    -0.371 OA
ATOM      6  C   UNL     1      -5.279 -10.809  17.226  0.00  0.00    +0.113 C 
ATOM      7  C   UNL     1      -4.015 -11.120  16.447  0.00  0.00    +0.164 C 
ATOM      8  C   UNL     1      -4.596 -11.654  15.145  0.00  0.00    +0.165 C 
ATOM     10  C   UNL     1      -6.167 -11.981  16.840  0.00  0.00    +0.181 C 
ENDROOT
BRANCH   6   4
ATOM      4  N   UNL     1      -5.071 -10.705  18.661  0.00  0.00    -0.301 NA
ATOM     17  C   UNL     1      -4.407 -11.905  19.179  0.00  0.00    +0.105 C 
ATOM     18  C   UNL     1      -6.343 -10.493  19.357  0.00  0.00    +0.105 C 
ENDBRANCH   6   4
BRANCH   7   2
ATOM      2  O   UNL     1      -3.208  -9.979  16.236  0.00  0.00    -0.388 OA
ATOM     20  H   UNL     1      -2.951  -9.956  15.299  0.00  0.00    +0.210 HD
ENDBRANCH   7   2
BRANCH   8  13
ATOM     13  C   UNL     1      -3.653 -12.582  14.401  0.00  0.00    +0.138 C 
BRANCH  13   5
ATOM      3  O   UNL     1      -2.088 -10.368  13.361  0.00  0.00    -0.276 OA
ATOM      5  N   UNL     1      -3.506 -12.187  13.030  0.00  0.00    -0.313 N 
ATOM     16  C   UNL     1      -2.731 -11.107  12.620  0.00  0.00    +0.216 C 
ATOM     19  H   UNL     1      -3.997 -12.735  12.330  0.00  0.00    +0.149 HD
BRANCH  16   9
ATOM      9  C   UNL     1      -2.731 -10.930  11.133  0.00  0.00    +0.075 C 
ATOM     11  C   UNL     1      -4.080 -11.339  10.540  0.00  0.00    +0.013 C 
ATOM     12  C   UNL     1      -2.535  -9.452  10.774  0.00  0.00    +0.013 C 
ATOM     14  C   UNL     1      -4.824 -10.027  10.336  0.00  0.00    +0.001 C 
ATOM     15  C   UNL     1      -3.725  -9.075   9.899  0.00  0.00    +0.001 C 
ENDBRANCH  16   9
ENDBRANCH  13   5
ENDBRANCH   8  13
TORSDOF 5
ENDMDL
