MODEL 1
REMARK VINA RESULT:      -6.7      0.000      0.000
REMARK  Name = 28960198
REMARK  13 active torsions:
REMARK  status: ('A' for Active; 'I' for Inactive)
REMARK    1  A    between atoms: O_2  and  C_18
REMARK    2  A    between atoms: O_5  and  C_36
REMARK    3  A    between atoms: O_5  and  C_37
REMARK    4  A    between atoms: N_7  and  C_16
REMARK    5  A    between atoms: N_7  and  C_19
REMARK    6  A    between atoms: N_7  and  C_21
REMARK    7  A    between atoms: N_8  and  C_20
REMARK    8  A    between atoms: C_9  and  C_13
REMARK    9  A    between atoms: C_10  and  C_15
REMARK   10  A    between atoms: C_13  and  C_16
REMARK   11  A    between atoms: C_15  and  C_18
REMARK   12  A    between atoms: C_17  and  C_22
REMARK   13  A    between atoms: C_19  and  C_20
REMARK                            x       y       z     vdW  Elec       q    Type
REMARK                         _______ _______ _______ _____ _____    ______ ____
ROOT
ATOM      1  O   UNL     1      13.220  13.930  22.961  0.00  0.00    -0.270 OA
ATOM      6  N   UNL     1      13.306  11.594  22.876  0.00  0.00    -0.297 N 
ATOM      9  C   UNL     1      13.199   9.485  21.563  0.00  0.00    +0.012 C 
ATOM     10  C   UNL     1      11.768   9.261  22.116  0.00  0.00    +0.006 C 
ATOM     11  C   UNL     1      11.089  10.590  22.487  0.00  0.00    +0.023 C 
ATOM     12  C   UNL     1      14.011  10.347  22.548  0.00  0.00    +0.112 C 
ATOM     14  C   UNL     1      11.965  11.413  23.428  0.00  0.00    +0.108 C 
ATOM     17  C   UNL     1      13.809  12.884  22.694  0.00  0.00    +0.247 C 
ENDROOT
BRANCH  17  22
ATOM     22  C   UNL     1      15.159  13.026  22.136  0.00  0.00    +0.037 A 
ATOM     27  C   UNL     1      15.337  13.119  20.756  0.00  0.00    +0.016 A 
ATOM     28  C   UNL     1      16.264  13.066  22.986  0.00  0.00    +0.016 A 
ATOM     33  C   UNL     1      16.620  13.252  20.225  0.00  0.00    +0.046 A 
ATOM     34  C   UNL     1      17.547  13.200  22.457  0.00  0.00    +0.046 A 
ATOM     36  C   UNL     1      17.725  13.293  21.076  0.00  0.00    +0.120 A 
BRANCH  36   5
ATOM      5  O   UNL     1      18.977  13.424  20.559  0.00  0.00    -0.495 OA
ATOM     37  C   UNL     1      19.360  12.498  19.544  0.00  0.00    +0.277 C 
ENDBRANCH  36   5
ENDBRANCH  17  22
BRANCH   9  13
ATOM     13  C   UNL     1      13.235  10.103  20.161  0.00  0.00    +0.024 C 
BRANCH  13  16
ATOM     16  C   UNL     1      14.416   9.611  19.340  0.00  0.00    +0.105 C 
BRANCH  16   7
ATOM      7  N   UNL     1      14.006   8.584  18.412  0.00  0.00    -0.329 N 
BRANCH   7  21
ATOM     21  C   UNL     1      12.990   8.811  17.473  0.00  0.00    +0.030 A 
ATOM     25  C   UNL     1      13.254   9.562  16.328  0.00  0.00    +0.023 A 
ATOM     26  C   UNL     1      11.715   8.286  17.684  0.00  0.00    +0.023 A 
ATOM     31  C   UNL     1      12.242   9.788  15.394  0.00  0.00    +0.002 A 
ATOM     32  C   UNL     1      10.704   8.512  16.751  0.00  0.00    +0.002 A 
ATOM     35  C   UNL     1      10.968   9.263  15.606  0.00  0.00    +0.000 A 
ENDBRANCH   7  21
BRANCH   7  19
ATOM     19  C   UNL     1      14.670   7.281  18.471  0.00  0.00    +0.120 C 
BRANCH  19  20
ATOM     20  C   UNL     1      14.692   6.780  19.910  0.00  0.00    +0.103 C 
BRANCH  20   8
ATOM      4  O   UNL     1      18.864   6.533  20.283  0.00  0.00    -0.377 OA
ATOM      8  N   UNL     1      16.027   6.304  20.262  0.00  0.00    -0.297 NA
ATOM     23  C   UNL     1      16.714   7.272  21.129  0.00  0.00    +0.112 C 
ATOM     24  C   UNL     1      16.827   6.054  19.056  0.00  0.00    +0.112 C 
ATOM     29  C   UNL     1      18.109   6.760  21.474  0.00  0.00    +0.175 C 
ATOM     30  C   UNL     1      18.220   5.570  19.449  0.00  0.00    +0.175 C 
ENDBRANCH  20   8
ENDBRANCH  19  20
ENDBRANCH   7  19
ENDBRANCH  16   7
ENDBRANCH  13  16
ENDBRANCH   9  13
BRANCH  10  15
ATOM     15  C   UNL     1      10.881   8.448  21.172  0.00  0.00    +0.124 C 
BRANCH  15  18
ATOM      3  O   UNL     1      11.268   6.096  21.682  0.00  0.00    -0.251 OA
ATOM     18  C   UNL     1      10.563   7.092  21.739  0.00  0.00    +0.305 C 
BRANCH  18   2
ATOM      2  O   UNL     1       9.346   7.123  22.341  0.00  0.00    -0.481 OA
ATOM     38  H   UNL     1       8.616   7.018  21.694  0.00  0.00    +0.295 HD
ENDBRANCH  18   2
ENDBRANCH  15  18
ENDBRANCH  10  15
TORSDOF 12
ENDMDL
MODEL 2
REMARK VINA RESULT:      -6.6      1.420      4.384
REMARK  Name = 28960198
REMARK  13 active torsions:
REMARK  status: ('A' for Active; 'I' for Inactive)
REMARK    1  A    between atoms: O_2  and  C_18
REMARK    2  A    between atoms: O_5  and  C_36
REMARK    3  A    between atoms: O_5  and  C_37
REMARK    4  A    between atoms: N_7  and  C_16
REMARK    5  A    between atoms: N_7  and  C_19
REMARK    6  A    between atoms: N_7  and  C_21
REMARK    7  A    between atoms: N_8  and  C_20
REMARK    8  A    between atoms: C_9  and  C_13
REMARK    9  A    between atoms: C_10  and  C_15
REMARK   10  A    between atoms: C_13  and  C_16
REMARK   11  A    between atoms: C_15  and  C_18
REMARK   12  A    between atoms: C_17  and  C_22
REMARK   13  A    between atoms: C_19  and  C_20
REMARK                            x       y       z     vdW  Elec       q    Type
REMARK                         _______ _______ _______ _____ _____    ______ ____
ROOT
ATOM      1  O   UNL     1      13.955  13.766  22.906  0.00  0.00    -0.270 OA
ATOM      6  N   UNL     1      13.704  11.440  22.912  0.00  0.00    -0.297 N 
ATOM      9  C   UNL     1      13.330   9.315  21.678  0.00  0.00    +0.012 C 
ATOM     10  C   UNL     1      11.867   9.321  22.189  0.00  0.00    +0.006 C 
ATOM     11  C   UNL     1      11.378  10.749  22.486  0.00  0.00    +0.023 C 
ATOM     12  C   UNL     1      14.231  10.092  22.656  0.00  0.00    +0.112 C 
ATOM     14  C   UNL     1      12.336  11.477  23.425  0.00  0.00    +0.108 C 
ATOM     17  C   UNL     1      14.394  12.636  22.699  0.00  0.00    +0.247 C 
ENDROOT
BRANCH  17  22
ATOM     22  C   UNL     1      15.766  12.558  22.183  0.00  0.00    +0.037 A 
ATOM     27  C   UNL     1      16.811  12.200  23.034  0.00  0.00    +0.016 A 
ATOM     28  C   UNL     1      16.024  12.844  20.843  0.00  0.00    +0.016 A 
ATOM     33  C   UNL     1      18.115  12.127  22.544  0.00  0.00    +0.046 A 
ATOM     34  C   UNL     1      17.327  12.771  20.352  0.00  0.00    +0.046 A 
ATOM     36  C   UNL     1      18.373  12.412  21.203  0.00  0.00    +0.120 A 
BRANCH  36   5
ATOM      5  O   UNL     1      19.645  12.341  20.724  0.00  0.00    -0.495 OA
ATOM     37  C   UNL     1      20.580  11.573  21.480  0.00  0.00    +0.277 C 
ENDBRANCH  36   5
ENDBRANCH  17  22
BRANCH   9  13
ATOM     13  C   UNL     1      13.496   9.862  20.255  0.00  0.00    +0.024 C 
BRANCH  13  16
ATOM     16  C   UNL     1      14.917   9.708  19.735  0.00  0.00    +0.105 C 
BRANCH  16   7
ATOM      7  N   UNL     1      15.319   8.322  19.742  0.00  0.00    -0.329 N 
BRANCH   7  21
ATOM     21  C   UNL     1      16.538   7.917  20.304  0.00  0.00    +0.030 A 
ATOM     25  C   UNL     1      17.028   6.634  20.060  0.00  0.00    +0.023 A 
ATOM     26  C   UNL     1      17.262   8.798  21.108  0.00  0.00    +0.023 A 
ATOM     31  C   UNL     1      18.241   6.233  20.621  0.00  0.00    +0.002 A 
ATOM     32  C   UNL     1      18.474   8.397  21.668  0.00  0.00    +0.002 A 
ATOM     35  C   UNL     1      18.964   7.114  21.424  0.00  0.00    +0.000 A 
ENDBRANCH   7  21
BRANCH   7  19
ATOM     19  C   UNL     1      14.426   7.330  19.140  0.00  0.00    +0.120 C 
BRANCH  19  20
ATOM     20  C   UNL     1      14.669   7.267  17.638  0.00  0.00    +0.103 C 
BRANCH  20   8
ATOM      4  O   UNL     1      11.320   9.489  16.430  0.00  0.00    -0.377 OA
ATOM      8  N   UNL     1      13.474   7.692  16.912  0.00  0.00    -0.297 NA
ATOM     23  C   UNL     1      13.690   8.995  16.269  0.00  0.00    +0.112 C 
ATOM     24  C   UNL     1      12.315   7.761  17.812  0.00  0.00    +0.112 C 
ATOM     29  C   UNL     1      12.427   9.424  15.529  0.00  0.00    +0.175 C 
ATOM     30  C   UNL     1      11.083   8.218  17.034  0.00  0.00    +0.175 C 
ENDBRANCH  20   8
ENDBRANCH  19  20
ENDBRANCH   7  19
ENDBRANCH  16   7
ENDBRANCH  13  16
ENDBRANCH   9  13
BRANCH  10  15
ATOM     15  C   UNL     1      10.899   8.605  21.246  0.00  0.00    +0.124 C 
BRANCH  15  18
ATOM      3  O   UNL     1      11.540   6.275  21.568  0.00  0.00    -0.251 OA
ATOM     18  C   UNL     1      10.707   7.166  21.637  0.00  0.00    +0.305 C 
BRANCH  18   2
ATOM      2  O   UNL     1       9.440   6.981  22.091  0.00  0.00    -0.481 OA
ATOM     38  H   UNL     1       8.781   7.443  21.530  0.00  0.00    +0.295 HD
ENDBRANCH  18   2
ENDBRANCH  15  18
ENDBRANCH  10  15
TORSDOF 12
ENDMDL
MODEL 3
REMARK VINA RESULT:      -6.6     27.169     30.197
REMARK  Name = 28960198
REMARK  13 active torsions:
REMARK  status: ('A' for Active; 'I' for Inactive)
REMARK    1  A    between atoms: O_2  and  C_18
REMARK    2  A    between atoms: O_5  and  C_36
REMARK    3  A    between atoms: O_5  and  C_37
REMARK    4  A    between atoms: N_7  and  C_16
REMARK    5  A    between atoms: N_7  and  C_19
REMARK    6  A    between atoms: N_7  and  C_21
REMARK    7  A    between atoms: N_8  and  C_20
REMARK    8  A    between atoms: C_9  and  C_13
REMARK    9  A    between atoms: C_10  and  C_15
REMARK   10  A    between atoms: C_13  and  C_16
REMARK   11  A    between atoms: C_15  and  C_18
REMARK   12  A    between atoms: C_17  and  C_22
REMARK   13  A    between atoms: C_19  and  C_20
REMARK                            x       y       z     vdW  Elec       q    Type
REMARK                         _______ _______ _______ _____ _____    ______ ____
ROOT
ATOM      1  O   UNL     1      -1.471  -9.911  12.370  0.00  0.00    -0.270 OA
ATOM      6  N   UNL     1      -2.694 -11.338  13.764  0.00  0.00    -0.297 N 
ATOM      9  C   UNL     1      -4.559 -11.699  15.367  0.00  0.00    +0.012 C 
ATOM     10  C   UNL     1      -3.517 -11.720  16.514  0.00  0.00    +0.006 C 
ATOM     11  C   UNL     1      -2.260 -10.911  16.151  0.00  0.00    +0.023 C 
ATOM     12  C   UNL     1      -3.896 -12.135  14.047  0.00  0.00    +0.112 C 
ATOM     14  C   UNL     1      -1.679 -11.364  14.814  0.00  0.00    +0.108 C 
ATOM     17  C   UNL     1      -2.473 -10.584  12.609  0.00  0.00    +0.247 C 
ENDROOT
BRANCH  17  22
ATOM     22  C   UNL     1      -3.515 -10.582  11.576  0.00  0.00    +0.037 A 
ATOM     27  C   UNL     1      -4.512  -9.606  11.594  0.00  0.00    +0.016 A 
ATOM     28  C   UNL     1      -3.510 -11.555  10.577  0.00  0.00    +0.016 A 
ATOM     33  C   UNL     1      -5.504  -9.605  10.613  0.00  0.00    +0.046 A 
ATOM     34  C   UNL     1      -4.500 -11.554   9.596  0.00  0.00    +0.046 A 
ATOM     36  C   UNL     1      -5.497 -10.579   9.614  0.00  0.00    +0.120 A 
BRANCH  36   5
ATOM      5  O   UNL     1      -6.465 -10.577   8.656  0.00  0.00    -0.495 OA
ATOM     37  C   UNL     1      -6.183  -9.867   7.450  0.00  0.00    +0.277 C 
ENDBRANCH  36   5
ENDBRANCH  17  22
BRANCH   9  13
ATOM     13  C   UNL     1      -5.260 -10.347  15.187  0.00  0.00    +0.024 C 
BRANCH  13  16
ATOM     16  C   UNL     1      -6.706 -10.497  14.740  0.00  0.00    +0.105 C 
BRANCH  16   7
ATOM      7  N   UNL     1      -7.613 -10.161  15.811  0.00  0.00    -0.329 N 
BRANCH   7  21
ATOM     21  C   UNL     1      -7.624 -10.881  17.014  0.00  0.00    +0.030 A 
ATOM     25  C   UNL     1      -7.862 -12.255  17.002  0.00  0.00    +0.023 A 
ATOM     26  C   UNL     1      -7.399 -10.223  18.223  0.00  0.00    +0.023 A 
ATOM     31  C   UNL     1      -7.874 -12.971  18.200  0.00  0.00    +0.002 A 
ATOM     32  C   UNL     1      -7.411 -10.938  19.420  0.00  0.00    +0.002 A 
ATOM     35  C   UNL     1      -7.648 -12.312  19.408  0.00  0.00    +0.000 A 
ENDBRANCH   7  21
BRANCH   7  19
ATOM     19  C   UNL     1      -8.539  -9.043  15.619  0.00  0.00    +0.120 C 
BRANCH  19  20
ATOM     20  C   UNL     1      -9.973  -9.558  15.629  0.00  0.00    +0.103 C 
BRANCH  20   8
ATOM      4  O   UNL     1     -11.707  -5.799  14.941  0.00  0.00    -0.377 OA
ATOM      8  N   UNL     1     -10.914  -8.441  15.644  0.00  0.00    -0.297 NA
ATOM     23  C   UNL     1     -11.349  -8.106  14.281  0.00  0.00    +0.112 C 
ATOM     24  C   UNL     1     -10.314  -7.262  16.284  0.00  0.00    +0.112 C 
ATOM     29  C   UNL     1     -12.321  -6.930  14.321  0.00  0.00    +0.175 C 
ATOM     30  C   UNL     1     -11.311  -6.106  16.278  0.00  0.00    +0.175 C 
ENDBRANCH  20   8
ENDBRANCH  19  20
ENDBRANCH   7  19
ENDBRANCH  16   7
ENDBRANCH  13  16
ENDBRANCH   9  13
BRANCH  10  15
ATOM     15  C   UNL     1      -4.089 -11.256  17.853  0.00  0.00    +0.124 C 
BRANCH  15  18
ATOM      3  O   UNL     1      -3.470 -12.149  20.035  0.00  0.00    -0.251 OA
ATOM     18  C   UNL     1      -3.937 -12.307  18.917  0.00  0.00    +0.305 C 
BRANCH  18   2
ATOM      2  O   UNL     1      -4.402 -13.496  18.454  0.00  0.00    -0.481 OA
ATOM     38  H   UNL     1      -3.671 -14.117  18.242  0.00  0.00    +0.295 HD
ENDBRANCH  18   2
ENDBRANCH  15  18
ENDBRANCH  10  15
TORSDOF 12
ENDMDL
MODEL 4
REMARK VINA RESULT:      -6.3      2.671      6.430
REMARK  Name = 28960198
REMARK  13 active torsions:
REMARK  status: ('A' for Active; 'I' for Inactive)
REMARK    1  A    between atoms: O_2  and  C_18
REMARK    2  A    between atoms: O_5  and  C_36
REMARK    3  A    between atoms: O_5  and  C_37
REMARK    4  A    between atoms: N_7  and  C_16
REMARK    5  A    between atoms: N_7  and  C_19
REMARK    6  A    between atoms: N_7  and  C_21
REMARK    7  A    between atoms: N_8  and  C_20
REMARK    8  A    between atoms: C_9  and  C_13
REMARK    9  A    between atoms: C_10  and  C_15
REMARK   10  A    between atoms: C_13  and  C_16
REMARK   11  A    between atoms: C_15  and  C_18
REMARK   12  A    between atoms: C_17  and  C_22
REMARK   13  A    between atoms: C_19  and  C_20
REMARK                            x       y       z     vdW  Elec       q    Type
REMARK                         _______ _______ _______ _____ _____    ______ ____
ROOT
ATOM      1  O   UNL     1      10.422   8.100  22.735  0.00  0.00    -0.270 OA
ATOM      6  N   UNL     1      11.390  10.210  22.439  0.00  0.00    -0.297 N 
ATOM      9  C   UNL     1      13.393  11.680  22.480  0.00  0.00    +0.012 C 
ATOM     10  C   UNL     1      12.884  12.270  23.820  0.00  0.00    +0.006 C 
ATOM     11  C   UNL     1      11.998  11.268  24.580  0.00  0.00    +0.023 C 
ATOM     12  C   UNL     1      12.206  11.148  21.657  0.00  0.00    +0.112 C 
ATOM     14  C   UNL     1      10.869  10.748  23.694  0.00  0.00    +0.108 C 
ATOM     17  C   UNL     1      11.099   8.891  22.081  0.00  0.00    +0.247 C 
ENDROOT
BRANCH  17  22
ATOM     22  C   UNL     1      11.640   8.385  20.814  0.00  0.00    +0.037 A 
ATOM     27  C   UNL     1      11.131   8.853  19.602  0.00  0.00    +0.016 A 
ATOM     28  C   UNL     1      12.663   7.438  20.820  0.00  0.00    +0.016 A 
ATOM     33  C   UNL     1      11.643   8.372  18.397  0.00  0.00    +0.046 A 
ATOM     34  C   UNL     1      13.176   6.956  19.617  0.00  0.00    +0.046 A 
ATOM     36  C   UNL     1      12.667   7.424  18.405  0.00  0.00    +0.120 A 
BRANCH  36   5
ATOM      5  O   UNL     1      13.168   6.955  17.230  0.00  0.00    -0.495 OA
ATOM     37  C   UNL     1      14.325   7.610  16.710  0.00  0.00    +0.277 C 
ENDBRANCH  36   5
ENDBRANCH  17  22
BRANCH   9  13
ATOM     13  C   UNL     1      14.457  10.588  22.645  0.00  0.00    +0.024 C 
BRANCH  13  16
ATOM     16  C   UNL     1      15.712  10.874  21.836  0.00  0.00    +0.105 C 
BRANCH  16   7
ATOM      7  N   UNL     1      15.877   9.902  20.781  0.00  0.00    -0.329 N 
BRANCH   7  21
ATOM     21  C   UNL     1      16.796   8.850  20.893  0.00  0.00    +0.030 A 
ATOM     25  C   UNL     1      17.989   9.037  21.590  0.00  0.00    +0.023 A 
ATOM     26  C   UNL     1      16.517   7.615  20.305  0.00  0.00    +0.023 A 
ATOM     31  C   UNL     1      18.904   7.989  21.699  0.00  0.00    +0.002 A 
ATOM     32  C   UNL     1      17.431   6.568  20.415  0.00  0.00    +0.002 A 
ATOM     35  C   UNL     1      18.625   6.755  21.112  0.00  0.00    +0.000 A 
ENDBRANCH   7  21
BRANCH   7  19
ATOM     19  C   UNL     1      15.062  10.037  19.572  0.00  0.00    +0.120 C 
BRANCH  19  20
ATOM     20  C   UNL     1      15.245  11.429  18.982  0.00  0.00    +0.103 C 
BRANCH  20   8
ATOM      4  O   UNL     1      14.607  12.348  14.937  0.00  0.00    -0.377 OA
ATOM      8  N   UNL     1      15.276  11.363  17.523  0.00  0.00    -0.297 NA
ATOM     23  C   UNL     1      15.930  12.553  16.961  0.00  0.00    +0.112 C 
ATOM     24  C   UNL     1      13.918  11.231  16.978  0.00  0.00    +0.112 C 
ATOM     29  C   UNL     1      15.940  12.468  15.437  0.00  0.00    +0.175 C 
ATOM     30  C   UNL     1      13.975  11.176  15.453  0.00  0.00    +0.175 C 
ENDBRANCH  20   8
ENDBRANCH  19  20
ENDBRANCH   7  19
ENDBRANCH  16   7
ENDBRANCH  13  16
ENDBRANCH   9  13
BRANCH  10  15
ATOM     15  C   UNL     1      14.011  12.781  24.717  0.00  0.00    +0.124 C 
BRANCH  15  18
ATOM      3  O   UNL     1      14.471  11.109  26.431  0.00  0.00    -0.251 OA
ATOM     18  C   UNL     1      13.955  12.162  26.086  0.00  0.00    +0.305 C 
BRANCH  18   2
ATOM      2  O   UNL     1      13.229  12.954  26.917  0.00  0.00    -0.481 OA
ATOM     38  H   UNL     1      13.751  13.238  27.698  0.00  0.00    +0.295 HD
ENDBRANCH  18   2
ENDBRANCH  15  18
ENDBRANCH  10  15
TORSDOF 12
ENDMDL
MODEL 5
REMARK VINA RESULT:      -6.2     28.121     30.637
REMARK  Name = 28960198
REMARK  13 active torsions:
REMARK  status: ('A' for Active; 'I' for Inactive)
REMARK    1  A    between atoms: O_2  and  C_18
REMARK    2  A    between atoms: O_5  and  C_36
REMARK    3  A    between atoms: O_5  and  C_37
REMARK    4  A    between atoms: N_7  and  C_16
REMARK    5  A    between atoms: N_7  and  C_19
REMARK    6  A    between atoms: N_7  and  C_21
REMARK    7  A    between atoms: N_8  and  C_20
REMARK    8  A    between atoms: C_9  and  C_13
REMARK    9  A    between atoms: C_10  and  C_15
REMARK   10  A    between atoms: C_13  and  C_16
REMARK   11  A    between atoms: C_15  and  C_18
REMARK   12  A    between atoms: C_17  and  C_22
REMARK   13  A    between atoms: C_19  and  C_20
REMARK                            x       y       z     vdW  Elec       q    Type
REMARK                         _______ _______ _______ _____ _____    ______ ____
ROOT
ATOM      1  O   UNL     1     -13.840  -9.062  16.804  0.00  0.00    -0.270 OA
ATOM      6  N   UNL     1     -11.618  -8.697  17.440  0.00  0.00    -0.297 N 
ATOM      9  C   UNL     1      -9.191  -9.124  17.114  0.00  0.00    +0.012 C 
ATOM     10  C   UNL     1      -9.231 -10.061  18.348  0.00  0.00    +0.006 C 
ATOM     11  C   UNL     1     -10.633 -10.658  18.561  0.00  0.00    +0.023 C 
ATOM     12  C   UNL     1     -10.308  -8.069  17.222  0.00  0.00    +0.112 C 
ATOM     14  C   UNL     1     -11.695  -9.563  18.615  0.00  0.00    +0.108 C 
ATOM     17  C   UNL     1     -12.743  -8.534  16.628  0.00  0.00    +0.247 C 
ENDROOT
BRANCH  17  22
ATOM     22  C   UNL     1     -12.627  -7.656  15.457  0.00  0.00    +0.037 A 
ATOM     27  C   UNL     1     -12.406  -8.205  14.194  0.00  0.00    +0.016 A 
ATOM     28  C   UNL     1     -12.737  -6.274  15.607  0.00  0.00    +0.016 A 
ATOM     33  C   UNL     1     -12.294  -7.372  13.081  0.00  0.00    +0.046 A 
ATOM     34  C   UNL     1     -12.626  -5.441  14.495  0.00  0.00    +0.046 A 
ATOM     36  C   UNL     1     -12.405  -5.990  13.232  0.00  0.00    +0.120 A 
BRANCH  36   5
ATOM      5  O   UNL     1     -12.298  -5.176  12.146  0.00  0.00    -0.495 OA
ATOM     37  C   UNL     1     -12.403  -3.771  12.375  0.00  0.00    +0.277 C 
ENDBRANCH  36   5
ENDBRANCH  17  22
BRANCH   9  13
ATOM     13  C   UNL     1      -9.281  -9.858  15.771  0.00  0.00    +0.024 C 
BRANCH  13  16
ATOM     16  C   UNL     1      -8.444  -9.193  14.690  0.00  0.00    +0.105 C 
BRANCH  16   7
ATOM      7  N   UNL     1      -7.352 -10.046  14.287  0.00  0.00    -0.329 N 
BRANCH   7  21
ATOM     21  C   UNL     1      -6.417 -10.524  15.216  0.00  0.00    +0.030 A 
ATOM     25  C   UNL     1      -5.709  -9.629  16.017  0.00  0.00    +0.023 A 
ATOM     26  C   UNL     1      -6.194 -11.896  15.338  0.00  0.00    +0.023 A 
ATOM     31  C   UNL     1      -4.778 -10.106  16.941  0.00  0.00    +0.002 A 
ATOM     32  C   UNL     1      -5.264 -12.373  16.261  0.00  0.00    +0.002 A 
ATOM     35  C   UNL     1      -4.556 -11.478  17.062  0.00  0.00    +0.000 A 
ENDBRANCH   7  21
BRANCH   7  19
ATOM     19  C   UNL     1      -7.228 -10.405  12.873  0.00  0.00    +0.120 C 
BRANCH  19  20
ATOM     20  C   UNL     1      -6.717  -9.207  12.082  0.00  0.00    +0.103 C 
BRANCH  20   8
ATOM      4  O   UNL     1      -2.911  -9.389  10.323  0.00  0.00    -0.377 OA
ATOM      8  N   UNL     1      -5.603  -9.603  11.224  0.00  0.00    -0.297 NA
ATOM     23  C   UNL     1      -4.482 -10.113  12.025  0.00  0.00    +0.112 C 
ATOM     24  C   UNL     1      -5.157  -8.474  10.396  0.00  0.00    +0.112 C 
ATOM     29  C   UNL     1      -3.327 -10.507  11.109  0.00  0.00    +0.175 C 
ATOM     30  C   UNL     1      -3.986  -8.907   9.517  0.00  0.00    +0.175 C 
ENDBRANCH  20   8
ENDBRANCH  19  20
ENDBRANCH   7  19
ENDBRANCH  16   7
ENDBRANCH  13  16
ENDBRANCH   9  13
BRANCH  10  15
ATOM     15  C   UNL     1      -8.177 -11.168  18.295  0.00  0.00    +0.124 C 
BRANCH  15  18
ATOM      3  O   UNL     1      -7.212 -12.255  20.252  0.00  0.00    -0.251 OA
ATOM     18  C   UNL     1      -7.396 -11.254  19.577  0.00  0.00    +0.305 C 
BRANCH  18   2
ATOM      2  O   UNL     1      -6.907 -10.028  19.896  0.00  0.00    -0.481 OA
ATOM     38  H   UNL     1      -6.059  -9.842  19.436  0.00  0.00    +0.295 HD
ENDBRANCH  18   2
ENDBRANCH  15  18
ENDBRANCH  10  15
TORSDOF 12
ENDMDL
MODEL 6
REMARK VINA RESULT:      -6.2     27.113     30.124
REMARK  Name = 28960198
REMARK  13 active torsions:
REMARK  status: ('A' for Active; 'I' for Inactive)
REMARK    1  A    between atoms: O_2  and  C_18
REMARK    2  A    between atoms: O_5  and  C_36
REMARK    3  A    between atoms: O_5  and  C_37
REMARK    4  A    between atoms: N_7  and  C_16
REMARK    5  A    between atoms: N_7  and  C_19
REMARK    6  A    between atoms: N_7  and  C_21
REMARK    7  A    between atoms: N_8  and  C_20
REMARK    8  A    between atoms: C_9  and  C_13
REMARK    9  A    between atoms: C_10  and  C_15
REMARK   10  A    between atoms: C_13  and  C_16
REMARK   11  A    between atoms: C_15  and  C_18
REMARK   12  A    between atoms: C_17  and  C_22
REMARK   13  A    between atoms: C_19  and  C_20
REMARK                            x       y       z     vdW  Elec       q    Type
REMARK                         _______ _______ _______ _____ _____    ______ ____
ROOT
ATOM      1  O   UNL     1      -8.850 -11.150  18.549  0.00  0.00    -0.270 OA
ATOM      6  N   UNL     1      -6.928 -10.154  17.662  0.00  0.00    -0.297 N 
ATOM      9  C   UNL     1      -5.311  -9.889  15.793  0.00  0.00    +0.012 C 
ATOM     10  C   UNL     1      -4.307 -10.759  16.592  0.00  0.00    +0.006 C 
ATOM     11  C   UNL     1      -5.029 -11.719  17.553  0.00  0.00    +0.023 C 
ATOM     12  C   UNL     1      -6.283  -9.189  16.762  0.00  0.00    +0.112 C 
ATOM     14  C   UNL     1      -6.007 -10.967  18.452  0.00  0.00    +0.108 C 
ATOM     17  C   UNL     1      -8.306 -10.341  17.801  0.00  0.00    +0.247 C 
ENDROOT
BRANCH  17  22
ATOM     22  C   UNL     1      -9.200  -9.505  16.991  0.00  0.00    +0.037 A 
ATOM     27  C   UNL     1      -9.643  -9.959  15.748  0.00  0.00    +0.016 A 
ATOM     28  C   UNL     1      -9.607  -8.258  17.463  0.00  0.00    +0.016 A 
ATOM     33  C   UNL     1     -10.492  -9.165  14.978  0.00  0.00    +0.046 A 
ATOM     34  C   UNL     1     -10.456  -7.463  16.694  0.00  0.00    +0.046 A 
ATOM     36  C   UNL     1     -10.899  -7.917  15.451  0.00  0.00    +0.120 A 
BRANCH  36   5
ATOM      5  O   UNL     1     -11.728  -7.142  14.700  0.00  0.00    -0.495 OA
ATOM     37  C   UNL     1     -12.533  -6.190  15.394  0.00  0.00    +0.277 C 
ENDBRANCH  36   5
ENDBRANCH  17  22
BRANCH   9  13
ATOM     13  C   UNL     1      -6.092 -10.662  14.724  0.00  0.00    +0.024 C 
BRANCH  13  16
ATOM     16  C   UNL     1      -6.602  -9.759  13.612  0.00  0.00    +0.105 C 
BRANCH  16   7
ATOM      7  N   UNL     1      -6.276 -10.304  12.316  0.00  0.00    -0.329 N 
BRANCH   7  21
ATOM     21  C   UNL     1      -5.054 -10.022  11.690  0.00  0.00    +0.030 A 
ATOM     25  C   UNL     1      -3.911 -10.745  12.032  0.00  0.00    +0.023 A 
ATOM     26  C   UNL     1      -4.979  -9.016  10.726  0.00  0.00    +0.023 A 
ATOM     31  C   UNL     1      -2.695 -10.462  11.410  0.00  0.00    +0.002 A 
ATOM     32  C   UNL     1      -3.764  -8.734  10.104  0.00  0.00    +0.002 A 
ATOM     35  C   UNL     1      -2.622  -9.457  10.446  0.00  0.00    +0.000 A 
ENDBRANCH   7  21
BRANCH   7  19
ATOM     19  C   UNL     1      -7.257 -11.164  11.651  0.00  0.00    +0.120 C 
BRANCH  19  20
ATOM     20  C   UNL     1      -8.529 -10.373  11.374  0.00  0.00    +0.103 C 
BRANCH  20   8
ATOM      4  O   UNL     1      -7.647  -9.254   7.427  0.00  0.00    -0.377 OA
ATOM      8  N   UNL     1      -8.665 -10.112   9.943  0.00  0.00    -0.297 NA
ATOM     23  C   UNL     1      -7.727 -10.939   9.171  0.00  0.00    +0.112 C 
ATOM     24  C   UNL     1      -8.440  -8.690   9.649  0.00  0.00    +0.112 C 
ATOM     29  C   UNL     1      -7.878 -10.641   7.682  0.00  0.00    +0.175 C 
ATOM     30  C   UNL     1      -8.575  -8.444   8.148  0.00  0.00    +0.175 C 
ENDBRANCH  20   8
ENDBRANCH  19  20
ENDBRANCH   7  19
ENDBRANCH  16   7
ENDBRANCH  13  16
ENDBRANCH   9  13
BRANCH  10  15
ATOM     15  C   UNL     1      -3.333 -11.525  15.696  0.00  0.00    +0.124 C 
BRANCH  15  18
ATOM      3  O   UNL     1      -1.590 -10.171  14.660  0.00  0.00    -0.251 OA
ATOM     18  C   UNL     1      -2.002 -10.830  15.602  0.00  0.00    +0.305 C 
BRANCH  18   2
ATOM      2  O   UNL     1      -1.295 -11.042  16.742  0.00  0.00    -0.481 OA
ATOM     38  H   UNL     1      -1.654 -11.795  17.260  0.00  0.00    +0.295 HD
ENDBRANCH  18   2
ENDBRANCH  15  18
ENDBRANCH  10  15
TORSDOF 12
ENDMDL
MODEL 7
REMARK VINA RESULT:      -6.1     27.841     30.049
REMARK  Name = 28960198
REMARK  13 active torsions:
REMARK  status: ('A' for Active; 'I' for Inactive)
REMARK    1  A    between atoms: O_2  and  C_18
REMARK    2  A    between atoms: O_5  and  C_36
REMARK    3  A    between atoms: O_5  and  C_37
REMARK    4  A    between atoms: N_7  and  C_16
REMARK    5  A    between atoms: N_7  and  C_19
REMARK    6  A    between atoms: N_7  and  C_21
REMARK    7  A    between atoms: N_8  and  C_20
REMARK    8  A    between atoms: C_9  and  C_13
REMARK    9  A    between atoms: C_10  and  C_15
REMARK   10  A    between atoms: C_13  and  C_16
REMARK   11  A    between atoms: C_15  and  C_18
REMARK   12  A    between atoms: C_17  and  C_22
REMARK   13  A    between atoms: C_19  and  C_20
REMARK                            x       y       z     vdW  Elec       q    Type
REMARK                         _______ _______ _______ _____ _____    ______ ____
ROOT
ATOM      1  O   UNL     1     -11.043 -11.711  17.569  0.00  0.00    -0.270 OA
ATOM      6  N   UNL     1      -8.933 -11.138  18.402  0.00  0.00    -0.297 N 
ATOM      9  C   UNL     1      -6.497 -10.804  18.039  0.00  0.00    +0.012 C 
ATOM     10  C   UNL     1      -6.245 -12.155  18.756  0.00  0.00    +0.006 C 
ATOM     11  C   UNL     1      -7.455 -13.096  18.631  0.00  0.00    +0.023 C 
ATOM     12  C   UNL     1      -7.820 -10.188  18.532  0.00  0.00    +0.112 C 
ATOM     14  C   UNL     1      -8.737 -12.410  19.094  0.00  0.00    +0.108 C 
ATOM     17  C   UNL     1     -10.111 -10.916  17.685  0.00  0.00    +0.247 C 
ENDROOT
BRANCH  17  22
ATOM     22  C   UNL     1     -10.272  -9.627  17.003  0.00  0.00    +0.037 A 
ATOM     27  C   UNL     1      -9.853  -9.481  15.680  0.00  0.00    +0.016 A 
ATOM     28  C   UNL     1     -10.842  -8.547  17.677  0.00  0.00    +0.016 A 
ATOM     33  C   UNL     1     -10.004  -8.256  15.032  0.00  0.00    +0.046 A 
ATOM     34  C   UNL     1     -10.993  -7.322  17.030  0.00  0.00    +0.046 A 
ATOM     36  C   UNL     1     -10.575  -7.176  15.707  0.00  0.00    +0.120 A 
BRANCH  36   5
ATOM      5  O   UNL     1     -10.723  -5.980  15.074  0.00  0.00    -0.495 OA
ATOM     37  C   UNL     1     -12.032  -5.648  14.612  0.00  0.00    +0.277 C 
ENDBRANCH  36   5
ENDBRANCH  17  22
BRANCH   9  13
ATOM     13  C   UNL     1      -6.493 -10.900  16.508  0.00  0.00    +0.024 C 
BRANCH  13  16
ATOM     16  C   UNL     1      -5.534  -9.910  15.867  0.00  0.00    +0.105 C 
BRANCH  16   7
ATOM      7  N   UNL     1      -5.212 -10.307  14.517  0.00  0.00    -0.329 N 
BRANCH   7  21
ATOM     21  C   UNL     1      -4.093 -11.103  14.236  0.00  0.00    +0.030 A 
ATOM     25  C   UNL     1      -4.081 -12.447  14.610  0.00  0.00    +0.023 A 
ATOM     26  C   UNL     1      -2.990 -10.551  13.583  0.00  0.00    +0.023 A 
ATOM     31  C   UNL     1      -2.966 -13.238  14.331  0.00  0.00    +0.002 A 
ATOM     32  C   UNL     1      -1.877 -11.342  13.304  0.00  0.00    +0.002 A 
ATOM     35  C   UNL     1      -1.864 -12.685  13.678  0.00  0.00    +0.000 A 
ENDBRANCH   7  21
BRANCH   7  19
ATOM     19  C   UNL     1      -6.080  -9.855  13.428  0.00  0.00    +0.120 C 
BRANCH  19  20
ATOM     20  C   UNL     1      -6.114 -10.909  12.328  0.00  0.00    +0.103 C 
BRANCH  20   8
ATOM      4  O   UNL     1      -4.049  -8.996   9.216  0.00  0.00    -0.377 OA
ATOM      8  N   UNL     1      -5.805 -10.304  11.035  0.00  0.00    -0.297 NA
ATOM     23  C   UNL     1      -4.710 -11.025  10.371  0.00  0.00    +0.112 C 
ATOM     24  C   UNL     1      -5.451  -8.887  11.193  0.00  0.00    +0.112 C 
ATOM     29  C   UNL     1      -4.395 -10.369   9.030  0.00  0.00    +0.175 C 
ATOM     30  C   UNL     1      -5.120  -8.281   9.831  0.00  0.00    +0.175 C 
ENDBRANCH  20   8
ENDBRANCH  19  20
ENDBRANCH   7  19
ENDBRANCH  16   7
ENDBRANCH  13  16
ENDBRANCH   9  13
BRANCH  10  15
ATOM     15  C   UNL     1      -4.968 -12.853  18.287  0.00  0.00    +0.124 C 
BRANCH  15  18
ATOM      3  O   UNL     1      -3.366 -12.222  20.013  0.00  0.00    -0.251 OA
ATOM     18  C   UNL     1      -3.738 -12.197  18.849  0.00  0.00    +0.305 C 
BRANCH  18   2
ATOM      2  O   UNL     1      -3.072 -11.549  17.858  0.00  0.00    -0.481 OA
ATOM     38  H   UNL     1      -3.552 -10.747  17.560  0.00  0.00    +0.295 HD
ENDBRANCH  18   2
ENDBRANCH  15  18
ENDBRANCH  10  15
TORSDOF 12
ENDMDL
MODEL 8
REMARK VINA RESULT:      -6.0     26.931     29.630
REMARK  Name = 28960198
REMARK  13 active torsions:
REMARK  status: ('A' for Active; 'I' for Inactive)
REMARK    1  A    between atoms: O_2  and  C_18
REMARK    2  A    between atoms: O_5  and  C_36
REMARK    3  A    between atoms: O_5  and  C_37
REMARK    4  A    between atoms: N_7  and  C_16
REMARK    5  A    between atoms: N_7  and  C_19
REMARK    6  A    between atoms: N_7  and  C_21
REMARK    7  A    between atoms: N_8  and  C_20
REMARK    8  A    between atoms: C_9  and  C_13
REMARK    9  A    between atoms: C_10  and  C_15
REMARK   10  A    between atoms: C_13  and  C_16
REMARK   11  A    between atoms: C_15  and  C_18
REMARK   12  A    between atoms: C_17  and  C_22
REMARK   13  A    between atoms: C_19  and  C_20
REMARK                            x       y       z     vdW  Elec       q    Type
REMARK                         _______ _______ _______ _____ _____    ______ ____
ROOT
ATOM      1  O   UNL     1      -8.549 -11.123  18.652  0.00  0.00    -0.270 OA
ATOM      6  N   UNL     1      -6.623 -10.152  17.746  0.00  0.00    -0.297 N 
ATOM      9  C   UNL     1      -4.983  -9.959  15.888  0.00  0.00    +0.012 C 
ATOM     10  C   UNL     1      -3.983 -10.784  16.737  0.00  0.00    +0.006 C 
ATOM     11  C   UNL     1      -4.711 -11.706  17.731  0.00  0.00    +0.023 C 
ATOM     12  C   UNL     1      -5.972  -9.223  16.811  0.00  0.00    +0.112 C 
ATOM     14  C   UNL     1      -5.706 -10.922  18.583  0.00  0.00    +0.108 C 
ATOM     17  C   UNL     1      -8.001 -10.343  17.875  0.00  0.00    +0.247 C 
ENDROOT
BRANCH  17  22
ATOM     22  C   UNL     1      -8.890  -9.552  17.017  0.00  0.00    +0.037 A 
ATOM     27  C   UNL     1      -9.239 -10.023  15.751  0.00  0.00    +0.016 A 
ATOM     28  C   UNL     1      -9.387  -8.329  17.467  0.00  0.00    +0.016 A 
ATOM     33  C   UNL     1     -10.083  -9.271  14.935  0.00  0.00    +0.046 A 
ATOM     34  C   UNL     1     -10.232  -7.576  16.652  0.00  0.00    +0.046 A 
ATOM     36  C   UNL     1     -10.580  -8.048  15.386  0.00  0.00    +0.120 A 
BRANCH  36   5
ATOM      5  O   UNL     1     -11.405  -7.313  14.590  0.00  0.00    -0.495 OA
ATOM     37  C   UNL     1     -11.659  -5.966  14.986  0.00  0.00    +0.277 C 
ENDBRANCH  36   5
ENDBRANCH  17  22
BRANCH   9  13
ATOM     13  C   UNL     1      -5.744 -10.785  14.844  0.00  0.00    +0.024 C 
BRANCH  13  16
ATOM     16  C   UNL     1      -6.022  -9.999  13.572  0.00  0.00    +0.105 C 
BRANCH  16   7
ATOM      7  N   UNL     1      -5.734 -10.794  12.403  0.00  0.00    -0.329 N 
BRANCH   7  21
ATOM     21  C   UNL     1      -5.237 -10.214  11.228  0.00  0.00    +0.030 A 
ATOM     25  C   UNL     1      -3.930  -9.731  11.187  0.00  0.00    +0.023 A 
ATOM     26  C   UNL     1      -6.052 -10.118  10.099  0.00  0.00    +0.023 A 
ATOM     31  C   UNL     1      -3.436  -9.152  10.017  0.00  0.00    +0.002 A 
ATOM     32  C   UNL     1      -5.559  -9.539   8.930  0.00  0.00    +0.002 A 
ATOM     35  C   UNL     1      -4.251  -9.057   8.889  0.00  0.00    +0.000 A 
ENDBRANCH   7  21
BRANCH   7  19
ATOM     19  C   UNL     1      -5.978 -12.237  12.460  0.00  0.00    +0.120 C 
BRANCH  19  20
ATOM     20  C   UNL     1      -4.770 -12.983  11.907  0.00  0.00    +0.103 C 
BRANCH  20   8
ATOM      4  O   UNL     1      -2.245 -15.355  14.274  0.00  0.00    -0.377 OA
ATOM      8  N   UNL     1      -3.905 -13.428  12.996  0.00  0.00    -0.297 NA
ATOM     23  C   UNL     1      -2.554 -13.728  12.501  0.00  0.00    +0.112 C 
ATOM     24  C   UNL     1      -4.470 -14.610  13.661  0.00  0.00    +0.112 C 
ATOM     29  C   UNL     1      -1.673 -14.203  13.653  0.00  0.00    +0.175 C 
ATOM     30  C   UNL     1      -3.544 -15.064  14.787  0.00  0.00    +0.175 C 
ENDBRANCH  20   8
ENDBRANCH  19  20
ENDBRANCH   7  19
ENDBRANCH  16   7
ENDBRANCH  13  16
ENDBRANCH   9  13
BRANCH  10  15
ATOM     15  C   UNL     1      -2.992 -11.582  15.890  0.00  0.00    +0.124 C 
BRANCH  15  18
ATOM      3  O   UNL     1      -0.971 -10.223  16.000  0.00  0.00    -0.251 OA
ATOM     18  C   UNL     1      -1.889 -10.709  15.358  0.00  0.00    +0.305 C 
BRANCH  18   2
ATOM      2  O   UNL     1      -2.055 -10.526  14.022  0.00  0.00    -0.481 OA
ATOM     38  H   UNL     1      -1.274 -10.830  13.512  0.00  0.00    +0.295 HD
ENDBRANCH  18   2
ENDBRANCH  15  18
ENDBRANCH  10  15
TORSDOF 12
ENDMDL
MODEL 9
REMARK VINA RESULT:      -6.0      2.104      4.842
REMARK  Name = 28960198
REMARK  13 active torsions:
REMARK  status: ('A' for Active; 'I' for Inactive)
REMARK    1  A    between atoms: O_2  and  C_18
REMARK    2  A    between atoms: O_5  and  C_36
REMARK    3  A    between atoms: O_5  and  C_37
REMARK    4  A    between atoms: N_7  and  C_16
REMARK    5  A    between atoms: N_7  and  C_19
REMARK    6  A    between atoms: N_7  and  C_21
REMARK    7  A    between atoms: N_8  and  C_20
REMARK    8  A    between atoms: C_9  and  C_13
REMARK    9  A    between atoms: C_10  and  C_15
REMARK   10  A    between atoms: C_13  and  C_16
REMARK   11  A    between atoms: C_15  and  C_18
REMARK   12  A    between atoms: C_17  and  C_22
REMARK   13  A    between atoms: C_19  and  C_20
REMARK                            x       y       z     vdW  Elec       q    Type
REMARK                         _______ _______ _______ _____ _____    ______ ____
ROOT
ATOM      1  O   UNL     1      13.704  14.597  22.704  0.00  0.00    -0.270 OA
ATOM      6  N   UNL     1      12.869  12.458  23.150  0.00  0.00    -0.297 N 
ATOM      9  C   UNL     1      12.825  10.022  22.658  0.00  0.00    +0.012 C 
ATOM     10  C   UNL     1      11.471  10.233  21.934  0.00  0.00    +0.006 C 
ATOM     11  C   UNL     1      11.337  11.666  21.391  0.00  0.00    +0.023 C 
ATOM     12  C   UNL     1      13.024  11.114  23.725  0.00  0.00    +0.112 C 
ATOM     14  C   UNL     1      11.589  12.697  22.488  0.00  0.00    +0.108 C 
ATOM     17  C   UNL     1      13.827  13.474  23.189  0.00  0.00    +0.247 C 
ENDROOT
BRANCH  17  22
ATOM     22  C   UNL     1      15.101  13.196  23.863  0.00  0.00    +0.037 A 
ATOM     27  C   UNL     1      16.176  12.680  23.138  0.00  0.00    +0.016 A 
ATOM     28  C   UNL     1      15.237  13.446  25.228  0.00  0.00    +0.016 A 
ATOM     33  C   UNL     1      17.386  12.415  23.778  0.00  0.00    +0.046 A 
ATOM     34  C   UNL     1      16.446  13.182  25.869  0.00  0.00    +0.046 A 
ATOM     36  C   UNL     1      17.521  12.666  25.144  0.00  0.00    +0.120 A 
BRANCH  36   5
ATOM      5  O   UNL     1      18.702  12.408  25.769  0.00  0.00    -0.495 OA
ATOM     37  C   UNL     1      18.658  12.206  27.181  0.00  0.00    +0.277 C 
ENDBRANCH  36   5
ENDBRANCH  17  22
BRANCH   9  13
ATOM     13  C   UNL     1      14.034   9.972  21.716  0.00  0.00    +0.024 C 
BRANCH  13  16
ATOM     16  C   UNL     1      14.703   8.606  21.703  0.00  0.00    +0.105 C 
BRANCH  16   7
ATOM      7  N   UNL     1      15.556   8.463  20.547  0.00  0.00    -0.329 N 
BRANCH   7  21
ATOM     21  C   UNL     1      16.817   7.858  20.640  0.00  0.00    +0.030 A 
ATOM     25  C   UNL     1      17.819   8.448  21.411  0.00  0.00    +0.023 A 
ATOM     26  C   UNL     1      17.071   6.667  19.960  0.00  0.00    +0.023 A 
ATOM     31  C   UNL     1      19.074   7.846  21.501  0.00  0.00    +0.002 A 
ATOM     32  C   UNL     1      18.326   6.065  20.050  0.00  0.00    +0.002 A 
ATOM     35  C   UNL     1      19.327   6.655  20.821  0.00  0.00    +0.000 A 
ENDBRANCH   7  21
BRANCH   7  19
ATOM     19  C   UNL     1      15.081   8.970  19.258  0.00  0.00    +0.120 C 
BRANCH  19  20
ATOM     20  C   UNL     1      14.084   7.988  18.656  0.00  0.00    +0.103 C 
BRANCH  20   8
ATOM      4  O   UNL     1      11.540   8.935  15.457  0.00  0.00    -0.377 OA
ATOM      8  N   UNL     1      13.126   8.691  17.808  0.00  0.00    -0.297 NA
ATOM     23  C   UNL     1      11.911   7.887  17.613  0.00  0.00    +0.112 C 
ATOM     24  C   UNL     1      13.724   9.021  16.507  0.00  0.00    +0.112 C 
ATOM     29  C   UNL     1      10.931   8.636  16.714  0.00  0.00    +0.175 C 
ATOM     30  C   UNL     1      12.702   9.744  15.634  0.00  0.00    +0.175 C 
ENDBRANCH  20   8
ENDBRANCH  19  20
ENDBRANCH   7  19
ENDBRANCH  16   7
ENDBRANCH  13  16
ENDBRANCH   9  13
BRANCH  10  15
ATOM     15  C   UNL     1      11.218   9.211  20.825  0.00  0.00    +0.124 C 
BRANCH  15  18
ATOM      3  O   UNL     1      11.628   6.827  21.127  0.00  0.00    -0.251 OA
ATOM     18  C   UNL     1      10.985   7.834  21.382  0.00  0.00    +0.305 C 
BRANCH  18   2
ATOM      2  O   UNL     1       9.929   7.859  22.236  0.00  0.00    -0.481 OA
ATOM     38  H   UNL     1       9.075   7.941  21.758  0.00  0.00    +0.295 HD
ENDBRANCH  18   2
ENDBRANCH  15  18
ENDBRANCH  10  15
TORSDOF 12
ENDMDL
MODEL 10
REMARK VINA RESULT:      -5.9     26.446     30.225
REMARK  Name = 28960198
REMARK  13 active torsions:
REMARK  status: ('A' for Active; 'I' for Inactive)
REMARK    1  A    between atoms: O_2  and  C_18
REMARK    2  A    between atoms: O_5  and  C_36
REMARK    3  A    between atoms: O_5  and  C_37
REMARK    4  A    between atoms: N_7  and  C_16
REMARK    5  A    between atoms: N_7  and  C_19
REMARK    6  A    between atoms: N_7  and  C_21
REMARK    7  A    between atoms: N_8  and  C_20
REMARK    8  A    between atoms: C_9  and  C_13
REMARK    9  A    between atoms: C_10  and  C_15
REMARK   10  A    between atoms: C_13  and  C_16
REMARK   11  A    between atoms: C_15  and  C_18
REMARK   12  A    between atoms: C_17  and  C_22
REMARK   13  A    between atoms: C_19  and  C_20
REMARK                            x       y       z     vdW  Elec       q    Type
REMARK                         _______ _______ _______ _____ _____    ______ ____
ROOT
ATOM      1  O   UNL     1      -3.753 -12.536   9.503  0.00  0.00    -0.270 OA
ATOM      6  N   UNL     1      -4.353 -10.276   9.558  0.00  0.00    -0.297 N 
ATOM      9  C   UNL     1      -5.898  -8.479  10.310  0.00  0.00    +0.012 C 
ATOM     10  C   UNL     1      -6.492  -8.445   8.879  0.00  0.00    +0.006 C 
ATOM     11  C   UNL     1      -6.331  -9.799   8.167  0.00  0.00    +0.023 C 
ATOM     12  C   UNL     1      -4.445  -8.989  10.262  0.00  0.00    +0.112 C 
ATOM     14  C   UNL     1      -4.878 -10.267   8.194  0.00  0.00    +0.108 C 
ATOM     17  C   UNL     1      -3.827 -11.456  10.087  0.00  0.00    +0.247 C 
ENDROOT
BRANCH  17  22
ATOM     22  C   UNL     1      -3.310 -11.427  11.460  0.00  0.00    +0.037 A 
ATOM     27  C   UNL     1      -3.840 -12.285  12.423  0.00  0.00    +0.016 A 
ATOM     28  C   UNL     1      -2.290 -10.540  11.802  0.00  0.00    +0.016 A 
ATOM     33  C   UNL     1      -3.350 -12.256  13.729  0.00  0.00    +0.046 A 
ATOM     34  C   UNL     1      -1.799 -10.511  13.106  0.00  0.00    +0.046 A 
ATOM     36  C   UNL     1      -2.329 -11.369  14.070  0.00  0.00    +0.120 A 
BRANCH  36   5
ATOM      5  O   UNL     1      -1.849 -11.341  15.344  0.00  0.00    -0.495 OA
ATOM     37  C   UNL     1      -1.074 -10.204  15.721  0.00  0.00    +0.277 C 
ENDBRANCH  36   5
ENDBRANCH  17  22
BRANCH   9  13
ATOM     13  C   UNL     1      -6.719  -9.306  11.306  0.00  0.00    +0.024 C 
BRANCH  13  16
ATOM     16  C   UNL     1      -6.136  -9.269  12.710  0.00  0.00    +0.105 C 
BRANCH  16   7
ATOM      7  N   UNL     1      -6.914 -10.086  13.611  0.00  0.00    -0.329 N 
BRANCH   7  21
ATOM     21  C   UNL     1      -6.354 -10.621  14.780  0.00  0.00    +0.030 A 
ATOM     25  C   UNL     1      -5.470  -9.858  15.543  0.00  0.00    +0.023 A 
ATOM     26  C   UNL     1      -6.682 -11.916  15.181  0.00  0.00    +0.023 A 
ATOM     31  C   UNL     1      -4.913 -10.392  16.706  0.00  0.00    +0.002 A 
ATOM     32  C   UNL     1      -6.126 -12.449  16.343  0.00  0.00    +0.002 A 
ATOM     35  C   UNL     1      -5.242 -11.687  17.106  0.00  0.00    +0.000 A 
ENDBRANCH   7  21
BRANCH   7  19
ATOM     19  C   UNL     1      -8.313 -10.359  13.279  0.00  0.00    +0.120 C 
BRANCH  19  20
ATOM     20  C   UNL     1      -9.204  -9.285  13.892  0.00  0.00    +0.103 C 
BRANCH  20   8
ATOM      4  O   UNL     1     -11.109  -9.284  17.631  0.00  0.00    -0.377 OA
ATOM      8  N   UNL     1      -9.684  -9.711  15.204  0.00  0.00    -0.297 NA
ATOM     23  C   UNL     1     -11.153  -9.720  15.244  0.00  0.00    +0.112 C 
ATOM     24  C   UNL     1      -9.157  -8.838  16.261  0.00  0.00    +0.112 C 
ATOM     29  C   UNL     1     -11.631 -10.155  16.626  0.00  0.00    +0.175 C 
ATOM     30  C   UNL     1      -9.682  -9.295  17.620  0.00  0.00    +0.175 C 
ENDBRANCH  20   8
ENDBRANCH  19  20
ENDBRANCH   7  19
ENDBRANCH  16   7
ENDBRANCH  13  16
ENDBRANCH   9  13
BRANCH  10  15
ATOM     15  C   UNL     1      -7.951  -7.990   8.846  0.00  0.00    +0.124 C 
BRANCH  15  18
ATOM      3  O   UNL     1      -8.648  -5.697   8.400  0.00  0.00    -0.251 OA
ATOM     18  C   UNL     1      -8.124  -6.737   8.032  0.00  0.00    +0.305 C 
BRANCH  18   2
ATOM      2  O   UNL     1      -7.602  -6.922   6.792  0.00  0.00    -0.481 OA
ATOM     38  H   UNL     1      -7.134  -7.782   6.718  0.00  0.00    +0.295 HD
ENDBRANCH  18   2
ENDBRANCH  15  18
ENDBRANCH  10  15
TORSDOF 12
ENDMDL
