MODEL 1
REMARK VINA RESULT:      -7.2      0.000      0.000
REMARK  Name = 45360931
REMARK  10 active torsions:
REMARK  status: ('A' for Active; 'I' for Inactive)
REMARK    1  A    between atoms: O_4  and  C_31
REMARK    2  A    between atoms: O_4  and  C_32
REMARK    3  A    between atoms: N_5  and  C_16
REMARK    4  A    between atoms: N_6  and  C_18
REMARK    5  A    between atoms: N_8  and  C_25
REMARK    6  A    between atoms: C_13  and  C_17
REMARK    7  A    between atoms: C_16  and  C_20
REMARK    8  A    between atoms: C_17  and  C_19
REMARK    9  A    between atoms: C_19  and  C_21
REMARK   10  A    between atoms: C_25  and  C_26
REMARK                            x       y       z     vdW  Elec       q    Type
REMARK                         _______ _______ _______ _____ _____    ______ ____
ROOT
ATOM      2  O   UNL     1      -6.387 -10.216  20.227  0.00  0.00    -0.274 OA
ATOM      5  N   UNL     1      -8.524 -10.941  18.744  0.00  0.00    -0.285 NA
ATOM      6  N   UNL     1      -5.728 -10.510  16.423  0.00  0.00    -0.296 NA
ATOM      7  N   UNL     1      -4.878 -11.439  19.019  0.00  0.00    -0.312 N 
ATOM      9  C   UNL     1      -7.029 -11.080  16.837  0.00  0.00    +0.084 C 
ATOM     10  C   UNL     1      -7.220 -11.489  18.328  0.00  0.00    +0.161 C 
ATOM     11  C   UNL     1      -8.226 -10.137  16.609  0.00  0.00    +0.036 C 
ATOM     12  C   UNL     1      -9.291 -10.692  17.530  0.00  0.00    +0.087 C 
ATOM     13  C   UNL     1      -4.575 -11.442  16.561  0.00  0.00    +0.074 C 
ATOM     14  C   UNL     1      -6.149 -10.966  19.283  0.00  0.00    +0.232 C 
ATOM     15  C   UNL     1      -4.552 -12.257  17.869  0.00  0.00    +0.123 C 
ATOM     18  C   UNL     1      -5.799  -9.985  15.049  0.00  0.00    +0.105 C 
ATOM     33  H   UNL     1      -4.123 -11.148  19.632  0.00  0.00    +0.149 HD
ENDROOT
BRANCH   5  16
ATOM     16  C   UNL     1      -9.240 -11.802  19.678  0.00  0.00    +0.127 C 
BRANCH  16  20
ATOM      1  S   UNL     1     -11.956 -12.377  19.776  0.00  0.00    -0.100 S 
ATOM     20  C   UNL     1     -10.631 -11.305  19.947  0.00  0.00    +0.004 A 
ATOM     22  C   UNL     1     -11.032 -10.046  20.333  0.00  0.00    +0.012 A 
ATOM     23  C   UNL     1     -12.445  -9.958  20.490  0.00  0.00    +0.008 A 
ATOM     24  C   UNL     1     -13.070 -11.155  20.218  0.00  0.00    +0.045 A 
ENDBRANCH  16  20
ENDBRANCH   5  16
BRANCH  13  17
ATOM     17  C   UNL     1      -3.242 -10.669  16.473  0.00  0.00    +0.029 C 
BRANCH  17  19
ATOM     19  C   UNL     1      -2.273 -11.375  15.542  0.00  0.00    +0.097 C 
BRANCH  19  21
ATOM      3  O   UNL     1      -1.103  -9.425  14.713  0.00  0.00    -0.276 OA
ATOM      8  N   UNL     1      -2.089 -10.881  13.196  0.00  0.00    -0.311 N 
ATOM     21  C   UNL     1      -1.748 -10.441  14.468  0.00  0.00    +0.213 C 
ATOM     34  H   UNL     1      -2.648 -11.720  13.081  0.00  0.00    +0.149 HD
BRANCH   8  25
ATOM     25  C   UNL     1      -1.706 -10.162  12.004  0.00  0.00    +0.139 C 
BRANCH  25  26
ATOM     26  C   UNL     1      -2.765 -10.229  10.942  0.00  0.00    -0.030 A 
ATOM     27  C   UNL     1      -3.101  -9.087  10.216  0.00  0.00    +0.009 A 
ATOM     28  C   UNL     1      -3.416 -11.437  10.684  0.00  0.00    +0.009 A 
ATOM     29  C   UNL     1      -4.085  -9.151   9.230  0.00  0.00    +0.046 A 
ATOM     30  C   UNL     1      -4.400 -11.501   9.698  0.00  0.00    +0.046 A 
ATOM     31  C   UNL     1      -4.736 -10.358   8.971  0.00  0.00    +0.120 A 
BRANCH  31   4
ATOM      4  O   UNL     1      -5.696 -10.422   8.009  0.00  0.00    -0.495 OA
ATOM     32  C   UNL     1      -5.270 -10.744   6.686  0.00  0.00    +0.277 C 
ENDBRANCH  31   4
ENDBRANCH  25  26
ENDBRANCH   8  25
ENDBRANCH  19  21
ENDBRANCH  17  19
ENDBRANCH  13  17
TORSDOF 8
ENDMDL
MODEL 2
REMARK VINA RESULT:      -7.0      3.186      8.596
REMARK  Name = 45360931
REMARK  10 active torsions:
REMARK  status: ('A' for Active; 'I' for Inactive)
REMARK    1  A    between atoms: O_4  and  C_31
REMARK    2  A    between atoms: O_4  and  C_32
REMARK    3  A    between atoms: N_5  and  C_16
REMARK    4  A    between atoms: N_6  and  C_18
REMARK    5  A    between atoms: N_8  and  C_25
REMARK    6  A    between atoms: C_13  and  C_17
REMARK    7  A    between atoms: C_16  and  C_20
REMARK    8  A    between atoms: C_17  and  C_19
REMARK    9  A    between atoms: C_19  and  C_21
REMARK   10  A    between atoms: C_25  and  C_26
REMARK                            x       y       z     vdW  Elec       q    Type
REMARK                         _______ _______ _______ _____ _____    ______ ____
ROOT
ATOM      2  O   UNL     1      -6.001  -9.488  13.367  0.00  0.00    -0.274 OA
ATOM      5  N   UNL     1      -3.904 -10.599  12.079  0.00  0.00    -0.285 NA
ATOM      6  N   UNL     1      -3.186 -10.830  15.660  0.00  0.00    -0.296 NA
ATOM      7  N   UNL     1      -6.008 -10.999  15.085  0.00  0.00    -0.312 N 
ATOM      9  C   UNL     1      -3.049 -11.263  14.252  0.00  0.00    +0.084 C 
ATOM     10  C   UNL     1      -4.313 -11.240  13.343  0.00  0.00    +0.161 C 
ATOM     11  C   UNL     1      -2.052 -10.422  13.433  0.00  0.00    +0.036 C 
ATOM     12  C   UNL     1      -2.451 -10.698  12.000  0.00  0.00    +0.087 C 
ATOM     13  C   UNL     1      -4.084 -11.687  16.484  0.00  0.00    +0.074 C 
ATOM     14  C   UNL     1      -5.504 -10.472  13.911  0.00  0.00    +0.232 C 
ATOM     15  C   UNL     1      -5.396 -12.105  15.792  0.00  0.00    +0.123 C 
ATOM     18  C   UNL     1      -1.866 -10.709  16.302  0.00  0.00    +0.105 C 
ATOM     33  H   UNL     1      -6.815 -10.548  15.503  0.00  0.00    +0.149 HD
ENDROOT
BRANCH   5  16
ATOM     16  C   UNL     1      -4.557 -11.165  10.906  0.00  0.00    +0.127 C 
BRANCH  16  20
ATOM      1  S   UNL     1      -6.492 -10.605   8.993  0.00  0.00    -0.100 S 
ATOM     20  C   UNL     1      -5.288 -10.122  10.111  0.00  0.00    +0.004 A 
ATOM     22  C   UNL     1      -5.131  -8.755  10.142  0.00  0.00    +0.012 A 
ATOM     23  C   UNL     1      -6.010  -8.095   9.236  0.00  0.00    +0.008 A 
ATOM     24  C   UNL     1      -6.806  -8.983   8.548  0.00  0.00    +0.045 A 
ENDBRANCH  16  20
ENDBRANCH   5  16
BRANCH  13  17
ATOM     17  C   UNL     1      -4.460 -10.969  17.797  0.00  0.00    +0.029 C 
BRANCH  17  19
ATOM     19  C   UNL     1      -4.909 -11.969  18.846  0.00  0.00    +0.097 C 
BRANCH  19  21
ATOM      3  O   UNL     1      -6.088 -11.070  20.759  0.00  0.00    -0.276 OA
ATOM      8  N   UNL     1      -7.276 -11.549  18.823  0.00  0.00    -0.311 N 
ATOM     21  C   UNL     1      -6.129 -11.478  19.601  0.00  0.00    +0.213 C 
ATOM     34  H   UNL     1      -7.228 -11.923  17.880  0.00  0.00    +0.149 HD
BRANCH   8  25
ATOM     25  C   UNL     1      -8.570 -11.140  19.316  0.00  0.00    +0.139 C 
BRANCH  25  26
ATOM     26  C   UNL     1      -9.240 -10.164  18.394  0.00  0.00    -0.030 A 
ATOM     27  C   UNL     1      -8.511  -9.554  17.373  0.00  0.00    +0.009 A 
ATOM     28  C   UNL     1     -10.594  -9.867  18.558  0.00  0.00    +0.009 A 
ATOM     29  C   UNL     1      -9.135  -8.647  16.516  0.00  0.00    +0.046 A 
ATOM     30  C   UNL     1     -11.218  -8.960  17.701  0.00  0.00    +0.046 A 
ATOM     31  C   UNL     1     -10.488  -8.350  16.681  0.00  0.00    +0.120 A 
BRANCH  31   4
ATOM      4  O   UNL     1     -11.098  -7.466  15.845  0.00  0.00    -0.495 OA
ATOM     32  C   UNL     1     -11.101  -6.095  16.239  0.00  0.00    +0.277 C 
ENDBRANCH  31   4
ENDBRANCH  25  26
ENDBRANCH   8  25
ENDBRANCH  19  21
ENDBRANCH  17  19
ENDBRANCH  13  17
TORSDOF 8
ENDMDL
MODEL 3
REMARK VINA RESULT:      -6.9      1.777      2.449
REMARK  Name = 45360931
REMARK  10 active torsions:
REMARK  status: ('A' for Active; 'I' for Inactive)
REMARK    1  A    between atoms: O_4  and  C_31
REMARK    2  A    between atoms: O_4  and  C_32
REMARK    3  A    between atoms: N_5  and  C_16
REMARK    4  A    between atoms: N_6  and  C_18
REMARK    5  A    between atoms: N_8  and  C_25
REMARK    6  A    between atoms: C_13  and  C_17
REMARK    7  A    between atoms: C_16  and  C_20
REMARK    8  A    between atoms: C_17  and  C_19
REMARK    9  A    between atoms: C_19  and  C_21
REMARK   10  A    between atoms: C_25  and  C_26
REMARK                            x       y       z     vdW  Elec       q    Type
REMARK                         _______ _______ _______ _____ _____    ______ ____
ROOT
ATOM      2  O   UNL     1      -8.699 -10.910  15.539  0.00  0.00    -0.274 OA
ATOM      5  N   UNL     1      -9.162 -10.532  18.173  0.00  0.00    -0.285 NA
ATOM      6  N   UNL     1      -5.646 -11.496  17.848  0.00  0.00    -0.296 NA
ATOM      7  N   UNL     1      -6.599 -10.002  15.571  0.00  0.00    -0.312 N 
ATOM      9  C   UNL     1      -6.781 -10.840  18.534  0.00  0.00    +0.084 C 
ATOM     10  C   UNL     1      -7.845 -10.101  17.670  0.00  0.00    +0.161 C 
ATOM     11  C   UNL     1      -7.655 -11.804  19.359  0.00  0.00    +0.036 C 
ATOM     12  C   UNL     1      -8.957 -11.049  19.521  0.00  0.00    +0.087 C 
ATOM     13  C   UNL     1      -4.746 -10.562  17.116  0.00  0.00    +0.074 C 
ATOM     14  C   UNL     1      -7.779 -10.396  16.173  0.00  0.00    +0.232 C 
ATOM     15  C   UNL     1      -5.467  -9.469  16.302  0.00  0.00    +0.123 C 
ATOM     18  C   UNL     1      -4.870 -12.321  18.789  0.00  0.00    +0.105 C 
ATOM     33  H   UNL     1      -6.500 -10.149  14.571  0.00  0.00    +0.149 HD
ENDROOT
BRANCH   5  16
ATOM     16  C   UNL     1     -10.168  -9.478  18.137  0.00  0.00    +0.127 C 
BRANCH  16  20
ATOM      1  S   UNL     1     -12.027 -11.286  17.143  0.00  0.00    -0.100 S 
ATOM     20  C   UNL     1     -11.562 -10.029  18.209  0.00  0.00    +0.004 A 
ATOM     22  C   UNL     1     -12.589  -9.657  19.048  0.00  0.00    +0.012 A 
ATOM     23  C   UNL     1     -13.772 -10.415  18.814  0.00  0.00    +0.008 A 
ATOM     24  C   UNL     1     -13.605 -11.336  17.804  0.00  0.00    +0.045 A 
ENDBRANCH  16  20
ENDBRANCH   5  16
BRANCH  13  17
ATOM     17  C   UNL     1      -3.836 -11.341  16.143  0.00  0.00    +0.029 C 
BRANCH  17  19
ATOM     19  C   UNL     1      -2.403 -10.851  16.241  0.00  0.00    +0.097 C 
BRANCH  19  21
ATOM      3  O   UNL     1      -1.038  -9.531  14.741  0.00  0.00    -0.276 OA
ATOM      8  N   UNL     1      -2.414 -11.180  13.859  0.00  0.00    -0.311 N 
ATOM     21  C   UNL     1      -1.862 -10.429  14.888  0.00  0.00    +0.213 C 
ATOM     34  H   UNL     1      -3.110 -11.889  14.065  0.00  0.00    +0.149 HD
BRANCH   8  25
ATOM     25  C   UNL     1      -2.061 -10.968  12.475  0.00  0.00    +0.139 C 
BRANCH  25  26
ATOM     26  C   UNL     1      -3.134 -10.230  11.729  0.00  0.00    -0.030 A 
ATOM     27  C   UNL     1      -2.842  -9.613  10.513  0.00  0.00    +0.009 A 
ATOM     28  C   UNL     1      -4.426 -10.162  12.253  0.00  0.00    +0.009 A 
ATOM     29  C   UNL     1      -3.840  -8.928   9.820  0.00  0.00    +0.046 A 
ATOM     30  C   UNL     1      -5.425  -9.476  11.560  0.00  0.00    +0.046 A 
ATOM     31  C   UNL     1      -5.131  -8.859  10.344  0.00  0.00    +0.120 A 
BRANCH  31   4
ATOM      4  O   UNL     1      -6.105  -8.191   9.668  0.00  0.00    -0.495 OA
ATOM     32  C   UNL     1      -6.697  -8.858   8.554  0.00  0.00    +0.277 C 
ENDBRANCH  31   4
ENDBRANCH  25  26
ENDBRANCH   8  25
ENDBRANCH  19  21
ENDBRANCH  17  19
ENDBRANCH  13  17
TORSDOF 8
ENDMDL
MODEL 4
REMARK VINA RESULT:      -6.8      2.849      3.519
REMARK  Name = 45360931
REMARK  10 active torsions:
REMARK  status: ('A' for Active; 'I' for Inactive)
REMARK    1  A    between atoms: O_4  and  C_31
REMARK    2  A    between atoms: O_4  and  C_32
REMARK    3  A    between atoms: N_5  and  C_16
REMARK    4  A    between atoms: N_6  and  C_18
REMARK    5  A    between atoms: N_8  and  C_25
REMARK    6  A    between atoms: C_13  and  C_17
REMARK    7  A    between atoms: C_16  and  C_20
REMARK    8  A    between atoms: C_17  and  C_19
REMARK    9  A    between atoms: C_19  and  C_21
REMARK   10  A    between atoms: C_25  and  C_26
REMARK                            x       y       z     vdW  Elec       q    Type
REMARK                         _______ _______ _______ _____ _____    ______ ____
ROOT
ATOM      2  O   UNL     1      -8.549  -9.549  14.894  0.00  0.00    -0.274 OA
ATOM      5  N   UNL     1      -9.506  -9.262  17.403  0.00  0.00    -0.285 NA
ATOM      6  N   UNL     1      -6.649 -11.539  17.619  0.00  0.00    -0.296 NA
ATOM      7  N   UNL     1      -6.349  -9.583  15.520  0.00  0.00    -0.312 N 
ATOM      9  C   UNL     1      -7.594 -10.545  18.173  0.00  0.00    +0.084 C 
ATOM     10  C   UNL     1      -8.041  -9.359  17.267  0.00  0.00    +0.161 C 
ATOM     11  C   UNL     1      -8.946 -11.141  18.607  0.00  0.00    +0.036 C 
ATOM     12  C   UNL     1      -9.867  -9.940  18.642  0.00  0.00    +0.087 C 
ATOM     13  C   UNL     1      -5.309 -10.989  17.273  0.00  0.00    +0.074 C 
ATOM     14  C   UNL     1      -7.703  -9.516  15.786  0.00  0.00    +0.232 C 
ATOM     15  C   UNL     1      -5.332  -9.627  16.552  0.00  0.00    +0.123 C 
ATOM     18  C   UNL     1      -6.510 -12.692  18.525  0.00  0.00    +0.105 C 
ATOM     33  H   UNL     1      -6.055  -9.664  14.551  0.00  0.00    +0.149 HD
ENDROOT
BRANCH   5  16
ATOM     16  C   UNL     1     -10.000  -7.891  17.364  0.00  0.00    +0.127 C 
BRANCH  16  20
ATOM      1  S   UNL     1     -11.165  -6.210  15.486  0.00  0.00    -0.100 S 
ATOM     20  C   UNL     1     -11.057  -7.704  16.316  0.00  0.00    +0.004 A 
ATOM     22  C   UNL     1     -12.013  -8.600  15.893  0.00  0.00    +0.012 A 
ATOM     23  C   UNL     1     -12.845  -8.054  14.873  0.00  0.00    +0.008 A 
ATOM     24  C   UNL     1     -12.494  -6.761  14.557  0.00  0.00    +0.045 A 
ENDBRANCH  16  20
ENDBRANCH   5  16
BRANCH  13  17
ATOM     17  C   UNL     1      -4.536 -11.977  16.375  0.00  0.00    +0.029 C 
BRANCH  17  19
ATOM     19  C   UNL     1      -3.203 -11.387  15.952  0.00  0.00    +0.097 C 
BRANCH  19  21
ATOM      3  O   UNL     1      -2.829 -12.853  14.063  0.00  0.00    -0.276 OA
ATOM      8  N   UNL     1      -2.666 -10.557  13.760  0.00  0.00    -0.311 N 
ATOM     21  C   UNL     1      -2.883 -11.709  14.504  0.00  0.00    +0.213 C 
ATOM     34  H   UNL     1      -2.706  -9.647  14.208  0.00  0.00    +0.149 HD
BRANCH   8  25
ATOM     25  C   UNL     1      -2.343 -10.598  12.353  0.00  0.00    +0.139 C 
BRANCH  25  26
ATOM     26  C   UNL     1      -3.413  -9.964  11.513  0.00  0.00    -0.030 A 
ATOM     27  C   UNL     1      -3.100  -9.452  10.254  0.00  0.00    +0.009 A 
ATOM     28  C   UNL     1      -4.721  -9.887  11.993  0.00  0.00    +0.009 A 
ATOM     29  C   UNL     1      -4.095  -8.863   9.474  0.00  0.00    +0.046 A 
ATOM     30  C   UNL     1      -5.716  -9.297  11.213  0.00  0.00    +0.046 A 
ATOM     31  C   UNL     1      -5.403  -8.785   9.953  0.00  0.00    +0.120 A 
BRANCH  31   4
ATOM      4  O   UNL     1      -6.374  -8.211   9.193  0.00  0.00    -0.495 OA
ATOM     32  C   UNL     1      -6.828  -8.944   8.056  0.00  0.00    +0.277 C 
ENDBRANCH  31   4
ENDBRANCH  25  26
ENDBRANCH   8  25
ENDBRANCH  19  21
ENDBRANCH  17  19
ENDBRANCH  13  17
TORSDOF 8
ENDMDL
MODEL 5
REMARK VINA RESULT:      -6.6     19.558     20.974
REMARK  Name = 45360931
REMARK  10 active torsions:
REMARK  status: ('A' for Active; 'I' for Inactive)
REMARK    1  A    between atoms: O_4  and  C_31
REMARK    2  A    between atoms: O_4  and  C_32
REMARK    3  A    between atoms: N_5  and  C_16
REMARK    4  A    between atoms: N_6  and  C_18
REMARK    5  A    between atoms: N_8  and  C_25
REMARK    6  A    between atoms: C_13  and  C_17
REMARK    7  A    between atoms: C_16  and  C_20
REMARK    8  A    between atoms: C_17  and  C_19
REMARK    9  A    between atoms: C_19  and  C_21
REMARK   10  A    between atoms: C_25  and  C_26
REMARK                            x       y       z     vdW  Elec       q    Type
REMARK                         _______ _______ _______ _____ _____    ______ ____
ROOT
ATOM      2  O   UNL     1     -16.804   4.965  28.297  0.00  0.00    -0.274 OA
ATOM      5  N   UNL     1     -15.812   2.707  29.396  0.00  0.00    -0.285 NA
ATOM      6  N   UNL     1     -17.480   1.724  26.290  0.00  0.00    -0.296 NA
ATOM      7  N   UNL     1     -16.330   4.365  26.140  0.00  0.00    -0.312 N 
ATOM      9  C   UNL     1     -16.491   1.544  27.376  0.00  0.00    +0.084 C 
ATOM     10  C   UNL     1     -15.755   2.801  27.925  0.00  0.00    +0.161 C 
ATOM     11  C   UNL     1     -17.079   0.931  28.661  0.00  0.00    +0.036 C 
ATOM     12  C   UNL     1     -16.071   1.310  29.725  0.00  0.00    +0.087 C 
ATOM     13  C   UNL     1     -16.907   2.236  25.014  0.00  0.00    +0.074 C 
ATOM     14  C   UNL     1     -16.358   4.139  27.503  0.00  0.00    +0.232 C 
ATOM     15  C   UNL     1     -15.887   3.381  25.174  0.00  0.00    +0.123 C 
ATOM     18  C   UNL     1     -18.227   0.478  26.050  0.00  0.00    +0.105 C 
ATOM     33  H   UNL     1     -16.696   5.248  25.795  0.00  0.00    +0.149 HD
ENDROOT
BRANCH   5  16
ATOM     16  C   UNL     1     -14.614   3.213  30.054  0.00  0.00    +0.127 C 
BRANCH  16  20
ATOM      1  S   UNL     1     -16.253   4.442  31.930  0.00  0.00    -0.100 S 
ATOM     20  C   UNL     1     -14.862   3.541  31.498  0.00  0.00    +0.004 A 
ATOM     22  C   UNL     1     -14.099   3.211  32.595  0.00  0.00    +0.012 A 
ATOM     23  C   UNL     1     -14.663   3.704  33.807  0.00  0.00    +0.008 A 
ATOM     24  C   UNL     1     -15.836   4.392  33.589  0.00  0.00    +0.045 A 
ENDBRANCH  16  20
ENDBRANCH   5  16
BRANCH  13  17
ATOM     17  C   UNL     1     -18.030   2.742  24.084  0.00  0.00    +0.029 C 
BRANCH  17  19
ATOM     19  C   UNL     1     -17.940   2.073  22.724  0.00  0.00    +0.097 C 
BRANCH  19  21
ATOM      3  O   UNL     1     -18.285   2.889  20.471  0.00  0.00    -0.276 OA
ATOM      8  N   UNL     1     -17.243   4.265  22.024  0.00  0.00    -0.311 N 
ATOM     21  C   UNL     1     -17.857   3.093  21.604  0.00  0.00    +0.213 C 
ATOM     34  H   UNL     1     -16.893   4.344  22.974  0.00  0.00    +0.149 HD
BRANCH   8  25
ATOM     25  C   UNL     1     -17.043   5.390  21.140  0.00  0.00    +0.139 C 
BRANCH  25  26
ATOM     26  C   UNL     1     -15.612   5.843  21.123  0.00  0.00    -0.030 A 
ATOM     27  C   UNL     1     -15.234   6.935  20.342  0.00  0.00    +0.009 A 
ATOM     28  C   UNL     1     -14.659   5.170  21.890  0.00  0.00    +0.009 A 
ATOM     29  C   UNL     1     -13.903   7.355  20.328  0.00  0.00    +0.046 A 
ATOM     30  C   UNL     1     -13.329   5.590  21.876  0.00  0.00    +0.046 A 
ATOM     31  C   UNL     1     -12.951   6.683  21.094  0.00  0.00    +0.120 A 
BRANCH  31   4
ATOM      4  O   UNL     1     -11.654   7.092  21.081  0.00  0.00    -0.495 OA
ATOM     32  C   UNL     1     -11.216   7.827  19.939  0.00  0.00    +0.277 C 
ENDBRANCH  31   4
ENDBRANCH  25  26
ENDBRANCH   8  25
ENDBRANCH  19  21
ENDBRANCH  17  19
ENDBRANCH  13  17
TORSDOF 8
ENDMDL
MODEL 6
REMARK VINA RESULT:      -6.6     19.132     22.598
REMARK  Name = 45360931
REMARK  10 active torsions:
REMARK  status: ('A' for Active; 'I' for Inactive)
REMARK    1  A    between atoms: O_4  and  C_31
REMARK    2  A    between atoms: O_4  and  C_32
REMARK    3  A    between atoms: N_5  and  C_16
REMARK    4  A    between atoms: N_6  and  C_18
REMARK    5  A    between atoms: N_8  and  C_25
REMARK    6  A    between atoms: C_13  and  C_17
REMARK    7  A    between atoms: C_16  and  C_20
REMARK    8  A    between atoms: C_17  and  C_19
REMARK    9  A    between atoms: C_19  and  C_21
REMARK   10  A    between atoms: C_25  and  C_26
REMARK                            x       y       z     vdW  Elec       q    Type
REMARK                         _______ _______ _______ _____ _____    ______ ____
ROOT
ATOM      2  O   UNL     1     -14.650   4.956  21.175  0.00  0.00    -0.274 OA
ATOM      5  N   UNL     1     -15.282   7.391  22.156  0.00  0.00    -0.285 NA
ATOM      6  N   UNL     1     -17.608   5.007  23.673  0.00  0.00    -0.296 NA
ATOM      7  N   UNL     1     -15.022   3.844  23.140  0.00  0.00    -0.312 N 
ATOM      9  C   UNL     1     -16.851   6.278  23.637  0.00  0.00    +0.084 C 
ATOM     10  C   UNL     1     -15.392   6.258  23.093  0.00  0.00    +0.161 C 
ATOM     11  C   UNL     1     -17.501   7.369  22.765  0.00  0.00    +0.036 C 
ATOM     12  C   UNL     1     -16.359   8.320  22.480  0.00  0.00    +0.087 C 
ATOM     13  C   UNL     1     -17.033   3.974  24.579  0.00  0.00    +0.074 C 
ATOM     14  C   UNL     1     -14.996   4.981  22.355  0.00  0.00    +0.232 C 
ATOM     15  C   UNL     1     -15.501   3.827  24.507  0.00  0.00    +0.123 C 
ATOM     18  C   UNL     1     -19.022   5.249  24.006  0.00  0.00    +0.105 C 
ATOM     33  H   UNL     1     -14.747   2.964  22.716  0.00  0.00    +0.149 HD
ENDROOT
BRANCH   5  16
ATOM     16  C   UNL     1     -13.976   8.037  22.181  0.00  0.00    +0.127 C 
BRANCH  16  20
ATOM      1  S   UNL     1     -13.954   8.233  19.410  0.00  0.00    -0.100 S 
ATOM     20  C   UNL     1     -13.219   7.823  20.902  0.00  0.00    +0.004 A 
ATOM     22  C   UNL     1     -11.950   7.318  20.731  0.00  0.00    +0.012 A 
ATOM     23  C   UNL     1     -11.575   7.266  19.357  0.00  0.00    +0.008 A 
ATOM     24  C   UNL     1     -12.573   7.734  18.531  0.00  0.00    +0.045 A 
ENDBRANCH  16  20
ENDBRANCH   5  16
BRANCH  13  17
ATOM     17  C   UNL     1     -17.647   2.591  24.276  0.00  0.00    +0.029 C 
BRANCH  17  19
ATOM     19  C   UNL     1     -16.776   1.483  24.840  0.00  0.00    +0.097 C 
BRANCH  19  21
ATOM      3  O   UNL     1     -18.329   0.045  26.014  0.00  0.00    -0.276 OA
ATOM      8  N   UNL     1     -16.798   1.291  27.237  0.00  0.00    -0.311 N 
ATOM     21  C   UNL     1     -17.402   0.848  26.068  0.00  0.00    +0.213 C 
ATOM     34  H   UNL     1     -16.052   1.978  27.195  0.00  0.00    +0.149 HD
BRANCH   8  25
ATOM     25  C   UNL     1     -17.217   0.834  28.541  0.00  0.00    +0.139 C 
BRANCH  25  26
ATOM     26  C   UNL     1     -16.298   1.316  29.626  0.00  0.00    -0.030 A 
ATOM     27  C   UNL     1     -16.241   2.674  29.941  0.00  0.00    +0.009 A 
ATOM     28  C   UNL     1     -15.501   0.405  30.320  0.00  0.00    +0.009 A 
ATOM     29  C   UNL     1     -15.387   3.120  30.950  0.00  0.00    +0.046 A 
ATOM     30  C   UNL     1     -14.647   0.851  31.329  0.00  0.00    +0.046 A 
ATOM     31  C   UNL     1     -14.590   2.209  31.643  0.00  0.00    +0.120 A 
BRANCH  31   4
ATOM      4  O   UNL     1     -13.757   2.645  32.628  0.00  0.00    -0.495 OA
ATOM     32  C   UNL     1     -14.196   3.757  33.405  0.00  0.00    +0.277 C 
ENDBRANCH  31   4
ENDBRANCH  25  26
ENDBRANCH   8  25
ENDBRANCH  19  21
ENDBRANCH  17  19
ENDBRANCH  13  17
TORSDOF 8
ENDMDL
MODEL 7
REMARK VINA RESULT:      -6.6     20.234     21.746
REMARK  Name = 45360931
REMARK  10 active torsions:
REMARK  status: ('A' for Active; 'I' for Inactive)
REMARK    1  A    between atoms: O_4  and  C_31
REMARK    2  A    between atoms: O_4  and  C_32
REMARK    3  A    between atoms: N_5  and  C_16
REMARK    4  A    between atoms: N_6  and  C_18
REMARK    5  A    between atoms: N_8  and  C_25
REMARK    6  A    between atoms: C_13  and  C_17
REMARK    7  A    between atoms: C_16  and  C_20
REMARK    8  A    between atoms: C_17  and  C_19
REMARK    9  A    between atoms: C_19  and  C_21
REMARK   10  A    between atoms: C_25  and  C_26
REMARK                            x       y       z     vdW  Elec       q    Type
REMARK                         _______ _______ _______ _____ _____    ______ ____
ROOT
ATOM      2  O   UNL     1     -12.286   5.838  21.610  0.00  0.00    -0.274 OA
ATOM      5  N   UNL     1     -14.517   7.239  22.206  0.00  0.00    -0.285 NA
ATOM      6  N   UNL     1     -12.151   9.605  20.724  0.00  0.00    -0.296 NA
ATOM      7  N   UNL     1     -11.873   6.943  19.649  0.00  0.00    -0.312 N 
ATOM      9  C   UNL     1     -13.510   9.135  21.073  0.00  0.00    +0.084 C 
ATOM     10  C   UNL     1     -13.820   7.613  20.961  0.00  0.00    +0.161 C 
ATOM     11  C   UNL     1     -13.923   9.439  22.526  0.00  0.00    +0.036 C 
ATOM     12  C   UNL     1     -15.054   8.466  22.782  0.00  0.00    +0.087 C 
ATOM     13  C   UNL     1     -11.773   9.392  19.299  0.00  0.00    +0.074 C 
ATOM     14  C   UNL     1     -12.596   6.714  20.804  0.00  0.00    +0.232 C 
ATOM     15  C   UNL     1     -12.164   8.018  18.722  0.00  0.00    +0.123 C 
ATOM     18  C   UNL     1     -11.975  11.020  21.093  0.00  0.00    +0.105 C 
ATOM     33  H   UNL     1     -11.059   6.362  19.472  0.00  0.00    +0.149 HD
ENDROOT
BRANCH   5  16
ATOM     16  C   UNL     1     -15.549   6.228  22.009  0.00  0.00    +0.127 C 
BRANCH  16  20
ATOM      1  S   UNL     1     -17.014   5.729  24.315  0.00  0.00    -0.100 S 
ATOM     20  C   UNL     1     -15.739   5.374  23.228  0.00  0.00    +0.004 A 
ATOM     22  C   UNL     1     -15.003   4.283  23.634  0.00  0.00    +0.012 A 
ATOM     23  C   UNL     1     -15.492   3.732  24.853  0.00  0.00    +0.008 A 
ATOM     24  C   UNL     1     -16.583   4.422  25.333  0.00  0.00    +0.045 A 
ENDBRANCH  16  20
ENDBRANCH   5  16
BRANCH  13  17
ATOM     17  C   UNL     1     -10.250   9.557  19.116  0.00  0.00    +0.029 C 
BRANCH  17  19
ATOM     19  C   UNL     1      -9.871   9.444  17.650  0.00  0.00    +0.097 C 
BRANCH  19  21
ATOM      3  O   UNL     1     -10.902  10.822  15.948  0.00  0.00    -0.276 OA
ATOM      8  N   UNL     1      -9.406  11.793  17.434  0.00  0.00    -0.311 N 
ATOM     21  C   UNL     1     -10.135  10.738  16.903  0.00  0.00    +0.213 C 
ATOM     34  H   UNL     1      -8.773  11.633  18.211  0.00  0.00    +0.149 HD
BRANCH   8  25
ATOM     25  C   UNL     1      -9.483  13.131  16.896  0.00  0.00    +0.139 C 
BRANCH  25  26
ATOM     26  C   UNL     1      -8.325  13.440  15.992  0.00  0.00    -0.030 A 
ATOM     27  C   UNL     1      -7.019  13.329  16.467  0.00  0.00    +0.009 A 
ATOM     28  C   UNL     1      -8.557  13.840  14.675  0.00  0.00    +0.009 A 
ATOM     29  C   UNL     1      -5.944  13.616  15.626  0.00  0.00    +0.046 A 
ATOM     30  C   UNL     1      -7.482  14.128  13.834  0.00  0.00    +0.046 A 
ATOM     31  C   UNL     1      -6.175  14.016  14.310  0.00  0.00    +0.120 A 
BRANCH  31   4
ATOM      4  O   UNL     1      -5.127  14.296  13.489  0.00  0.00    -0.495 OA
ATOM     32  C   UNL     1      -5.344  14.153  12.086  0.00  0.00    +0.277 C 
ENDBRANCH  31   4
ENDBRANCH  25  26
ENDBRANCH   8  25
ENDBRANCH  19  21
ENDBRANCH  17  19
ENDBRANCH  13  17
TORSDOF 8
ENDMDL
MODEL 8
REMARK VINA RESULT:      -6.6     26.160     30.391
REMARK  Name = 45360931
REMARK  10 active torsions:
REMARK  status: ('A' for Active; 'I' for Inactive)
REMARK    1  A    between atoms: O_4  and  C_31
REMARK    2  A    between atoms: O_4  and  C_32
REMARK    3  A    between atoms: N_5  and  C_16
REMARK    4  A    between atoms: N_6  and  C_18
REMARK    5  A    between atoms: N_8  and  C_25
REMARK    6  A    between atoms: C_13  and  C_17
REMARK    7  A    between atoms: C_16  and  C_20
REMARK    8  A    between atoms: C_17  and  C_19
REMARK    9  A    between atoms: C_19  and  C_21
REMARK   10  A    between atoms: C_25  and  C_26
REMARK                            x       y       z     vdW  Elec       q    Type
REMARK                         _______ _______ _______ _____ _____    ______ ____
ROOT
ATOM      2  O   UNL     1      15.928   7.346   4.053  0.00  0.00    -0.274 OA
ATOM      5  N   UNL     1      17.049   9.311   5.528  0.00  0.00    -0.285 NA
ATOM      6  N   UNL     1      13.447   9.441   6.162  0.00  0.00    -0.296 NA
ATOM      7  N   UNL     1      14.381   6.763   5.635  0.00  0.00    -0.312 N 
ATOM      9  C   UNL     1      14.864   9.679   6.518  0.00  0.00    +0.084 C 
ATOM     10  C   UNL     1      15.916   8.594   6.142  0.00  0.00    +0.161 C 
ATOM     11  C   UNL     1      15.465  10.944   5.876  0.00  0.00    +0.036 C 
ATOM     12  C   UNL     1      16.958  10.702   5.954  0.00  0.00    +0.087 C 
ATOM     13  C   UNL     1      12.830   8.269   6.843  0.00  0.00    +0.074 C 
ATOM     14  C   UNL     1      15.426   7.533   5.160  0.00  0.00    +0.232 C 
ATOM     15  C   UNL     1      13.717   7.010   6.899  0.00  0.00    +0.123 C 
ATOM     18  C   UNL     1      12.639  10.650   6.393  0.00  0.00    +0.105 C 
ATOM     33  H   UNL     1      14.024   6.023   5.040  0.00  0.00    +0.149 HD
ENDROOT
BRANCH   5  16
ATOM     16  C   UNL     1      18.345   8.723   5.847  0.00  0.00    +0.127 C 
BRANCH  16  20
ATOM      1  S   UNL     1      18.827   9.225   3.158  0.00  0.00    -0.100 S 
ATOM     20  C   UNL     1      19.121   8.369   4.612  0.00  0.00    +0.004 A 
ATOM     22  C   UNL     1      20.090   7.404   4.455  0.00  0.00    +0.012 A 
ATOM     23  C   UNL     1      20.599   7.367   3.125  0.00  0.00    +0.008 A 
ATOM     24  C   UNL     1      19.998   8.305   2.315  0.00  0.00    +0.045 A 
ENDBRANCH  16  20
ENDBRANCH   5  16
BRANCH  13  17
ATOM     17  C   UNL     1      11.509   7.876   6.148  0.00  0.00    +0.029 C 
BRANCH  17  19
ATOM     19  C   UNL     1      10.913   6.637   6.790  0.00  0.00    +0.097 C 
BRANCH  19  21
ATOM      3  O   UNL     1       9.778   4.645   6.014  0.00  0.00    -0.276 OA
ATOM      8  N   UNL     1      10.919   5.964   4.482  0.00  0.00    -0.311 N 
ATOM     21  C   UNL     1      10.462   5.629   5.749  0.00  0.00    +0.213 C 
ATOM     34  H   UNL     1      11.502   6.785   4.352  0.00  0.00    +0.149 HD
BRANCH   8  25
ATOM     25  C   UNL     1      10.624   5.160   3.319  0.00  0.00    +0.139 C 
BRANCH  25  26
ATOM     26  C   UNL     1      11.866   4.787   2.565  0.00  0.00    -0.030 A 
ATOM     27  C   UNL     1      12.851   5.744   2.322  0.00  0.00    +0.009 A 
ATOM     28  C   UNL     1      12.036   3.480   2.105  0.00  0.00    +0.009 A 
ATOM     29  C   UNL     1      14.005   5.396   1.621  0.00  0.00    +0.046 A 
ATOM     30  C   UNL     1      13.190   3.131   1.404  0.00  0.00    +0.046 A 
ATOM     31  C   UNL     1      14.175   4.090   1.161  0.00  0.00    +0.120 A 
BRANCH  31   4
ATOM      4  O   UNL     1      15.301   3.749   0.477  0.00  0.00    -0.495 OA
ATOM     32  C   UNL     1      16.061   4.812  -0.094  0.00  0.00    +0.277 C 
ENDBRANCH  31   4
ENDBRANCH  25  26
ENDBRANCH   8  25
ENDBRANCH  19  21
ENDBRANCH  17  19
ENDBRANCH  13  17
TORSDOF 8
ENDMDL
MODEL 9
REMARK VINA RESULT:      -6.5      4.804      7.926
REMARK  Name = 45360931
REMARK  10 active torsions:
REMARK  status: ('A' for Active; 'I' for Inactive)
REMARK    1  A    between atoms: O_4  and  C_31
REMARK    2  A    between atoms: O_4  and  C_32
REMARK    3  A    between atoms: N_5  and  C_16
REMARK    4  A    between atoms: N_6  and  C_18
REMARK    5  A    between atoms: N_8  and  C_25
REMARK    6  A    between atoms: C_13  and  C_17
REMARK    7  A    between atoms: C_16  and  C_20
REMARK    8  A    between atoms: C_17  and  C_19
REMARK    9  A    between atoms: C_19  and  C_21
REMARK   10  A    between atoms: C_25  and  C_26
REMARK                            x       y       z     vdW  Elec       q    Type
REMARK                         _______ _______ _______ _____ _____    ______ ____
ROOT
ATOM      2  O   UNL     1     -10.490  -8.378  13.842  0.00  0.00    -0.274 OA
ATOM      5  N   UNL     1     -12.380  -6.688  14.774  0.00  0.00    -0.285 NA
ATOM      6  N   UNL     1     -11.968  -9.306  17.299  0.00  0.00    -0.296 NA
ATOM      7  N   UNL     1      -9.519  -8.740  15.882  0.00  0.00    -0.312 N 
ATOM      9  C   UNL     1     -12.338  -7.945  16.851  0.00  0.00    +0.084 C 
ATOM     10  C   UNL     1     -11.452  -7.252  15.773  0.00  0.00    +0.161 C 
ATOM     11  C   UNL     1     -13.739  -7.855  16.219  0.00  0.00    +0.036 C 
ATOM     12  C   UNL     1     -13.683  -6.572  15.417  0.00  0.00    +0.087 C 
ATOM     13  C   UNL     1     -10.649  -9.391  17.987  0.00  0.00    +0.074 C 
ATOM     14  C   UNL     1     -10.470  -8.174  15.054  0.00  0.00    +0.232 C 
ATOM     15  C   UNL     1      -9.517  -8.584  17.322  0.00  0.00    +0.123 C 
ATOM     18  C   UNL     1     -13.024  -9.884  18.146  0.00  0.00    +0.105 C 
ATOM     33  H   UNL     1      -8.820  -9.346  15.462  0.00  0.00    +0.149 HD
ENDROOT
BRANCH   5  16
ATOM     16  C   UNL     1     -11.927  -5.420  14.217  0.00  0.00    +0.127 C 
BRANCH  16  20
ATOM      1  S   UNL     1     -12.825  -6.605  11.872  0.00  0.00    -0.100 S 
ATOM     20  C   UNL     1     -12.380  -5.236  12.798  0.00  0.00    +0.004 A 
ATOM     22  C   UNL     1     -12.499  -4.066  12.081  0.00  0.00    +0.012 A 
ATOM     23  C   UNL     1     -12.963  -4.297  10.754  0.00  0.00    +0.008 A 
ATOM     24  C   UNL     1     -13.179  -5.634  10.507  0.00  0.00    +0.045 A 
ENDBRANCH  16  20
ENDBRANCH   5  16
BRANCH  13  17
ATOM     17  C   UNL     1     -10.182 -10.858  18.079  0.00  0.00    +0.029 C 
BRANCH  17  19
ATOM     19  C   UNL     1      -9.806 -11.213  19.505  0.00  0.00    +0.097 C 
BRANCH  19  21
ATOM      3  O   UNL     1      -8.015 -12.811  19.820  0.00  0.00    -0.276 OA
ATOM      8  N   UNL     1      -7.486 -10.583  19.437  0.00  0.00    -0.311 N 
ATOM     21  C   UNL     1      -8.356 -11.651  19.609  0.00  0.00    +0.213 C 
ATOM     34  H   UNL     1      -7.852  -9.648  19.291  0.00  0.00    +0.149 HD
BRANCH   8  25
ATOM     25  C   UNL     1      -6.052 -10.742  19.492  0.00  0.00    +0.139 C 
BRANCH  25  26
ATOM     26  C   UNL     1      -5.427 -10.685  18.128  0.00  0.00    -0.030 A 
ATOM     27  C   UNL     1      -4.169 -11.246  17.912  0.00  0.00    +0.009 A 
ATOM     28  C   UNL     1      -6.107 -10.069  17.076  0.00  0.00    +0.009 A 
ATOM     29  C   UNL     1      -3.590 -11.192  16.644  0.00  0.00    +0.046 A 
ATOM     30  C   UNL     1      -5.528 -10.016  15.808  0.00  0.00    +0.046 A 
ATOM     31  C   UNL     1      -4.269 -10.577  15.593  0.00  0.00    +0.120 A 
BRANCH  31   4
ATOM      4  O   UNL     1      -3.705 -10.525  14.355  0.00  0.00    -0.495 OA
ATOM     32  C   UNL     1      -2.283 -10.620  14.285  0.00  0.00    +0.277 C 
ENDBRANCH  31   4
ENDBRANCH  25  26
ENDBRANCH   8  25
ENDBRANCH  19  21
ENDBRANCH  17  19
ENDBRANCH  13  17
TORSDOF 8
ENDMDL
MODEL 10
REMARK VINA RESULT:      -6.4     27.633     30.294
REMARK  Name = 45360931
REMARK  10 active torsions:
REMARK  status: ('A' for Active; 'I' for Inactive)
REMARK    1  A    between atoms: O_4  and  C_31
REMARK    2  A    between atoms: O_4  and  C_32
REMARK    3  A    between atoms: N_5  and  C_16
REMARK    4  A    between atoms: N_6  and  C_18
REMARK    5  A    between atoms: N_8  and  C_25
REMARK    6  A    between atoms: C_13  and  C_17
REMARK    7  A    between atoms: C_16  and  C_20
REMARK    8  A    between atoms: C_17  and  C_19
REMARK    9  A    between atoms: C_19  and  C_21
REMARK   10  A    between atoms: C_25  and  C_26
REMARK                            x       y       z     vdW  Elec       q    Type
REMARK                         _______ _______ _______ _____ _____    ______ ____
ROOT
ATOM      2  O   UNL     1      11.345  13.696  21.323  0.00  0.00    -0.274 OA
ATOM      5  N   UNL     1      11.974  12.991  23.852  0.00  0.00    -0.285 NA
ATOM      6  N   UNL     1      11.235   9.894  22.048  0.00  0.00    -0.296 NA
ATOM      7  N   UNL     1      12.399  11.914  20.348  0.00  0.00    -0.312 N 
ATOM      9  C   UNL     1      11.879  10.676  23.126  0.00  0.00    +0.084 C 
ATOM     10  C   UNL     1      12.441  12.088  22.784  0.00  0.00    +0.161 C 
ATOM     11  C   UNL     1      10.951  10.982  24.316  0.00  0.00    +0.036 C 
ATOM     12  C   UNL     1      11.624  12.156  24.995  0.00  0.00    +0.087 C 
ATOM     13  C   UNL     1      12.146   9.520  20.930  0.00  0.00    +0.074 C 
ATOM     14  C   UNL     1      11.989  12.655  21.440  0.00  0.00    +0.232 C 
ATOM     15  C   UNL     1      13.088  10.644  20.457  0.00  0.00    +0.123 C 
ATOM     18  C   UNL     1      10.576   8.695  22.593  0.00  0.00    +0.105 C 
ATOM     33  H   UNL     1      12.150  12.250  19.423  0.00  0.00    +0.149 HD
ENDROOT
BRANCH   5  16
ATOM     16  C   UNL     1      12.943  14.022  24.202  0.00  0.00    +0.127 C 
BRANCH  16  20
ATOM      1  S   UNL     1      15.097  12.709  25.366  0.00  0.00    -0.100 S 
ATOM     20  C   UNL     1      13.693  13.685  25.459  0.00  0.00    +0.004 A 
ATOM     22  C   UNL     1      13.409  14.060  26.753  0.00  0.00    +0.012 A 
ATOM     23  C   UNL     1      14.357  13.540  27.681  0.00  0.00    +0.008 A 
ATOM     24  C   UNL     1      15.329  12.787  27.060  0.00  0.00    +0.045 A 
ENDBRANCH  16  20
ENDBRANCH   5  16
BRANCH  13  17
ATOM     17  C   UNL     1      11.332   9.050  19.706  0.00  0.00    +0.029 C 
BRANCH  17  19
ATOM     19  C   UNL     1      12.248   8.768  18.529  0.00  0.00    +0.097 C 
BRANCH  19  21
ATOM      3  O   UNL     1      12.559   6.418  19.018  0.00  0.00    -0.276 OA
ATOM      8  N   UNL     1      14.420   7.738  18.589  0.00  0.00    -0.311 N 
ATOM     21  C   UNL     1      13.060   7.504  18.743  0.00  0.00    +0.213 C 
ATOM     34  H   UNL     1      14.755   8.675  18.386  0.00  0.00    +0.149 HD
BRANCH   8  25
ATOM     25  C   UNL     1      15.404   6.693  18.744  0.00  0.00    +0.139 C 
BRANCH  25  26
ATOM     26  C   UNL     1      16.462   7.061  19.742  0.00  0.00    -0.030 A 
ATOM     27  C   UNL     1      16.346   8.238  20.481  0.00  0.00    +0.009 A 
ATOM     28  C   UNL     1      17.564   6.225  19.930  0.00  0.00    +0.009 A 
ATOM     29  C   UNL     1      17.331   8.579  21.409  0.00  0.00    +0.046 A 
ATOM     30  C   UNL     1      18.548   6.566  20.858  0.00  0.00    +0.046 A 
ATOM     31  C   UNL     1      18.432   7.744  21.597  0.00  0.00    +0.120 A 
BRANCH  31   4
ATOM      4  O   UNL     1      19.392   8.076  22.502  0.00  0.00    -0.495 OA
ATOM     32  C   UNL     1      20.185   7.013  23.028  0.00  0.00    +0.277 C 
ENDBRANCH  31   4
ENDBRANCH  25  26
ENDBRANCH   8  25
ENDBRANCH  19  21
ENDBRANCH  17  19
ENDBRANCH  13  17
TORSDOF 8
ENDMDL
