MODEL 1
REMARK VINA RESULT:      -6.0      0.000      0.000
REMARK  Name = 56775542
REMARK  8 active torsions:
REMARK  status: ('A' for Active; 'I' for Inactive)
REMARK    1  A    between atoms: O_4  and  C_18
REMARK    2  A    between atoms: O_4  and  C_22
REMARK    3  A    between atoms: N_5  and  C_7
REMARK    4  A    between atoms: N_5  and  C_11
REMARK    5  A    between atoms: C_7  and  C_10
REMARK    6  A    between atoms: C_10  and  C_12
REMARK    7  A    between atoms: C_11  and  C_13
REMARK    8  A    between atoms: C_15  and  C_18
REMARK                            x       y       z     vdW  Elec       q    Type
REMARK                         _______ _______ _______ _____ _____    ______ ____
ROOT
ATOM      2  O   UNL     1      11.663   6.137  20.218  0.00  0.00    -0.376 OA
ATOM      7  C   UNL     1      12.707   7.956  20.620  0.00  0.00    +0.072 C 
ATOM      8  C   UNL     1      12.574   6.970  19.464  0.00  0.00    +0.184 C 
ATOM      9  C   UNL     1      11.671   7.078  21.314  0.00  0.00    +0.184 C 
ENDROOT
BRANCH   7   5
ATOM      5  N   UNL     1      14.006   7.752  21.266  0.00  0.00    -0.302 NA
ATOM     23  H   UNL     1      14.247   6.780  21.456  0.00  0.00    +0.123 HD
BRANCH   5  11
ATOM     11  C   UNL     1      15.050   8.371  20.448  0.00  0.00    +0.120 C 
BRANCH  11  13
ATOM      1  F   UNL     1      15.455   6.568  18.312  0.00  0.00    -0.205 F 
ATOM     13  C   UNL     1      16.264   7.511  20.334  0.00  0.00    +0.002 A 
ATOM     16  C   UNL     1      16.405   6.641  19.254  0.00  0.00    +0.128 A 
ATOM     17  C   UNL     1      17.259   7.581  21.309  0.00  0.00    +0.008 A 
ATOM     19  C   UNL     1      17.542   5.839  19.149  0.00  0.00    +0.038 A 
ATOM     20  C   UNL     1      18.395   6.779  21.205  0.00  0.00    +0.000 A 
ATOM     21  C   UNL     1      18.537   5.907  20.124  0.00  0.00    +0.003 A 
ENDBRANCH  11  13
ENDBRANCH   5  11
ENDBRANCH   7   5
BRANCH   7  10
ATOM     10  C   UNL     1      12.391   9.401  20.383  0.00  0.00    +0.085 C 
BRANCH  10  12
ATOM      3  O   UNL     1      12.949  11.384  23.352  0.00  0.00    -0.357 OA
ATOM      6  N   UNL     1      13.367  10.816  22.154  0.00  0.00    -0.083 NA
ATOM     12  C   UNL     1      12.302  10.153  21.695  0.00  0.00    +0.086 A 
ATOM     14  C   UNL     1      11.193  10.266  22.551  0.00  0.00    +0.073 A 
ATOM     15  C   UNL     1      11.652  11.048  23.577  0.00  0.00    +0.163 A 
BRANCH  15  18
ATOM     18  C   UNL     1      11.046  11.568  24.809  0.00  0.00    +0.236 C 
BRANCH  18   4
ATOM      4  O   UNL     1      10.517  12.879  24.587  0.00  0.00    -0.375 OA
ATOM     22  C   UNL     1      10.543  13.650  25.776  0.00  0.00    +0.194 C 
ENDBRANCH  18   4
ENDBRANCH  15  18
ENDBRANCH  10  12
ENDBRANCH   7  10
TORSDOF 7
ENDMDL
MODEL 2
REMARK VINA RESULT:      -6.0     16.320     18.995
REMARK  Name = 56775542
REMARK  8 active torsions:
REMARK  status: ('A' for Active; 'I' for Inactive)
REMARK    1  A    between atoms: O_4  and  C_18
REMARK    2  A    between atoms: O_4  and  C_22
REMARK    3  A    between atoms: N_5  and  C_7
REMARK    4  A    between atoms: N_5  and  C_11
REMARK    5  A    between atoms: C_7  and  C_10
REMARK    6  A    between atoms: C_10  and  C_12
REMARK    7  A    between atoms: C_11  and  C_13
REMARK    8  A    between atoms: C_15  and  C_18
REMARK                            x       y       z     vdW  Elec       q    Type
REMARK                         _______ _______ _______ _____ _____    ______ ____
ROOT
ATOM      2  O   UNL     1      -5.626   3.612  25.479  0.00  0.00    -0.376 OA
ATOM      7  C   UNL     1      -3.930   2.576  24.698  0.00  0.00    +0.072 C 
ATOM      8  C   UNL     1      -5.449   2.465  24.616  0.00  0.00    +0.184 C 
ATOM      9  C   UNL     1      -4.198   3.830  25.523  0.00  0.00    +0.184 C 
ENDROOT
BRANCH   7   5
ATOM      5  N   UNL     1      -3.428   1.525  25.587  0.00  0.00    -0.302 NA
ATOM     23  H   UNL     1      -3.287   1.810  26.556  0.00  0.00    +0.123 HD
BRANCH   5  11
ATOM     11  C   UNL     1      -4.337   0.379  25.536  0.00  0.00    +0.120 C 
BRANCH  11  13
ATOM      1  F   UNL     1      -1.749  -0.389  26.369  0.00  0.00    -0.205 F 
ATOM     13  C   UNL     1      -3.662  -0.858  25.045  0.00  0.00    +0.002 A 
ATOM     16  C   UNL     1      -2.383  -1.182  25.494  0.00  0.00    +0.128 A 
ATOM     17  C   UNL     1      -4.314  -1.690  24.135  0.00  0.00    +0.008 A 
ATOM     19  C   UNL     1      -1.755  -2.339  25.034  0.00  0.00    +0.038 A 
ATOM     20  C   UNL     1      -3.686  -2.847  23.674  0.00  0.00    +0.000 A 
ATOM     21  C   UNL     1      -2.406  -3.172  24.124  0.00  0.00    +0.003 A 
ENDBRANCH  11  13
ENDBRANCH   5  11
ENDBRANCH   7   5
BRANCH   7  10
ATOM     10  C   UNL     1      -3.140   2.697  23.431  0.00  0.00    +0.085 C 
BRANCH  10  12
ATOM      3  O   UNL     1       0.267   1.847  24.284  0.00  0.00    -0.357 OA
ATOM      6  N   UNL     1      -0.849   2.672  24.351  0.00  0.00    -0.083 NA
ATOM     12  C   UNL     1      -1.770   2.071  23.591  0.00  0.00    +0.086 A 
ATOM     14  C   UNL     1      -1.296   0.875  23.025  0.00  0.00    +0.073 A 
ATOM     15  C   UNL     1      -0.011   0.780  23.491  0.00  0.00    +0.163 A 
BRANCH  15  18
ATOM     18  C   UNL     1       1.066  -0.200  23.309  0.00  0.00    +0.236 C 
BRANCH  18   4
ATOM      4  O   UNL     1       1.872   0.151  22.181  0.00  0.00    -0.375 OA
ATOM     22  C   UNL     1       3.199   0.458  22.574  0.00  0.00    +0.194 C 
ENDBRANCH  18   4
ENDBRANCH  15  18
ENDBRANCH  10  12
ENDBRANCH   7  10
TORSDOF 7
ENDMDL
MODEL 3
REMARK VINA RESULT:      -6.0     16.533     19.452
REMARK  Name = 56775542
REMARK  8 active torsions:
REMARK  status: ('A' for Active; 'I' for Inactive)
REMARK    1  A    between atoms: O_4  and  C_18
REMARK    2  A    between atoms: O_4  and  C_22
REMARK    3  A    between atoms: N_5  and  C_7
REMARK    4  A    between atoms: N_5  and  C_11
REMARK    5  A    between atoms: C_7  and  C_10
REMARK    6  A    between atoms: C_10  and  C_12
REMARK    7  A    between atoms: C_11  and  C_13
REMARK    8  A    between atoms: C_15  and  C_18
REMARK                            x       y       z     vdW  Elec       q    Type
REMARK                         _______ _______ _______ _____ _____    ______ ____
ROOT
ATOM      2  O   UNL     1      -0.722   5.425  24.743  0.00  0.00    -0.376 OA
ATOM      7  C   UNL     1      -1.092   3.327  24.893  0.00  0.00    +0.072 C 
ATOM      8  C   UNL     1      -0.019   4.238  24.308  0.00  0.00    +0.184 C 
ATOM      9  C   UNL     1      -1.725   4.618  25.401  0.00  0.00    +0.184 C 
ENDROOT
BRANCH   7   5
ATOM      5  N   UNL     1      -1.911   2.799  23.799  0.00  0.00    -0.302 NA
ATOM     23  H   UNL     1      -2.032   1.787  23.799  0.00  0.00    +0.123 HD
BRANCH   5  11
ATOM     11  C   UNL     1      -3.219   3.455  23.819  0.00  0.00    +0.120 C 
BRANCH  11  13
ATOM      1  F   UNL     1      -5.107   4.626  25.562  0.00  0.00    -0.205 F 
ATOM     13  C   UNL     1      -4.241   2.658  24.557  0.00  0.00    +0.002 A 
ATOM     16  C   UNL     1      -5.147   3.296  25.404  0.00  0.00    +0.128 A 
ATOM     17  C   UNL     1      -4.291   1.273  24.398  0.00  0.00    +0.008 A 
ATOM     19  C   UNL     1      -6.102   2.549  26.093  0.00  0.00    +0.038 A 
ATOM     20  C   UNL     1      -5.246   0.525  25.088  0.00  0.00    +0.000 A 
ATOM     21  C   UNL     1      -6.151   1.163  25.935  0.00  0.00    +0.003 A 
ENDBRANCH  11  13
ENDBRANCH   5  11
ENDBRANCH   7   5
BRANCH   7  10
ATOM     10  C   UNL     1      -0.694   2.277  25.885  0.00  0.00    +0.085 C 
BRANCH  10  12
ATOM      3  O   UNL     1      -0.392  -0.734  23.909  0.00  0.00    -0.357 OA
ATOM      6  N   UNL     1      -0.063   0.584  24.202  0.00  0.00    -0.083 NA
ATOM     12  C   UNL     1      -0.798   0.895  25.274  0.00  0.00    +0.086 A 
ATOM     14  C   UNL     1      -1.602  -0.177  25.698  0.00  0.00    +0.073 A 
ATOM     15  C   UNL     1      -1.311  -1.176  24.807  0.00  0.00    +0.163 A 
BRANCH  15  18
ATOM     18  C   UNL     1      -1.773  -2.559  24.643  0.00  0.00    +0.236 C 
BRANCH  18   4
ATOM      4  O   UNL     1      -3.144  -2.673  25.033  0.00  0.00    -0.375 OA
ATOM     22  C   UNL     1      -4.007  -2.572  23.913  0.00  0.00    +0.194 C 
ENDBRANCH  18   4
ENDBRANCH  15  18
ENDBRANCH  10  12
ENDBRANCH   7  10
TORSDOF 7
ENDMDL
MODEL 4
REMARK VINA RESULT:      -5.7     26.127     27.971
REMARK  Name = 56775542
REMARK  8 active torsions:
REMARK  status: ('A' for Active; 'I' for Inactive)
REMARK    1  A    between atoms: O_4  and  C_18
REMARK    2  A    between atoms: O_4  and  C_22
REMARK    3  A    between atoms: N_5  and  C_7
REMARK    4  A    between atoms: N_5  and  C_11
REMARK    5  A    between atoms: C_7  and  C_10
REMARK    6  A    between atoms: C_10  and  C_12
REMARK    7  A    between atoms: C_11  and  C_13
REMARK    8  A    between atoms: C_15  and  C_18
REMARK                            x       y       z     vdW  Elec       q    Type
REMARK                         _______ _______ _______ _____ _____    ______ ____
ROOT
ATOM      2  O   UNL     1      -0.948 -11.068  15.637  0.00  0.00    -0.376 OA
ATOM      7  C   UNL     1      -3.007 -11.395  15.175  0.00  0.00    +0.072 C 
ATOM      8  C   UNL     1      -1.651 -11.800  14.606  0.00  0.00    +0.184 C 
ATOM      9  C   UNL     1      -2.197 -10.728  16.281  0.00  0.00    +0.184 C 
ENDROOT
BRANCH   7   5
ATOM      5  N   UNL     1      -3.585 -10.355  14.321  0.00  0.00    -0.302 NA
ATOM     23  H   UNL     1      -2.917  -9.683  13.944  0.00  0.00    +0.123 HD
BRANCH   5  11
ATOM     11  C   UNL     1      -4.321 -10.988  13.225  0.00  0.00    +0.120 C 
BRANCH  11  13
ATOM      1  F   UNL     1      -2.111 -10.808  11.475  0.00  0.00    -0.205 F 
ATOM     13  C   UNL     1      -4.332 -10.150  11.991  0.00  0.00    +0.002 A 
ATOM     16  C   UNL     1      -3.208 -10.104  11.167  0.00  0.00    +0.128 A 
ATOM     17  C   UNL     1      -5.470  -9.414  11.661  0.00  0.00    +0.008 A 
ATOM     19  C   UNL     1      -3.222  -9.320  10.013  0.00  0.00    +0.038 A 
ATOM     20  C   UNL     1      -5.484  -8.630  10.507  0.00  0.00    +0.000 A 
ATOM     21  C   UNL     1      -4.359  -8.583   9.683  0.00  0.00    +0.003 A 
ENDBRANCH  11  13
ENDBRANCH   5  11
ENDBRANCH   7   5
BRANCH   7  10
ATOM     10  C   UNL     1      -3.990 -12.465  15.541  0.00  0.00    +0.085 C 
BRANCH  10  12
ATOM      3  O   UNL     1      -6.444 -10.817  17.621  0.00  0.00    -0.357 OA
ATOM      6  N   UNL     1      -5.764 -10.991  16.421  0.00  0.00    -0.083 NA
ATOM     12  C   UNL     1      -4.910 -11.992  16.648  0.00  0.00    +0.086 A 
ATOM     14  C   UNL     1      -5.004 -12.486  17.961  0.00  0.00    +0.073 A 
ATOM     15  C   UNL     1      -5.981 -11.714  18.530  0.00  0.00    +0.163 A 
BRANCH  15  18
ATOM     18  C   UNL     1      -6.595 -11.670  19.863  0.00  0.00    +0.236 C 
BRANCH  18   4
ATOM      4  O   UNL     1      -7.834 -10.957  19.816  0.00  0.00    -0.375 OA
ATOM     22  C   UNL     1      -8.933 -11.846  19.720  0.00  0.00    +0.194 C 
ENDBRANCH  18   4
ENDBRANCH  15  18
ENDBRANCH  10  12
ENDBRANCH   7  10
TORSDOF 7
ENDMDL
MODEL 5
REMARK VINA RESULT:      -5.6      3.966      6.803
REMARK  Name = 56775542
REMARK  8 active torsions:
REMARK  status: ('A' for Active; 'I' for Inactive)
REMARK    1  A    between atoms: O_4  and  C_18
REMARK    2  A    between atoms: O_4  and  C_22
REMARK    3  A    between atoms: N_5  and  C_7
REMARK    4  A    between atoms: N_5  and  C_11
REMARK    5  A    between atoms: C_7  and  C_10
REMARK    6  A    between atoms: C_10  and  C_12
REMARK    7  A    between atoms: C_11  and  C_13
REMARK    8  A    between atoms: C_15  and  C_18
REMARK                            x       y       z     vdW  Elec       q    Type
REMARK                         _______ _______ _______ _____ _____    ______ ____
ROOT
ATOM      2  O   UNL     1      11.716   5.763  21.674  0.00  0.00    -0.376 OA
ATOM      7  C   UNL     1      11.350   7.835  21.310  0.00  0.00    +0.072 C 
ATOM      8  C   UNL     1      12.475   6.834  21.067  0.00  0.00    +0.184 C 
ATOM      9  C   UNL     1      10.577   6.636  21.849  0.00  0.00    +0.184 C 
ENDROOT
BRANCH   7   5
ATOM      5  N   UNL     1      11.722   8.699  22.433  0.00  0.00    -0.302 NA
ATOM     23  H   UNL     1      12.602   9.201  22.318  0.00  0.00    +0.123 HD
BRANCH   5  11
ATOM     11  C   UNL     1      10.639   9.650  22.686  0.00  0.00    +0.120 C 
BRANCH  11  13
ATOM      1  F   UNL     1      11.601  11.716  21.017  0.00  0.00    -0.205 F 
ATOM     13  C   UNL     1      11.140  10.952  23.216  0.00  0.00    +0.002 A 
ATOM     16  C   UNL     1      11.602  11.933  22.339  0.00  0.00    +0.128 A 
ATOM     17  C   UNL     1      11.143  11.187  24.591  0.00  0.00    +0.008 A 
ATOM     19  C   UNL     1      12.068  13.149  22.838  0.00  0.00    +0.038 A 
ATOM     20  C   UNL     1      11.611  12.403  25.089  0.00  0.00    +0.000 A 
ATOM     21  C   UNL     1      12.073  13.384  24.213  0.00  0.00    +0.003 A 
ENDBRANCH  11  13
ENDBRANCH   5  11
ENDBRANCH   7   5
BRANCH   7  10
ATOM     10  C   UNL     1      10.789   8.595  20.147  0.00  0.00    +0.085 C 
BRANCH  10  12
ATOM      3  O   UNL     1      12.625   7.865  17.122  0.00  0.00    -0.357 OA
ATOM      6  N   UNL     1      11.613   7.609  18.040  0.00  0.00    -0.083 NA
ATOM     12  C   UNL     1      11.743   8.558  18.971  0.00  0.00    +0.086 A 
ATOM     14  C   UNL     1      12.809   9.432  18.698  0.00  0.00    +0.073 A 
ATOM     15  C   UNL     1      13.331   8.952  17.526  0.00  0.00    +0.163 A 
BRANCH  15  18
ATOM     18  C   UNL     1      14.447   9.365  16.666  0.00  0.00    +0.236 C 
BRANCH  18   4
ATOM      4  O   UNL     1      14.401  10.776  16.437  0.00  0.00    -0.375 OA
ATOM     22  C   UNL     1      13.776  11.075  15.200  0.00  0.00    +0.194 C 
ENDBRANCH  18   4
ENDBRANCH  15  18
ENDBRANCH  10  12
ENDBRANCH   7  10
TORSDOF 7
ENDMDL
MODEL 6
REMARK VINA RESULT:      -5.3     27.004     28.265
REMARK  Name = 56775542
REMARK  8 active torsions:
REMARK  status: ('A' for Active; 'I' for Inactive)
REMARK    1  A    between atoms: O_4  and  C_18
REMARK    2  A    between atoms: O_4  and  C_22
REMARK    3  A    between atoms: N_5  and  C_7
REMARK    4  A    between atoms: N_5  and  C_11
REMARK    5  A    between atoms: C_7  and  C_10
REMARK    6  A    between atoms: C_10  and  C_12
REMARK    7  A    between atoms: C_11  and  C_13
REMARK    8  A    between atoms: C_15  and  C_18
REMARK                            x       y       z     vdW  Elec       q    Type
REMARK                         _______ _______ _______ _____ _____    ______ ____
ROOT
ATOM      2  O   UNL     1      -1.867 -14.029  13.016  0.00  0.00    -0.376 OA
ATOM      7  C   UNL     1      -2.355 -12.139  13.883  0.00  0.00    +0.072 C 
ATOM      8  C   UNL     1      -1.207 -13.141  13.948  0.00  0.00    +0.184 C 
ATOM      9  C   UNL     1      -2.943 -13.080  12.837  0.00  0.00    +0.184 C 
ENDROOT
BRANCH   7   5
ATOM      5  N   UNL     1      -3.145 -12.248  15.112  0.00  0.00    -0.302 NA
ATOM     23  H   UNL     1      -2.882 -13.016  15.729  0.00  0.00    +0.123 HD
BRANCH   5  11
ATOM     11  C   UNL     1      -3.074 -10.981  15.841  0.00  0.00    +0.120 C 
BRANCH  11  13
ATOM      1  F   UNL     1      -3.440 -11.731  18.539  0.00  0.00    -0.205 F 
ATOM     13  C   UNL     1      -4.326 -10.691  16.599  0.00  0.00    +0.002 A 
ATOM     16  C   UNL     1      -4.445 -11.088  17.930  0.00  0.00    +0.128 A 
ATOM     17  C   UNL     1      -5.377 -10.022  15.973  0.00  0.00    +0.008 A 
ATOM     19  C   UNL     1      -5.617 -10.815  18.636  0.00  0.00    +0.038 A 
ATOM     20  C   UNL     1      -6.550  -9.750  16.678  0.00  0.00    +0.000 A 
ATOM     21  C   UNL     1      -6.669 -10.146  18.010  0.00  0.00    +0.003 A 
ENDBRANCH  11  13
ENDBRANCH   5  11
ENDBRANCH   7   5
BRANCH   7  10
ATOM     10  C   UNL     1      -2.061 -10.721  13.499  0.00  0.00    +0.085 C 
BRANCH  10  12
ATOM      3  O   UNL     1      -4.761  -9.771  11.293  0.00  0.00    -0.357 OA
ATOM      6  N   UNL     1      -4.265 -10.195  12.521  0.00  0.00    -0.083 NA
ATOM     12  C   UNL     1      -2.943 -10.283  12.349  0.00  0.00    +0.086 A 
ATOM     14  C   UNL     1      -2.550  -9.929  11.047  0.00  0.00    +0.073 A 
ATOM     15  C   UNL     1      -3.729  -9.617  10.423  0.00  0.00    +0.163 A 
BRANCH  15  18
ATOM     18  C   UNL     1      -4.076  -9.169   9.069  0.00  0.00    +0.236 C 
BRANCH  18   4
ATOM      4  O   UNL     1      -4.757 -10.209   8.362  0.00  0.00    -0.375 OA
ATOM     22  C   UNL     1      -5.807  -9.686   7.567  0.00  0.00    +0.194 C 
ENDBRANCH  18   4
ENDBRANCH  15  18
ENDBRANCH  10  12
ENDBRANCH   7  10
TORSDOF 7
ENDMDL
MODEL 7
REMARK VINA RESULT:      -5.3     15.860     18.816
REMARK  Name = 56775542
REMARK  8 active torsions:
REMARK  status: ('A' for Active; 'I' for Inactive)
REMARK    1  A    between atoms: O_4  and  C_18
REMARK    2  A    between atoms: O_4  and  C_22
REMARK    3  A    between atoms: N_5  and  C_7
REMARK    4  A    between atoms: N_5  and  C_11
REMARK    5  A    between atoms: C_7  and  C_10
REMARK    6  A    between atoms: C_10  and  C_12
REMARK    7  A    between atoms: C_11  and  C_13
REMARK    8  A    between atoms: C_15  and  C_18
REMARK                            x       y       z     vdW  Elec       q    Type
REMARK                         _______ _______ _______ _____ _____    ______ ____
ROOT
ATOM      2  O   UNL     1      11.386   9.736   3.216  0.00  0.00    -0.376 OA
ATOM      7  C   UNL     1      10.488   7.839   3.607  0.00  0.00    +0.072 C 
ATOM      8  C   UNL     1      10.055   9.301   3.579  0.00  0.00    +0.184 C 
ATOM      9  C   UNL     1      11.837   8.365   3.132  0.00  0.00    +0.184 C 
ENDROOT
BRANCH   7   5
ATOM      5  N   UNL     1      10.613   7.410   5.002  0.00  0.00    -0.302 NA
ATOM     23  H   UNL     1      11.062   8.084   5.623  0.00  0.00    +0.123 HD
BRANCH   5  11
ATOM     11  C   UNL     1       9.288   7.067   5.520  0.00  0.00    +0.120 C 
BRANCH  11  13
ATOM      1  F   UNL     1       8.593   8.068   8.068  0.00  0.00    -0.205 F 
ATOM     13  C   UNL     1       9.359   6.242   6.760  0.00  0.00    +0.002 A 
ATOM     16  C   UNL     1       9.002   6.795   7.989  0.00  0.00    +0.128 A 
ATOM     17  C   UNL     1       9.784   4.915   6.689  0.00  0.00    +0.008 A 
ATOM     19  C   UNL     1       9.070   6.021   9.148  0.00  0.00    +0.038 A 
ATOM     20  C   UNL     1       9.852   4.141   7.847  0.00  0.00    +0.000 A 
ATOM     21  C   UNL     1       9.495   4.694   9.077  0.00  0.00    +0.003 A 
ENDBRANCH  11  13
ENDBRANCH   5  11
ENDBRANCH   7   5
BRANCH   7  10
ATOM     10  C   UNL     1       9.756   6.848   2.754  0.00  0.00    +0.085 C 
BRANCH  10  12
ATOM      3  O   UNL     1      11.492   3.682   2.893  0.00  0.00    -0.357 OA
ATOM      6  N   UNL     1      10.637   4.641   3.423  0.00  0.00    -0.083 NA
ATOM     12  C   UNL     1      10.605   5.617   2.511  0.00  0.00    +0.086 A 
ATOM     14  C   UNL     1      11.413   5.333   1.397  0.00  0.00    +0.073 A 
ATOM     15  C   UNL     1      11.948   4.107   1.686  0.00  0.00    +0.163 A 
BRANCH  15  18
ATOM     18  C   UNL     1      12.871   3.208   0.982  0.00  0.00    +0.236 C 
BRANCH  18   4
ATOM      4  O   UNL     1      14.055   3.004   1.758  0.00  0.00    -0.375 OA
ATOM     22  C   UNL     1      15.115   3.827   1.302  0.00  0.00    +0.194 C 
ENDBRANCH  18   4
ENDBRANCH  15  18
ENDBRANCH  10  12
ENDBRANCH   7  10
TORSDOF 7
ENDMDL
MODEL 8
REMARK VINA RESULT:      -5.3     17.613     20.502
REMARK  Name = 56775542
REMARK  8 active torsions:
REMARK  status: ('A' for Active; 'I' for Inactive)
REMARK    1  A    between atoms: O_4  and  C_18
REMARK    2  A    between atoms: O_4  and  C_22
REMARK    3  A    between atoms: N_5  and  C_7
REMARK    4  A    between atoms: N_5  and  C_11
REMARK    5  A    between atoms: C_7  and  C_10
REMARK    6  A    between atoms: C_10  and  C_12
REMARK    7  A    between atoms: C_11  and  C_13
REMARK    8  A    between atoms: C_15  and  C_18
REMARK                            x       y       z     vdW  Elec       q    Type
REMARK                         _______ _______ _______ _____ _____    ______ ____
ROOT
ATOM      2  O   UNL     1      13.274   6.939   3.227  0.00  0.00    -0.376 OA
ATOM      7  C   UNL     1      11.342   6.031   3.202  0.00  0.00    +0.072 C 
ATOM      8  C   UNL     1      12.009   7.232   3.864  0.00  0.00    +0.184 C 
ATOM      9  C   UNL     1      12.680   5.843   2.496  0.00  0.00    +0.184 C 
ENDROOT
BRANCH   7   5
ATOM      5  N   UNL     1      11.182   4.970   4.200  0.00  0.00    -0.302 NA
ATOM     23  H   UNL     1      11.766   5.067   5.031  0.00  0.00    +0.123 HD
BRANCH   5  11
ATOM     11  C   UNL     1       9.775   4.888   4.591  0.00  0.00    +0.120 C 
BRANCH  11  13
ATOM      1  F   UNL     1       7.863   6.967   4.612  0.00  0.00    -0.205 F 
ATOM     13  C   UNL     1       9.475   5.699   5.807  0.00  0.00    +0.002 A 
ATOM     16  C   UNL     1       8.520   6.713   5.753  0.00  0.00    +0.128 A 
ATOM     17  C   UNL     1      10.152   5.441   6.999  0.00  0.00    +0.008 A 
ATOM     19  C   UNL     1       8.241   7.469   6.891  0.00  0.00    +0.038 A 
ATOM     20  C   UNL     1       9.874   6.198   8.137  0.00  0.00    +0.000 A 
ATOM     21  C   UNL     1       8.918   7.213   8.083  0.00  0.00    +0.003 A 
ENDBRANCH  11  13
ENDBRANCH   5  11
ENDBRANCH   7   5
BRANCH   7  10
ATOM     10  C   UNL     1      10.111   6.246   2.376  0.00  0.00    +0.085 C 
BRANCH  10  12
ATOM      3  O   UNL     1      10.263   3.842  -0.317  0.00  0.00    -0.357 OA
ATOM      6  N   UNL     1      10.134   4.181   1.025  0.00  0.00    -0.083 NA
ATOM     12  C   UNL     1      10.216   5.514   1.054  0.00  0.00    +0.086 A 
ATOM     14  C   UNL     1      10.394   6.066  -0.226  0.00  0.00    +0.073 A 
ATOM     15  C   UNL     1      10.418   4.974  -1.052  0.00  0.00    +0.163 A 
BRANCH  15  18
ATOM     18  C   UNL     1      10.570   4.798  -2.501  0.00  0.00    +0.236 C 
BRANCH  18   4
ATOM      4  O   UNL     1      10.775   3.418  -2.815  0.00  0.00    -0.375 OA
ATOM     22  C   UNL     1       9.775   2.939  -3.698  0.00  0.00    +0.194 C 
ENDBRANCH  18   4
ENDBRANCH  15  18
ENDBRANCH  10  12
ENDBRANCH   7  10
TORSDOF 7
ENDMDL
MODEL 9
REMARK VINA RESULT:      -5.2     27.063     28.069
REMARK  Name = 56775542
REMARK  8 active torsions:
REMARK  status: ('A' for Active; 'I' for Inactive)
REMARK    1  A    between atoms: O_4  and  C_18
REMARK    2  A    between atoms: O_4  and  C_22
REMARK    3  A    between atoms: N_5  and  C_7
REMARK    4  A    between atoms: N_5  and  C_11
REMARK    5  A    between atoms: C_7  and  C_10
REMARK    6  A    between atoms: C_10  and  C_12
REMARK    7  A    between atoms: C_11  and  C_13
REMARK    8  A    between atoms: C_15  and  C_18
REMARK                            x       y       z     vdW  Elec       q    Type
REMARK                         _______ _______ _______ _____ _____    ______ ____
ROOT
ATOM      2  O   UNL     1      -2.592 -14.365  14.247  0.00  0.00    -0.376 OA
ATOM      7  C   UNL     1      -2.968 -12.270  14.411  0.00  0.00    +0.072 C 
ATOM      8  C   UNL     1      -3.626 -13.567  14.868  0.00  0.00    +0.184 C 
ATOM      9  C   UNL     1      -1.868 -13.174  13.865  0.00  0.00    +0.184 C 
ENDROOT
BRANCH   7   5
ATOM      5  N   UNL     1      -3.731 -11.724  13.286  0.00  0.00    -0.302 NA
ATOM     23  H   UNL     1      -4.728 -11.598  13.461  0.00  0.00    +0.123 HD
BRANCH   5  11
ATOM     11  C   UNL     1      -3.136 -10.453  12.874  0.00  0.00    +0.120 C 
BRANCH  11  13
ATOM      1  F   UNL     1      -5.798  -9.514  12.977  0.00  0.00    -0.205 F 
ATOM     13  C   UNL     1      -3.830  -9.856  11.696  0.00  0.00    +0.002 A 
ATOM     16  C   UNL     1      -5.146  -9.411  11.811  0.00  0.00    +0.128 A 
ATOM     17  C   UNL     1      -3.159  -9.745  10.477  0.00  0.00    +0.008 A 
ATOM     19  C   UNL     1      -5.792  -8.854  10.708  0.00  0.00    +0.038 A 
ATOM     20  C   UNL     1      -3.806  -9.188   9.374  0.00  0.00    +0.000 A 
ATOM     21  C   UNL     1      -5.123  -8.742   9.489  0.00  0.00    +0.003 A 
ENDBRANCH  11  13
ENDBRANCH   5  11
ENDBRANCH   7   5
BRANCH   7  10
ATOM     10  C   UNL     1      -2.613 -11.234  15.434  0.00  0.00    +0.085 C 
BRANCH  10  12
ATOM      3  O   UNL     1      -5.716 -10.292  17.028  0.00  0.00    -0.357 OA
ATOM      6  N   UNL     1      -4.860 -10.343  15.934  0.00  0.00    -0.083 NA
ATOM     12  C   UNL     1      -3.775 -10.988  16.374  0.00  0.00    +0.086 A 
ATOM     14  C   UNL     1      -3.888 -11.364  17.723  0.00  0.00    +0.073 A 
ATOM     15  C   UNL     1      -5.126 -10.903  18.087  0.00  0.00    +0.163 A 
BRANCH  15  18
ATOM     18  C   UNL     1      -5.897 -10.940  19.335  0.00  0.00    +0.236 C 
BRANCH  18   4
ATOM      4  O   UNL     1      -6.912 -11.945  19.262  0.00  0.00    -0.375 OA
ATOM     22  C   UNL     1      -8.205 -11.378  19.381  0.00  0.00    +0.194 C 
ENDBRANCH  18   4
ENDBRANCH  15  18
ENDBRANCH  10  12
ENDBRANCH   7  10
TORSDOF 7
ENDMDL
MODEL 10
REMARK VINA RESULT:      -5.2     14.327     16.104
REMARK  Name = 56775542
REMARK  8 active torsions:
REMARK  status: ('A' for Active; 'I' for Inactive)
REMARK    1  A    between atoms: O_4  and  C_18
REMARK    2  A    between atoms: O_4  and  C_22
REMARK    3  A    between atoms: N_5  and  C_7
REMARK    4  A    between atoms: N_5  and  C_11
REMARK    5  A    between atoms: C_7  and  C_10
REMARK    6  A    between atoms: C_10  and  C_12
REMARK    7  A    between atoms: C_11  and  C_13
REMARK    8  A    between atoms: C_15  and  C_18
REMARK                            x       y       z     vdW  Elec       q    Type
REMARK                         _______ _______ _______ _____ _____    ______ ____
ROOT
ATOM      2  O   UNL     1      10.940   5.406   8.789  0.00  0.00    -0.376 OA
ATOM      7  C   UNL     1       9.902   5.568   6.929  0.00  0.00    +0.072 C 
ATOM      8  C   UNL     1       9.688   4.890   8.278  0.00  0.00    +0.184 C 
ATOM      9  C   UNL     1      11.158   6.150   7.569  0.00  0.00    +0.184 C 
ENDROOT
BRANCH   7   5
ATOM      5  N   UNL     1      10.299   4.554   5.949  0.00  0.00    -0.302 NA
ATOM     23  H   UNL     1       9.972   3.609   6.149  0.00  0.00    +0.123 HD
BRANCH   5  11
ATOM     11  C   UNL     1       9.843   4.965   4.621  0.00  0.00    +0.120 C 
BRANCH  11  13
ATOM      1  F   UNL     1      11.621   7.127   4.241  0.00  0.00    -0.205 F 
ATOM     13  C   UNL     1      10.941   4.942   3.612  0.00  0.00    +0.002 A 
ATOM     16  C   UNL     1      11.786   6.042   3.472  0.00  0.00    +0.128 A 
ATOM     17  C   UNL     1      11.121   3.817   2.807  0.00  0.00    +0.008 A 
ATOM     19  C   UNL     1      12.812   6.017   2.528  0.00  0.00    +0.038 A 
ATOM     20  C   UNL     1      12.147   3.792   1.862  0.00  0.00    +0.000 A 
ATOM     21  C   UNL     1      12.993   4.892   1.723  0.00  0.00    +0.003 A 
ENDBRANCH  11  13
ENDBRANCH   5  11
ENDBRANCH   7   5
BRANCH   7  10
ATOM     10  C   UNL     1       8.853   6.503   6.411  0.00  0.00    +0.085 C 
BRANCH  10  12
ATOM      3  O   UNL     1       9.788   9.992   6.529  0.00  0.00    -0.357 OA
ATOM      6  N   UNL     1       9.591   8.792   5.855  0.00  0.00    -0.083 NA
ATOM     12  C   UNL     1       9.174   7.934   6.790  0.00  0.00    +0.086 A 
ATOM     14  C   UNL     1       9.090   8.529   8.060  0.00  0.00    +0.073 A 
ATOM     15  C   UNL     1       9.487   9.822   7.842  0.00  0.00    +0.163 A 
BRANCH  15  18
ATOM     18  C   UNL     1       9.640  10.998   8.707  0.00  0.00    +0.236 C 
BRANCH  18   4
ATOM      4  O   UNL     1       8.879  10.835   9.906  0.00  0.00    -0.375 OA
ATOM     22  C   UNL     1       9.299  11.746  10.908  0.00  0.00    +0.194 C 
ENDBRANCH  18   4
ENDBRANCH  15  18
ENDBRANCH  10  12
ENDBRANCH   7  10
TORSDOF 7
ENDMDL
