MODEL 1
REMARK VINA RESULT:      -7.1      0.000      0.000
REMARK  Name = 11912252
REMARK  5 active torsions:
REMARK  status: ('A' for Active; 'I' for Inactive)
REMARK    1  A    between atoms: S_1  and  N_8
REMARK    2  A    between atoms: S_1  and  C_28
REMARK    3  A    between atoms: N_10  and  C_13
REMARK    4  A    between atoms: N_11  and  C_25
REMARK    5  A    between atoms: C_14  and  C_24
REMARK                            x       y       z     vdW  Elec       q    Type
REMARK                         _______ _______ _______ _____ _____    ______ ____
ROOT
ATOM      3  O   UNL     1      13.682   6.391   0.518  0.00  0.00    -0.253 OA
ATOM      8  N   UNL     1      10.854   5.995   4.691  0.00  0.00    -0.162 NA
ATOM      9  N   UNL     1      12.095   5.707   2.069  0.00  0.00    -0.282 N 
ATOM     10  N   UNL     1      11.818   5.269  -0.231  0.00  0.00    -0.296 N 
ATOM     14  C   UNL     1      11.896   6.937   4.188  0.00  0.00    +0.183 C 
ATOM     15  C   UNL     1      12.839   6.264   3.198  0.00  0.00    +0.139 C 
ATOM     18  C   UNL     1      10.694   4.750   3.886  0.00  0.00    +0.129 C 
ATOM     19  C   UNL     1      10.827   5.045   2.398  0.00  0.00    +0.126 C 
ATOM     23  C   UNL     1      12.611   5.829   0.767  0.00  0.00    +0.303 C 
ATOM     36  H   UNL     1      10.889   4.935  -0.004  0.00  0.00    +0.151 HD
ENDROOT
BRANCH  10  13
ATOM     13  C   UNL     1      12.189   5.305  -1.628  0.00  0.00    +0.074 C 
ATOM     16  C   UNL     1      10.955   5.457  -2.522  0.00  0.00    +0.022 C 
ATOM     17  C   UNL     1      13.004   4.066  -2.013  0.00  0.00    +0.022 C 
ATOM     20  C   UNL     1      10.106   4.187  -2.570  0.00  0.00    +0.002 C 
ATOM     21  C   UNL     1      12.152   2.797  -2.062  0.00  0.00    +0.002 C 
ATOM     22  C   UNL     1      10.936   2.971  -2.967  0.00  0.00    +0.000 C 
ENDBRANCH  10  13
BRANCH  14  24
ATOM      6  O   UNL     1      13.041   6.578   6.245  0.00  0.00    -0.274 OA
ATOM     11  N   UNL     1      12.812   8.751   5.442  0.00  0.00    -0.303 N 
ATOM     24  C   UNL     1      12.648   7.378   5.398  0.00  0.00    +0.234 C 
ATOM     37  H   UNL     1      12.469   9.315   4.668  0.00  0.00    +0.149 HD
BRANCH  11  25
ATOM      7  O   UNL     1      11.318   9.585   7.575  0.00  0.00    -0.274 OA
ATOM     12  N   UNL     1      12.811  11.247   8.047  0.00  0.00    -0.314 N 
ATOM     25  C   UNL     1      13.483   9.431   6.520  0.00  0.00    +0.159 C 
ATOM     26  C   UNL     1      14.543  10.383   5.983  0.00  0.00    +0.033 C 
ATOM     27  C   UNL     1      15.111  11.212   7.124  0.00  0.00    +0.021 C 
ATOM     29  C   UNL     1      12.423  10.098   7.388  0.00  0.00    +0.233 C 
ATOM     30  C   UNL     1      13.995  12.030   7.745  0.00  0.00    +0.104 C 
ATOM     38  H   UNL     1      12.132  11.668   8.674  0.00  0.00    +0.149 HD
ENDBRANCH  11  25
ENDBRANCH  14  24
BRANCH   8   1
ATOM      1  S   UNL     1       9.419   6.693   5.311  0.00  0.00    +0.062 S 
ATOM      4  O   UNL     1       8.293   6.155   4.585  0.00  0.00    -0.153 OA
ATOM      5  O   UNL     1       9.622   8.116   5.443  0.00  0.00    -0.153 OA
BRANCH   1  28
ATOM      2  F   UNL     1       9.417   4.329  10.708  0.00  0.00    -0.205 F 
ATOM     28  C   UNL     1       9.418   5.985   6.927  0.00  0.00    +0.106 A 
ATOM     31  C   UNL     1       9.792   4.653   7.105  0.00  0.00    +0.031 A 
ATOM     32  C   UNL     1       9.043   6.758   8.025  0.00  0.00    +0.031 A 
ATOM     33  C   UNL     1       9.791   4.094   8.382  0.00  0.00    +0.040 A 
ATOM     34  C   UNL     1       9.043   6.198   9.303  0.00  0.00    +0.040 A 
ATOM     35  C   UNL     1       9.417   4.866   9.481  0.00  0.00    +0.124 A 
ENDBRANCH   1  28
ENDBRANCH   8   1
TORSDOF 5
ENDMDL
MODEL 2
REMARK VINA RESULT:      -6.9      4.909      6.795
REMARK  Name = 11912252
REMARK  5 active torsions:
REMARK  status: ('A' for Active; 'I' for Inactive)
REMARK    1  A    between atoms: S_1  and  N_8
REMARK    2  A    between atoms: S_1  and  C_28
REMARK    3  A    between atoms: N_10  and  C_13
REMARK    4  A    between atoms: N_11  and  C_25
REMARK    5  A    between atoms: C_14  and  C_24
REMARK                            x       y       z     vdW  Elec       q    Type
REMARK                         _______ _______ _______ _____ _____    ______ ____
ROOT
ATOM      3  O   UNL     1      17.270  11.435   5.842  0.00  0.00    -0.253 OA
ATOM      8  N   UNL     1      12.997   8.794   6.426  0.00  0.00    -0.162 NA
ATOM      9  N   UNL     1      15.754   9.708   6.181  0.00  0.00    -0.282 N 
ATOM     10  N   UNL     1      17.935   9.277   5.397  0.00  0.00    -0.296 N 
ATOM     14  C   UNL     1      13.349  10.195   6.053  0.00  0.00    +0.183 C 
ATOM     15  C   UNL     1      14.697  10.614   6.627  0.00  0.00    +0.139 C 
ATOM     18  C   UNL     1      14.136   7.976   6.932  0.00  0.00    +0.129 C 
ATOM     19  C   UNL     1      15.411   8.281   6.155  0.00  0.00    +0.126 C 
ATOM     23  C   UNL     1      17.007  10.228   5.810  0.00  0.00    +0.303 C 
ATOM     36  H   UNL     1      17.643   8.317   5.260  0.00  0.00    +0.151 HD
ENDROOT
BRANCH  10  13
ATOM     13  C   UNL     1      19.272   9.631   4.975  0.00  0.00    +0.074 C 
ATOM     16  C   UNL     1      19.767   8.696   3.867  0.00  0.00    +0.022 C 
ATOM     17  C   UNL     1      20.239   9.642   6.164  0.00  0.00    +0.022 C 
ATOM     20  C   UNL     1      20.081   7.292   4.383  0.00  0.00    +0.002 C 
ATOM     21  C   UNL     1      20.554   8.237   6.676  0.00  0.00    +0.002 C 
ATOM     22  C   UNL     1      21.054   7.329   5.556  0.00  0.00    +0.000 C 
ENDBRANCH  10  13
BRANCH  14  24
ATOM      6  O   UNL     1      11.597  11.803   5.922  0.00  0.00    -0.274 OA
ATOM     11  N   UNL     1      12.124  10.871   7.989  0.00  0.00    -0.303 N 
ATOM     24  C   UNL     1      12.260  11.041   6.622  0.00  0.00    +0.234 C 
ATOM     37  H   UNL     1      12.710  10.188   8.462  0.00  0.00    +0.149 HD
BRANCH  11  25
ATOM      7  O   UNL     1      13.045  12.483   9.996  0.00  0.00    -0.274 OA
ATOM     12  N   UNL     1      11.088  12.259  11.154  0.00  0.00    -0.314 N 
ATOM     25  C   UNL     1      11.160  11.590   8.780  0.00  0.00    +0.159 C 
ATOM     26  C   UNL     1       9.943  10.723   9.071  0.00  0.00    +0.033 C 
ATOM     27  C   UNL     1       9.026  11.441  10.049  0.00  0.00    +0.021 C 
ATOM     29  C   UNL     1      11.869  12.113  10.025  0.00  0.00    +0.233 C 
ATOM     30  C   UNL     1       9.773  11.675  11.348  0.00  0.00    +0.104 C 
ATOM     38  H   UNL     1      11.536  12.661  11.972  0.00  0.00    +0.149 HD
ENDBRANCH  11  25
ENDBRANCH  14  24
BRANCH   8   1
ATOM      1  S   UNL     1      11.866   7.990   5.422  0.00  0.00    +0.062 S 
ATOM      4  O   UNL     1      12.547   6.933   4.714  0.00  0.00    -0.153 OA
ATOM      5  O   UNL     1      11.084   8.984   4.727  0.00  0.00    -0.153 OA
BRANCH   1  28
ATOM      2  F   UNL     1       8.455   5.524   9.546  0.00  0.00    -0.205 F 
ATOM     28  C   UNL     1      10.845   7.252   6.657  0.00  0.00    +0.106 A 
ATOM     31  C   UNL     1       9.653   7.869   7.037  0.00  0.00    +0.031 A 
ATOM     32  C   UNL     1      11.231   6.052   7.253  0.00  0.00    +0.031 A 
ATOM     33  C   UNL     1       8.846   7.285   8.013  0.00  0.00    +0.040 A 
ATOM     34  C   UNL     1      10.423   5.468   8.230  0.00  0.00    +0.040 A 
ATOM     35  C   UNL     1       9.231   6.085   8.610  0.00  0.00    +0.124 A 
ENDBRANCH   1  28
ENDBRANCH   8   1
TORSDOF 5
ENDMDL
MODEL 3
REMARK VINA RESULT:      -6.8     32.079     35.518
REMARK  Name = 11912252
REMARK  5 active torsions:
REMARK  status: ('A' for Active; 'I' for Inactive)
REMARK    1  A    between atoms: S_1  and  N_8
REMARK    2  A    between atoms: S_1  and  C_28
REMARK    3  A    between atoms: N_10  and  C_13
REMARK    4  A    between atoms: N_11  and  C_25
REMARK    5  A    between atoms: C_14  and  C_24
REMARK                            x       y       z     vdW  Elec       q    Type
REMARK                         _______ _______ _______ _____ _____    ______ ____
ROOT
ATOM      3  O   UNL     1      -3.885   8.372  38.587  0.00  0.00    -0.253 OA
ATOM      8  N   UNL     1      -0.960  11.728  36.189  0.00  0.00    -0.162 NA
ATOM      9  N   UNL     1      -2.111   9.381  37.479  0.00  0.00    -0.282 N 
ATOM     10  N   UNL     1      -1.774   7.494  38.852  0.00  0.00    -0.296 N 
ATOM     14  C   UNL     1      -2.277  11.761  36.889  0.00  0.00    +0.183 C 
ATOM     15  C   UNL     1      -2.964  10.401  36.872  0.00  0.00    +0.139 C 
ATOM     18  C   UNL     1      -0.410  10.362  35.954  0.00  0.00    +0.129 C 
ATOM     19  C   UNL     1      -0.683   9.454  37.147  0.00  0.00    +0.126 C 
ATOM     23  C   UNL     1      -2.679   8.411  38.324  0.00  0.00    +0.303 C 
ATOM     36  H   UNL     1      -0.780   7.638  38.720  0.00  0.00    +0.151 HD
ENDROOT
BRANCH  10  13
ATOM     13  C   UNL     1      -2.180   6.431  39.744  0.00  0.00    +0.074 C 
ATOM     16  C   UNL     1      -2.079   6.872  41.208  0.00  0.00    +0.022 C 
ATOM     17  C   UNL     1      -1.365   5.159  39.491  0.00  0.00    +0.022 C 
ATOM     20  C   UNL     1      -0.632   6.996  41.684  0.00  0.00    +0.002 C 
ATOM     21  C   UNL     1       0.082   5.285  39.970  0.00  0.00    +0.002 C 
ATOM     22  C   UNL     1       0.154   5.714  41.432  0.00  0.00    +0.000 C 
ENDBRANCH  10  13
BRANCH  14  24
ATOM      6  O   UNL     1      -3.885  13.509  36.720  0.00  0.00    -0.274 OA
ATOM     11  N   UNL     1      -2.866  12.719  34.782  0.00  0.00    -0.303 N 
ATOM     24  C   UNL     1      -3.095  12.763  36.146  0.00  0.00    +0.234 C 
ATOM     37  H   UNL     1      -2.165  12.078  34.420  0.00  0.00    +0.149 HD
BRANCH  11  25
ATOM      7  O   UNL     1      -5.075  11.728  33.513  0.00  0.00    -0.274 OA
ATOM     12  N   UNL     1      -4.754  13.125  31.735  0.00  0.00    -0.314 N 
ATOM     25  C   UNL     1      -3.548  13.568  33.841  0.00  0.00    +0.159 C 
ATOM     26  C   UNL     1      -2.553  14.366  33.010  0.00  0.00    +0.033 C 
ATOM     27  C   UNL     1      -3.289  15.117  31.912  0.00  0.00    +0.021 C 
ATOM     29  C   UNL     1      -4.494  12.697  33.021  0.00  0.00    +0.233 C 
ATOM     30  C   UNL     1      -3.983  14.117  31.007  0.00  0.00    +0.104 C 
ATOM     38  H   UNL     1      -5.427  12.586  31.199  0.00  0.00    +0.149 HD
ENDBRANCH  11  25
ENDBRANCH  14  24
BRANCH   8   1
ATOM      1  S   UNL     1       0.169  12.944  36.611  0.00  0.00    +0.062 S 
ATOM      4  O   UNL     1       1.345  12.311  37.160  0.00  0.00    -0.153 OA
ATOM      5  O   UNL     1      -0.528  13.988  37.323  0.00  0.00    -0.153 OA
BRANCH   1  28
ATOM      2  F   UNL     1       1.512  14.959  31.240  0.00  0.00    -0.205 F 
ATOM     28  C   UNL     1       0.572  13.547  35.003  0.00  0.00    +0.106 A 
ATOM     31  C   UNL     1       0.653  12.663  33.927  0.00  0.00    +0.031 A 
ATOM     32  C   UNL     1       0.808  14.907  34.809  0.00  0.00    +0.031 A 
ATOM     33  C   UNL     1       0.971  13.141  32.656  0.00  0.00    +0.040 A 
ATOM     34  C   UNL     1       1.126  15.385  33.536  0.00  0.00    +0.040 A 
ATOM     35  C   UNL     1       1.208  14.501  32.460  0.00  0.00    +0.124 A 
ENDBRANCH   1  28
ENDBRANCH   8   1
TORSDOF 5
ENDMDL
MODEL 4
REMARK VINA RESULT:      -6.7     16.118     19.975
REMARK  Name = 11912252
REMARK  5 active torsions:
REMARK  status: ('A' for Active; 'I' for Inactive)
REMARK    1  A    between atoms: S_1  and  N_8
REMARK    2  A    between atoms: S_1  and  C_28
REMARK    3  A    between atoms: N_10  and  C_13
REMARK    4  A    between atoms: N_11  and  C_25
REMARK    5  A    between atoms: C_14  and  C_24
REMARK                            x       y       z     vdW  Elec       q    Type
REMARK                         _______ _______ _______ _____ _____    ______ ____
ROOT
ATOM      3  O   UNL     1      16.066   5.821  19.447  0.00  0.00    -0.253 OA
ATOM      8  N   UNL     1      19.852   8.313  21.690  0.00  0.00    -0.162 NA
ATOM      9  N   UNL     1      17.328   7.456  20.509  0.00  0.00    -0.282 N 
ATOM     10  N   UNL     1      15.433   8.023  19.226  0.00  0.00    -0.296 N 
ATOM     14  C   UNL     1      19.696   7.006  20.986  0.00  0.00    +0.183 C 
ATOM     15  C   UNL     1      18.267   6.484  21.067  0.00  0.00    +0.139 C 
ATOM     18  C   UNL     1      18.573   9.018  21.989  0.00  0.00    +0.129 C 
ATOM     19  C   UNL     1      17.585   8.863  20.839  0.00  0.00    +0.126 C 
ATOM     23  C   UNL     1      16.260   7.013  19.709  0.00  0.00    +0.303 C 
ATOM     36  H   UNL     1      15.699   8.992  19.353  0.00  0.00    +0.151 HD
ENDROOT
BRANCH  10  13
ATOM     13  C   UNL     1      14.289   7.752  18.384  0.00  0.00    +0.074 C 
ATOM     16  C   UNL     1      13.834   9.017  17.649  0.00  0.00    +0.022 C 
ATOM     17  C   UNL     1      13.142   7.139  19.195  0.00  0.00    +0.022 C 
ATOM     20  C   UNL     1      13.166  10.027  18.581  0.00  0.00    +0.002 C 
ATOM     21  C   UNL     1      12.475   8.152  20.124  0.00  0.00    +0.002 C 
ATOM     22  C   UNL     1      12.021   9.396  19.366  0.00  0.00    +0.000 C 
ENDBRANCH  10  13
BRANCH  14  24
ATOM      6  O   UNL     1      20.526   5.827  22.881  0.00  0.00    -0.274 OA
ATOM     11  N   UNL     1      21.588   5.557  20.827  0.00  0.00    -0.303 N 
ATOM     24  C   UNL     1      20.628   6.070  21.681  0.00  0.00    +0.234 C 
ATOM     37  H   UNL     1      21.558   5.806  19.842  0.00  0.00    +0.149 HD
BRANCH  11  25
ATOM      7  O   UNL     1      24.174   6.114  20.135  0.00  0.00    -0.274 OA
ATOM     12  N   UNL     1      24.742   3.905  20.245  0.00  0.00    -0.314 N 
ATOM     25  C   UNL     1      22.619   4.648  21.257  0.00  0.00    +0.159 C 
ATOM     26  C   UNL     1      22.151   3.204  21.142  0.00  0.00    +0.033 C 
ATOM     27  C   UNL     1      23.312   2.265  21.432  0.00  0.00    +0.021 C 
ATOM     29  C   UNL     1      23.884   4.962  20.465  0.00  0.00    +0.233 C 
ATOM     30  C   UNL     1      24.408   2.502  20.411  0.00  0.00    +0.104 C 
ATOM     38  H   UNL     1      25.615   4.114  19.770  0.00  0.00    +0.149 HD
ENDBRANCH  11  25
ENDBRANCH  14  24
BRANCH   8   1
ATOM      1  S   UNL     1      21.172   9.293  21.212  0.00  0.00    +0.062 S 
ATOM      4  O   UNL     1      20.715  10.657  21.094  0.00  0.00    -0.153 OA
ATOM      5  O   UNL     1      21.865   8.633  20.132  0.00  0.00    -0.153 OA
BRANCH   1  28
ATOM      2  F   UNL     1      24.506   8.892  26.054  0.00  0.00    -0.205 F 
ATOM     28  C   UNL     1      22.170   9.173  22.661  0.00  0.00    +0.106 A 
ATOM     31  C   UNL     1      21.743   9.761  23.853  0.00  0.00    +0.031 A 
ATOM     32  C   UNL     1      23.385   8.490  22.616  0.00  0.00    +0.031 A 
ATOM     33  C   UNL     1      22.533   9.666  24.998  0.00  0.00    +0.040 A 
ATOM     34  C   UNL     1      24.174   8.395  23.763  0.00  0.00    +0.040 A 
ATOM     35  C   UNL     1      23.748   8.984  24.953  0.00  0.00    +0.124 A 
ENDBRANCH   1  28
ENDBRANCH   8   1
TORSDOF 5
ENDMDL
MODEL 5
REMARK VINA RESULT:      -6.7      3.956      9.719
REMARK  Name = 11912252
REMARK  5 active torsions:
REMARK  status: ('A' for Active; 'I' for Inactive)
REMARK    1  A    between atoms: S_1  and  N_8
REMARK    2  A    between atoms: S_1  and  C_28
REMARK    3  A    between atoms: N_10  and  C_13
REMARK    4  A    between atoms: N_11  and  C_25
REMARK    5  A    between atoms: C_14  and  C_24
REMARK                            x       y       z     vdW  Elec       q    Type
REMARK                         _______ _______ _______ _____ _____    ______ ____
ROOT
ATOM      3  O   UNL     1       9.620   8.203   3.747  0.00  0.00    -0.253 OA
ATOM      8  N   UNL     1      11.684   4.624   0.831  0.00  0.00    -0.162 NA
ATOM      9  N   UNL     1      10.441   6.177   2.961  0.00  0.00    -0.282 N 
ATOM     10  N   UNL     1      10.260   6.603   5.273  0.00  0.00    -0.296 N 
ATOM     14  C   UNL     1      11.491   6.101   0.741  0.00  0.00    +0.183 C 
ATOM     15  C   UNL     1      10.294   6.568   1.560  0.00  0.00    +0.139 C 
ATOM     18  C   UNL     1      10.953   3.965   1.951  0.00  0.00    +0.129 C 
ATOM     19  C   UNL     1      10.979   4.833   3.202  0.00  0.00    +0.126 C 
ATOM     23  C   UNL     1      10.072   7.077   3.977  0.00  0.00    +0.303 C 
ATOM     36  H   UNL     1      10.752   5.731   5.421  0.00  0.00    +0.151 HD
ENDROOT
BRANCH  10  13
ATOM     13  C   UNL     1       9.940   7.394   6.440  0.00  0.00    +0.074 C 
ATOM     16  C   UNL     1      11.150   7.513   7.374  0.00  0.00    +0.022 C 
ATOM     17  C   UNL     1       8.725   6.821   7.178  0.00  0.00    +0.022 C 
ATOM     20  C   UNL     1      11.464   6.202   8.095  0.00  0.00    +0.002 C 
ATOM     21  C   UNL     1       9.043   5.511   7.900  0.00  0.00    +0.002 C 
ATOM     22  C   UNL     1      10.243   5.659   8.830  0.00  0.00    +0.000 C 
ENDBRANCH  10  13
BRANCH  14  24
ATOM      6  O   UNL     1      12.035   7.090  -1.356  0.00  0.00    -0.274 OA
ATOM     11  N   UNL     1      10.117   5.782  -1.187  0.00  0.00    -0.303 N 
ATOM     24  C   UNL     1      11.267   6.383  -0.707  0.00  0.00    +0.234 C 
ATOM     37  H   UNL     1       9.572   5.191  -0.564  0.00  0.00    +0.149 HD
BRANCH  11  25
ATOM      7  O   UNL     1       8.373   7.804  -1.771  0.00  0.00    -0.274 OA
ATOM     12  N   UNL     1       7.531   6.645  -3.550  0.00  0.00    -0.314 N 
ATOM     25  C   UNL     1       9.665   5.918  -2.547  0.00  0.00    +0.159 C 
ATOM     26  C   UNL     1       9.402   4.555  -3.170  0.00  0.00    +0.033 C 
ATOM     27  C   UNL     1       8.761   4.733  -4.538  0.00  0.00    +0.021 C 
ATOM     29  C   UNL     1       8.459   6.853  -2.550  0.00  0.00    +0.233 C 
ATOM     30  C   UNL     1       7.437   5.453  -4.375  0.00  0.00    +0.104 C 
ATOM     38  H   UNL     1       6.755   7.297  -3.598  0.00  0.00    +0.149 HD
ENDBRANCH  11  25
ENDBRANCH  14  24
BRANCH   8   1
ATOM      1  S   UNL     1      13.252   4.029   0.486  0.00  0.00    +0.062 S 
ATOM      4  O   UNL     1      13.470   2.828   1.257  0.00  0.00    -0.153 OA
ATOM      5  O   UNL     1      14.181   5.134   0.530  0.00  0.00    -0.153 OA
BRANCH   1  28
ATOM      2  F   UNL     1      12.507   2.476  -5.149  0.00  0.00    -0.205 F 
ATOM     28  C   UNL     1      13.030   3.564  -1.201  0.00  0.00    +0.106 A 
ATOM     31  C   UNL     1      12.166   2.518  -1.528  0.00  0.00    +0.031 A 
ATOM     32  C   UNL     1      13.717   4.243  -2.207  0.00  0.00    +0.031 A 
ATOM     33  C   UNL     1      11.991   2.151  -2.862  0.00  0.00    +0.040 A 
ATOM     34  C   UNL     1      13.540   3.875  -3.541  0.00  0.00    +0.040 A 
ATOM     35  C   UNL     1      12.677   2.829  -3.868  0.00  0.00    +0.124 A 
ENDBRANCH   1  28
ENDBRANCH   8   1
TORSDOF 5
ENDMDL
MODEL 6
REMARK VINA RESULT:      -6.7     24.616     26.964
REMARK  Name = 11912252
REMARK  5 active torsions:
REMARK  status: ('A' for Active; 'I' for Inactive)
REMARK    1  A    between atoms: S_1  and  N_8
REMARK    2  A    between atoms: S_1  and  C_28
REMARK    3  A    between atoms: N_10  and  C_13
REMARK    4  A    between atoms: N_11  and  C_25
REMARK    5  A    between atoms: C_14  and  C_24
REMARK                            x       y       z     vdW  Elec       q    Type
REMARK                         _______ _______ _______ _____ _____    ______ ____
ROOT
ATOM      3  O   UNL     1     -10.557  -9.440  11.333  0.00  0.00    -0.253 OA
ATOM      8  N   UNL     1      -6.181 -10.903  13.402  0.00  0.00    -0.162 NA
ATOM      9  N   UNL     1      -8.305  -9.625  11.867  0.00  0.00    -0.282 N 
ATOM     10  N   UNL     1      -8.996  -8.689   9.818  0.00  0.00    -0.296 N 
ATOM     14  C   UNL     1      -7.597 -11.374  13.442  0.00  0.00    +0.183 C 
ATOM     15  C   UNL     1      -8.580 -10.243  13.164  0.00  0.00    +0.139 C 
ATOM     18  C   UNL     1      -5.981  -9.577  12.750  0.00  0.00    +0.129 C 
ATOM     19  C   UNL     1      -6.889  -9.427  11.536  0.00  0.00    +0.126 C 
ATOM     23  C   UNL     1      -9.374  -9.263  11.028  0.00  0.00    +0.303 C 
ATOM     36  H   UNL     1      -8.020  -8.680   9.549  0.00  0.00    +0.151 HD
ENDROOT
BRANCH  10  13
ATOM     13  C   UNL     1      -9.962  -8.260   8.830  0.00  0.00    +0.074 C 
ATOM     16  C   UNL     1      -9.774  -9.017   7.511  0.00  0.00    +0.022 C 
ATOM     17  C   UNL     1      -9.892  -6.745   8.615  0.00  0.00    +0.022 C 
ATOM     20  C   UNL     1      -8.512  -8.586   6.763  0.00  0.00    +0.002 C 
ATOM     21  C   UNL     1      -8.631  -6.317   7.864  0.00  0.00    +0.002 C 
ATOM     22  C   UNL     1      -8.473  -7.076   6.551  0.00  0.00    +0.000 C 
ENDBRANCH  10  13
BRANCH  14  24
ATOM      6  O   UNL     1      -8.313 -13.002  15.026  0.00  0.00    -0.274 OA
ATOM     11  N   UNL     1      -7.364 -11.019  15.793  0.00  0.00    -0.303 N 
ATOM     24  C   UNL     1      -7.798 -11.905  14.822  0.00  0.00    +0.234 C 
ATOM     37  H   UNL     1      -6.925 -10.148  15.506  0.00  0.00    +0.149 HD
BRANCH  11  25
ATOM      7  O   UNL     1      -8.200  -8.995  17.430  0.00  0.00    -0.274 OA
ATOM     12  N   UNL     1      -7.097  -9.901  19.213  0.00  0.00    -0.314 N 
ATOM     25  C   UNL     1      -7.468 -11.284  17.205  0.00  0.00    +0.159 C 
ATOM     26  C   UNL     1      -6.307 -12.146  17.681  0.00  0.00    +0.033 C 
ATOM     27  C   UNL     1      -6.346 -12.263  19.197  0.00  0.00    +0.021 C 
ATOM     29  C   UNL     1      -7.594  -9.947  17.926  0.00  0.00    +0.233 C 
ATOM     30  C   UNL     1      -6.203 -10.880  19.804  0.00  0.00    +0.104 C 
ATOM     38  H   UNL     1      -7.227  -9.033  19.724  0.00  0.00    +0.149 HD
ENDBRANCH  11  25
ENDBRANCH  14  24
BRANCH   8   1
ATOM      1  S   UNL     1      -4.983 -12.089  13.107  0.00  0.00    +0.062 S 
ATOM      4  O   UNL     1      -4.626 -12.046  11.708  0.00  0.00    -0.153 OA
ATOM      5  O   UNL     1      -5.387 -13.318  13.746  0.00  0.00    -0.153 OA
BRANCH   1  28
ATOM      2  F   UNL     1      -0.526  -9.790  16.201  0.00  0.00    -0.205 F 
ATOM     28  C   UNL     1      -3.649 -11.400  14.033  0.00  0.00    +0.106 A 
ATOM     31  C   UNL     1      -3.641 -11.500  15.425  0.00  0.00    +0.031 A 
ATOM     32  C   UNL     1      -2.602 -10.757  13.374  0.00  0.00    +0.031 A 
ATOM     33  C   UNL     1      -2.587 -10.955  16.156  0.00  0.00    +0.040 A 
ATOM     34  C   UNL     1      -1.546 -10.213  14.107  0.00  0.00    +0.040 A 
ATOM     35  C   UNL     1      -1.539 -10.312  15.498  0.00  0.00    +0.124 A 
ENDBRANCH   1  28
ENDBRANCH   8   1
TORSDOF 5
ENDMDL
MODEL 7
REMARK VINA RESULT:      -6.6      4.423      9.095
REMARK  Name = 11912252
REMARK  5 active torsions:
REMARK  status: ('A' for Active; 'I' for Inactive)
REMARK    1  A    between atoms: S_1  and  N_8
REMARK    2  A    between atoms: S_1  and  C_28
REMARK    3  A    between atoms: N_10  and  C_13
REMARK    4  A    between atoms: N_11  and  C_25
REMARK    5  A    between atoms: C_14  and  C_24
REMARK                            x       y       z     vdW  Elec       q    Type
REMARK                         _______ _______ _______ _____ _____    ______ ____
ROOT
ATOM      3  O   UNL     1      13.244   8.365   5.010  0.00  0.00    -0.253 OA
ATOM      8  N   UNL     1      13.288   5.238   1.036  0.00  0.00    -0.162 NA
ATOM      9  N   UNL     1      12.665   6.738   3.457  0.00  0.00    -0.282 N 
ATOM     10  N   UNL     1      11.751   6.726   5.630  0.00  0.00    -0.296 N 
ATOM     14  C   UNL     1      14.247   6.199   1.654  0.00  0.00    +0.183 C 
ATOM     15  C   UNL     1      13.529   7.304   2.422  0.00  0.00    +0.139 C 
ATOM     18  C   UNL     1      11.899   5.305   1.576  0.00  0.00    +0.129 C 
ATOM     19  C   UNL     1      11.912   5.535   3.082  0.00  0.00    +0.126 C 
ATOM     23  C   UNL     1      12.599   7.352   4.721  0.00  0.00    +0.303 C 
ATOM     36  H   UNL     1      11.344   5.828   5.400  0.00  0.00    +0.151 HD
ENDROOT
BRANCH  10  13
ATOM     13  C   UNL     1      11.564   7.216   6.978  0.00  0.00    +0.074 C 
ATOM     16  C   UNL     1      10.990   6.124   7.886  0.00  0.00    +0.022 C 
ATOM     17  C   UNL     1      10.681   8.468   6.990  0.00  0.00    +0.022 C 
ATOM     20  C   UNL     1       9.526   5.814   7.577  0.00  0.00    +0.002 C 
ATOM     21  C   UNL     1       9.217   8.155   6.683  0.00  0.00    +0.002 C 
ATOM     22  C   UNL     1       8.667   7.074   7.607  0.00  0.00    +0.000 C 
ENDBRANCH  10  13
BRANCH  14  24
ATOM      6  O   UNL     1      14.463   7.400  -0.390  0.00  0.00    -0.274 OA
ATOM     11  N   UNL     1      16.370   6.510   0.605  0.00  0.00    -0.303 N 
ATOM     24  C   UNL     1      15.015   6.779   0.515  0.00  0.00    +0.234 C 
ATOM     37  H   UNL     1      16.721   6.010   1.418  0.00  0.00    +0.149 HD
BRANCH  11  25
ATOM      7  O   UNL     1      17.153   4.715  -1.302  0.00  0.00    -0.274 OA
ATOM     12  N   UNL     1      19.151   5.787  -1.576  0.00  0.00    -0.314 N 
ATOM     25  C   UNL     1      17.326   6.940  -0.382  0.00  0.00    +0.159 C 
ATOM     26  C   UNL     1      18.400   7.816   0.249  0.00  0.00    +0.033 C 
ATOM     27  C   UNL     1      19.486   8.108  -0.774  0.00  0.00    +0.021 C 
ATOM     29  C   UNL     1      17.863   5.699  -1.087  0.00  0.00    +0.233 C 
ATOM     30  C   UNL     1      20.122   6.801  -1.208  0.00  0.00    +0.104 C 
ATOM     38  H   UNL     1      19.498   4.989  -2.098  0.00  0.00    +0.149 HD
ENDBRANCH  11  25
ENDBRANCH  14  24
BRANCH   8   1
ATOM      1  S   UNL     1      13.890   3.678   0.667  0.00  0.00    +0.062 S 
ATOM      4  O   UNL     1      13.155   2.705   1.440  0.00  0.00    -0.153 OA
ATOM      5  O   UNL     1      15.332   3.727   0.690  0.00  0.00    -0.153 OA
BRANCH   1  28
ATOM      2  F   UNL     1      12.155   3.245  -4.947  0.00  0.00    -0.205 F 
ATOM     28  C   UNL     1      13.370   3.549  -1.013  0.00  0.00    +0.106 A 
ATOM     31  C   UNL     1      13.999   4.311  -1.998  0.00  0.00    +0.031 A 
ATOM     32  C   UNL     1      12.331   2.685  -1.357  0.00  0.00    +0.031 A 
ATOM     33  C   UNL     1      13.588   4.208  -3.327  0.00  0.00    +0.040 A 
ATOM     34  C   UNL     1      11.920   2.582  -2.686  0.00  0.00    +0.040 A 
ATOM     35  C   UNL     1      12.549   3.344  -3.671  0.00  0.00    +0.124 A 
ENDBRANCH   1  28
ENDBRANCH   8   1
TORSDOF 5
ENDMDL
MODEL 8
REMARK VINA RESULT:      -6.5      4.633      7.056
REMARK  Name = 11912252
REMARK  5 active torsions:
REMARK  status: ('A' for Active; 'I' for Inactive)
REMARK    1  A    between atoms: S_1  and  N_8
REMARK    2  A    between atoms: S_1  and  C_28
REMARK    3  A    between atoms: N_10  and  C_13
REMARK    4  A    between atoms: N_11  and  C_25
REMARK    5  A    between atoms: C_14  and  C_24
REMARK                            x       y       z     vdW  Elec       q    Type
REMARK                         _______ _______ _______ _____ _____    ______ ____
ROOT
ATOM      3  O   UNL     1       7.362   9.976   0.940  0.00  0.00    -0.253 OA
ATOM      8  N   UNL     1      10.762   6.243   0.662  0.00  0.00    -0.162 NA
ATOM      9  N   UNL     1       8.882   8.410   0.145  0.00  0.00    -0.282 N 
ATOM     10  N   UNL     1       7.218   9.314  -1.260  0.00  0.00    -0.296 N 
ATOM     14  C   UNL     1       9.908   6.838   1.731  0.00  0.00    +0.183 C 
ATOM     15  C   UNL     1       9.559   8.292   1.436  0.00  0.00    +0.139 C 
ATOM     18  C   UNL     1      10.791   7.012  -0.615  0.00  0.00    +0.129 C 
ATOM     19  C   UNL     1       9.414   7.578  -0.940  0.00  0.00    +0.126 C 
ATOM     23  C   UNL     1       7.789   9.286   0.010  0.00  0.00    +0.303 C 
ATOM     36  H   UNL     1       7.511   8.641  -1.956  0.00  0.00    +0.151 HD
ENDROOT
BRANCH  10  13
ATOM     13  C   UNL     1       6.084  10.152  -1.579  0.00  0.00    +0.074 C 
ATOM     16  C   UNL     1       4.769   9.381  -1.427  0.00  0.00    +0.022 C 
ATOM     17  C   UNL     1       6.218  10.747  -2.985  0.00  0.00    +0.022 C 
ATOM     20  C   UNL     1       4.570   8.339  -2.528  0.00  0.00    +0.002 C 
ATOM     21  C   UNL     1       6.017   9.704  -4.084  0.00  0.00    +0.002 C 
ATOM     22  C   UNL     1       4.697   8.958  -3.916  0.00  0.00    +0.000 C 
ENDBRANCH  10  13
BRANCH  14  24
ATOM      6  O   UNL     1      11.914   7.025   3.000  0.00  0.00    -0.274 OA
ATOM     11  N   UNL     1       9.971   6.301   4.058  0.00  0.00    -0.303 N 
ATOM     24  C   UNL     1      10.718   6.745   2.981  0.00  0.00    +0.234 C 
ATOM     37  H   UNL     1       8.978   6.128   3.932  0.00  0.00    +0.149 HD
BRANCH  11  25
ATOM      7  O   UNL     1      10.060   3.757   5.055  0.00  0.00    -0.274 OA
ATOM     12  N   UNL     1      10.008   4.533   7.203  0.00  0.00    -0.314 N 
ATOM     25  C   UNL     1      10.525   6.104   5.373  0.00  0.00    +0.159 C 
ATOM     26  C   UNL     1      10.092   7.219   6.315  0.00  0.00    +0.033 C 
ATOM     27  C   UNL     1      10.543   6.895   7.731  0.00  0.00    +0.021 C 
ATOM     29  C   UNL     1      10.141   4.704   5.840  0.00  0.00    +0.233 C 
ATOM     30  C   UNL     1       9.885   5.603   8.176  0.00  0.00    +0.104 C 
ATOM     38  H   UNL     1       9.810   3.592   7.529  0.00  0.00    +0.149 HD
ENDBRANCH  11  25
ENDBRANCH  14  24
BRANCH   8   1
ATOM      1  S   UNL     1      10.750   4.536   0.527  0.00  0.00    +0.062 S 
ATOM      4  O   UNL     1      10.207   4.179  -0.762  0.00  0.00    -0.153 OA
ATOM      5  O   UNL     1      10.219   3.984   1.750  0.00  0.00    -0.153 OA
BRANCH   1  28
ATOM      2  F   UNL     1      16.551   3.512   0.414  0.00  0.00    -0.205 F 
ATOM     28  C   UNL     1      12.487   4.229   0.494  0.00  0.00    +0.106 A 
ATOM     31  C   UNL     1      13.200   4.387  -0.695  0.00  0.00    +0.031 A 
ATOM     32  C   UNL     1      13.146   3.830   1.655  0.00  0.00    +0.031 A 
ATOM     33  C   UNL     1      14.573   4.144  -0.721  0.00  0.00    +0.040 A 
ATOM     34  C   UNL     1      14.520   3.587   1.628  0.00  0.00    +0.040 A 
ATOM     35  C   UNL     1      15.233   3.744   0.440  0.00  0.00    +0.124 A 
ENDBRANCH   1  28
ENDBRANCH   8   1
TORSDOF 5
ENDMDL
MODEL 9
REMARK VINA RESULT:      -6.5     26.811     30.922
REMARK  Name = 11912252
REMARK  5 active torsions:
REMARK  status: ('A' for Active; 'I' for Inactive)
REMARK    1  A    between atoms: S_1  and  N_8
REMARK    2  A    between atoms: S_1  and  C_28
REMARK    3  A    between atoms: N_10  and  C_13
REMARK    4  A    between atoms: N_11  and  C_25
REMARK    5  A    between atoms: C_14  and  C_24
REMARK                            x       y       z     vdW  Elec       q    Type
REMARK                         _______ _______ _______ _____ _____    ______ ____
ROOT
ATOM      3  O   UNL     1     -17.222   5.298  20.554  0.00  0.00    -0.253 OA
ATOM      8  N   UNL     1     -13.488   8.699  20.300  0.00  0.00    -0.162 NA
ATOM      9  N   UNL     1     -15.253   6.468  20.939  0.00  0.00    -0.282 N 
ATOM     10  N   UNL     1     -16.183   5.073  22.596  0.00  0.00    -0.296 N 
ATOM     14  C   UNL     1     -14.837   8.541  19.684  0.00  0.00    +0.183 C 
ATOM     15  C   UNL     1     -15.260   7.078  19.610  0.00  0.00    +0.139 C 
ATOM     18  C   UNL     1     -12.995   7.503  21.044  0.00  0.00    +0.129 C 
ATOM     19  C   UNL     1     -14.130   6.835  21.810  0.00  0.00    +0.126 C 
ATOM     23  C   UNL     1     -16.288   5.590  21.308  0.00  0.00    +0.303 C 
ATOM     36  H   UNL     1     -15.479   5.437  23.226  0.00  0.00    +0.151 HD
ENDROOT
BRANCH  10  13
ATOM     13  C   UNL     1     -17.160   4.159  23.145  0.00  0.00    +0.074 C 
ATOM     16  C   UNL     1     -18.059   4.862  24.168  0.00  0.00    +0.022 C 
ATOM     17  C   UNL     1     -16.480   2.930  23.756  0.00  0.00    +0.022 C 
ATOM     20  C   UNL     1     -17.325   5.182  25.470  0.00  0.00    +0.002 C 
ATOM     21  C   UNL     1     -15.749   3.252  25.059  0.00  0.00    +0.002 C 
ATOM     22  C   UNL     1     -16.668   3.941  26.064  0.00  0.00    +0.000 C 
ENDBRANCH  10  13
BRANCH  14  24
ATOM      6  O   UNL     1     -15.317  10.131  17.978  0.00  0.00    -0.274 OA
ATOM     11  N   UNL     1     -13.886   8.358  17.501  0.00  0.00    -0.303 N 
ATOM     24  C   UNL     1     -14.715   9.113  18.312  0.00  0.00    +0.234 C 
ATOM     37  H   UNL     1     -13.416   7.547  17.894  0.00  0.00    +0.149 HD
BRANCH  11  25
ATOM      7  O   UNL     1     -15.529   7.308  15.585  0.00  0.00    -0.274 OA
ATOM     12  N   UNL     1     -13.875   7.431  14.014  0.00  0.00    -0.314 N 
ATOM     25  C   UNL     1     -13.621   8.684  16.123  0.00  0.00    +0.159 C 
ATOM     26  C   UNL     1     -12.124   8.690  15.847  0.00  0.00    +0.033 C 
ATOM     27  C   UNL     1     -11.881   8.863  14.356  0.00  0.00    +0.021 C 
ATOM     29  C   UNL     1     -14.417   7.720  15.250  0.00  0.00    +0.233 C 
ATOM     30  C   UNL     1     -12.505   7.696  13.614  0.00  0.00    +0.104 C 
ATOM     38  H   UNL     1     -14.424   6.837  13.401  0.00  0.00    +0.149 HD
ENDBRANCH  11  25
ENDBRANCH  14  24
BRANCH   8   1
ATOM      1  S   UNL     1     -13.127  10.226  20.984  0.00  0.00    +0.062 S 
ATOM      4  O   UNL     1     -12.423  10.020  22.228  0.00  0.00    -0.153 OA
ATOM      5  O   UNL     1     -14.309  11.051  20.913  0.00  0.00    -0.153 OA
BRANCH   1  28
ATOM      2  F   UNL     1      -9.262  12.209  17.003  0.00  0.00    -0.205 F 
ATOM     28  C   UNL     1     -11.970  10.819  19.792  0.00  0.00    +0.106 A 
ATOM     31  C   UNL     1     -12.037  12.142  19.354  0.00  0.00    +0.031 A 
ATOM     32  C   UNL     1     -10.989   9.966  19.288  0.00  0.00    +0.031 A 
ATOM     33  C   UNL     1     -11.122  12.611  18.411  0.00  0.00    +0.040 A 
ATOM     34  C   UNL     1     -10.073  10.436  18.346  0.00  0.00    +0.040 A 
ATOM     35  C   UNL     1     -10.141  11.758  17.907  0.00  0.00    +0.124 A 
ENDBRANCH   1  28
ENDBRANCH   8   1
TORSDOF 5
ENDMDL
MODEL 10
REMARK VINA RESULT:      -6.5     23.659     27.073
REMARK  Name = 11912252
REMARK  5 active torsions:
REMARK  status: ('A' for Active; 'I' for Inactive)
REMARK    1  A    between atoms: S_1  and  N_8
REMARK    2  A    between atoms: S_1  and  C_28
REMARK    3  A    between atoms: N_10  and  C_13
REMARK    4  A    between atoms: N_11  and  C_25
REMARK    5  A    between atoms: C_14  and  C_24
REMARK                            x       y       z     vdW  Elec       q    Type
REMARK                         _______ _______ _______ _____ _____    ______ ____
ROOT
ATOM      3  O   UNL     1      -7.652  -9.905  14.599  0.00  0.00    -0.253 OA
ATOM      8  N   UNL     1      -6.246 -13.024  10.875  0.00  0.00    -0.162 NA
ATOM      9  N   UNL     1      -6.847 -11.737  13.421  0.00  0.00    -0.282 N 
ATOM     10  N   UNL     1      -6.216 -11.357  15.661  0.00  0.00    -0.296 N 
ATOM     14  C   UNL     1      -6.714 -11.611  10.970  0.00  0.00    +0.183 C 
ATOM     15  C   UNL     1      -7.576 -11.379  12.205  0.00  0.00    +0.139 C 
ATOM     18  C   UNL     1      -6.374 -13.812  12.135  0.00  0.00    +0.129 C 
ATOM     19  C   UNL     1      -6.031 -12.956  13.348  0.00  0.00    +0.126 C 
ATOM     23  C   UNL     1      -6.957 -10.925  14.564  0.00  0.00    +0.303 C 
ATOM     36  H   UNL     1      -5.560 -12.120  15.553  0.00  0.00    +0.151 HD
ENDROOT
BRANCH  10  13
ATOM     13  C   UNL     1      -6.206 -10.642  16.918  0.00  0.00    +0.074 C 
ATOM     16  C   UNL     1      -4.835 -10.010  17.181  0.00  0.00    +0.022 C 
ATOM     17  C   UNL     1      -6.625 -11.556  18.073  0.00  0.00    +0.022 C 
ATOM     20  C   UNL     1      -3.768 -11.048  17.527  0.00  0.00    +0.002 C 
ATOM     21  C   UNL     1      -5.555 -12.592  18.420  0.00  0.00    +0.002 C 
ATOM     22  C   UNL     1      -4.204 -11.936  18.687  0.00  0.00    +0.000 C 
ENDBRANCH  10  13
BRANCH  14  24
ATOM      6  O   UNL     1      -8.512 -12.038   9.469  0.00  0.00    -0.274 OA
ATOM     11  N   UNL     1      -6.979 -10.365   8.949  0.00  0.00    -0.303 N 
ATOM     24  C   UNL     1      -7.512 -11.374   9.732  0.00  0.00    +0.234 C 
ATOM     37  H   UNL     1      -6.162  -9.861   9.283  0.00  0.00    +0.149 HD
BRANCH  11  25
ATOM      7  O   UNL     1      -5.313 -10.113   6.797  0.00  0.00    -0.274 OA
ATOM     12  N   UNL     1      -6.707  -8.590   5.821  0.00  0.00    -0.314 N 
ATOM     25  C   UNL     1      -7.550  -9.959   7.691  0.00  0.00    +0.159 C 
ATOM     26  C   UNL     1      -8.607  -8.884   7.898  0.00  0.00    +0.033 C 
ATOM     27  C   UNL     1      -9.065  -8.351   6.549  0.00  0.00    +0.021 C 
ATOM     29  C   UNL     1      -6.408  -9.548   6.768  0.00  0.00    +0.233 C 
ATOM     30  C   UNL     1      -7.879  -7.733   5.832  0.00  0.00    +0.104 C 
ATOM     38  H   UNL     1      -5.972  -8.350   5.163  0.00  0.00    +0.149 HD
ENDBRANCH  11  25
ENDBRANCH  14  24
BRANCH   8   1
ATOM      1  S   UNL     1      -4.845 -13.311   9.934  0.00  0.00    +0.062 S 
ATOM      4  O   UNL     1      -5.106 -12.887   8.578  0.00  0.00    -0.153 OA
ATOM      5  O   UNL     1      -4.358 -14.637  10.230  0.00  0.00    -0.153 OA
BRANCH   1  28
ATOM      2  F   UNL     1      -1.181  -9.410  12.397  0.00  0.00    -0.205 F 
ATOM     28  C   UNL     1      -3.748 -12.143  10.671  0.00  0.00    +0.106 A 
ATOM     31  C   UNL     1      -3.671 -10.844  10.169  0.00  0.00    +0.031 A 
ATOM     32  C   UNL     1      -2.957 -12.519  11.757  0.00  0.00    +0.031 A 
ATOM     33  C   UNL     1      -2.804  -9.921  10.752  0.00  0.00    +0.040 A 
ATOM     34  C   UNL     1      -2.090 -11.595  12.340  0.00  0.00    +0.040 A 
ATOM     35  C   UNL     1      -2.013 -10.296  11.837  0.00  0.00    +0.124 A 
ENDBRANCH   1  28
ENDBRANCH   8   1
TORSDOF 5
ENDMDL
