MODEL 1
REMARK VINA RESULT:      -7.7      0.000      0.000
REMARK  Name = 7144272
REMARK  5 active torsions:
REMARK  status: ('A' for Active; 'I' for Inactive)
REMARK    1  A    between atoms: O_4  and  C_29
REMARK    2  A    between atoms: N_5  and  C_14
REMARK    3  A    between atoms: C_14  and  C_19
REMARK    4  A    between atoms: C_15  and  C_20
REMARK    5  A    between atoms: C_24  and  C_29
REMARK                            x       y       z     vdW  Elec       q    Type
REMARK                         _______ _______ _______ _____ _____    ______ ____
ROOT
ATOM      2  O   UNL     1      11.138   8.882  17.070  0.00  0.00    -0.268 OA
ATOM      5  N   UNL     1      12.147  10.048  21.812  0.00  0.00    -0.294 NA
ATOM      6  N   UNL     1      12.169   8.369  19.109  0.00  0.00    -0.311 N 
ATOM      7  C   UNL     1      10.809   8.008  21.255  0.00  0.00    +0.024 C 
ATOM      8  C   UNL     1      13.252   7.857  21.317  0.00  0.00    +0.051 C 
ATOM      9  C   UNL     1      11.966   7.106  21.654  0.00  0.00    +0.017 C 
ATOM     10  C   UNL     1      10.879   9.341  22.027  0.00  0.00    +0.090 C 
ATOM     11  C   UNL     1      13.295   9.183  22.116  0.00  0.00    +0.094 C 
ATOM     12  C   UNL     1      10.851   8.207  19.738  0.00  0.00    +0.130 C 
ATOM     13  C   UNL     1      13.364   8.124  19.814  0.00  0.00    +0.034 A 
ATOM     15  C   UNL     1      14.553   8.147  19.159  0.00  0.00    +0.002 A 
ATOM     16  C   UNL     1      12.152   8.674  17.736  0.00  0.00    +0.252 A 
ATOM     17  C   UNL     1      14.575   8.463  17.743  0.00  0.00    +0.015 A 
ATOM     18  C   UNL     1      13.465   8.726  17.055  0.00  0.00    +0.071 A 
ENDROOT
BRANCH  15  20
ATOM      1 CL   UNL     1      19.720   7.050  21.969  0.00  0.00    -0.084 Cl
ATOM     20  C   UNL     1      15.830   7.876  19.853  0.00  0.00    -0.016 A 
ATOM     22  C   UNL     1      16.391   6.604  19.795  0.00  0.00    +0.010 A 
ATOM     23  C   UNL     1      16.462   8.894  20.560  0.00  0.00    +0.010 A 
ATOM     26  C   UNL     1      17.596   6.347  20.451  0.00  0.00    +0.020 A 
ATOM     27  C   UNL     1      17.667   8.638  21.216  0.00  0.00    +0.020 A 
ATOM     28  C   UNL     1      18.234   7.365  21.161  0.00  0.00    +0.041 A 
ENDBRANCH  15  20
BRANCH   5  14
ATOM     14  C   UNL     1      12.198  11.280  22.593  0.00  0.00    +0.158 C 
BRANCH  14  19
ATOM      3  O   UNL     1      10.652  13.066  22.155  0.00  0.00    -0.461 OA
ATOM     19  C   UNL     1      11.788  12.465  21.762  0.00  0.00    +0.119 A 
ATOM     21  C   UNL     1      12.347  13.052  20.681  0.00  0.00    +0.046 A 
ATOM     24  C   UNL     1      10.468  14.093  21.283  0.00  0.00    +0.131 A 
ATOM     25  C   UNL     1      11.485  14.126  20.357  0.00  0.00    +0.047 A 
BRANCH  24  29
ATOM     29  C   UNL     1       9.274  14.922  21.498  0.00  0.00    +0.230 C 
BRANCH  29   4
ATOM      4  O   UNL     1       8.585  14.419  22.644  0.00  0.00    -0.387 OA
ATOM     30  H   UNL     1       8.245  15.183  23.140  0.00  0.00    +0.210 HD
ENDBRANCH  29   4
ENDBRANCH  24  29
ENDBRANCH  14  19
ENDBRANCH   5  14
TORSDOF 5
ENDMDL
MODEL 2
REMARK VINA RESULT:      -7.5      3.452      7.250
REMARK  Name = 7144272
REMARK  5 active torsions:
REMARK  status: ('A' for Active; 'I' for Inactive)
REMARK    1  A    between atoms: O_4  and  C_29
REMARK    2  A    between atoms: N_5  and  C_14
REMARK    3  A    between atoms: C_14  and  C_19
REMARK    4  A    between atoms: C_15  and  C_20
REMARK    5  A    between atoms: C_24  and  C_29
REMARK                            x       y       z     vdW  Elec       q    Type
REMARK                         _______ _______ _______ _____ _____    ______ ____
ROOT
ATOM      2  O   UNL     1      11.672   7.339  19.027  0.00  0.00    -0.268 OA
ATOM      5  N   UNL     1      15.222  10.371  20.777  0.00  0.00    -0.294 NA
ATOM      6  N   UNL     1      12.329   9.433  19.844  0.00  0.00    -0.311 N 
ATOM      7  C   UNL     1      14.061  10.876  18.619  0.00  0.00    +0.024 C 
ATOM      8  C   UNL     1      13.081  11.664  20.720  0.00  0.00    +0.051 C 
ATOM      9  C   UNL     1      13.319  12.039  19.259  0.00  0.00    +0.017 C 
ATOM     10  C   UNL     1      15.400  10.633  19.344  0.00  0.00    +0.090 C 
ATOM     11  C   UNL     1      14.443  11.438  21.420  0.00  0.00    +0.094 C 
ATOM     12  C   UNL     1      13.150   9.646  18.644  0.00  0.00    +0.130 C 
ATOM     13  C   UNL     1      12.195  10.422  20.839  0.00  0.00    +0.034 A 
ATOM     15  C   UNL     1      11.317  10.241  21.859  0.00  0.00    +0.002 A 
ATOM     16  C   UNL     1      11.604   8.228  19.876  0.00  0.00    +0.252 A 
ATOM     17  C   UNL     1      10.555   9.008  21.927  0.00  0.00    +0.015 A 
ATOM     18  C   UNL     1      10.680   8.043  21.017  0.00  0.00    +0.071 A 
ENDROOT
BRANCH  15  20
ATOM      1 CL   UNL     1      10.554  14.363  26.128  0.00  0.00    -0.084 Cl
ATOM     20  C   UNL     1      11.128  11.260  22.914  0.00  0.00    -0.016 A 
ATOM     22  C   UNL     1      10.765  12.557  22.565  0.00  0.00    +0.010 A 
ATOM     23  C   UNL     1      11.315  10.915  24.249  0.00  0.00    +0.010 A 
ATOM     26  C   UNL     1      10.588  13.519  23.560  0.00  0.00    +0.020 A 
ATOM     27  C   UNL     1      11.138  11.876  25.245  0.00  0.00    +0.020 A 
ATOM     28  C   UNL     1      10.773  13.178  24.900  0.00  0.00    +0.041 A 
ENDBRANCH  15  20
BRANCH   5  14
ATOM     14  C   UNL     1      16.511  10.192  21.440  0.00  0.00    +0.158 C 
BRANCH  14  19
ATOM      3  O   UNL     1      16.424   8.132  20.206  0.00  0.00    -0.461 OA
ATOM     19  C   UNL     1      17.100   8.844  21.124  0.00  0.00    +0.119 A 
ATOM     21  C   UNL     1      18.193   8.200  21.589  0.00  0.00    +0.046 A 
ATOM     24  C   UNL     1      17.115   6.969  20.073  0.00  0.00    +0.131 A 
ATOM     25  C   UNL     1      18.212   6.964  20.902  0.00  0.00    +0.047 A 
BRANCH  24  29
ATOM     29  C   UNL     1      16.574   5.998  19.112  0.00  0.00    +0.230 C 
BRANCH  29   4
ATOM      4  O   UNL     1      17.668   5.453  18.370  0.00  0.00    -0.387 OA
ATOM     30  H   UNL     1      18.129   6.196  17.942  0.00  0.00    +0.210 HD
ENDBRANCH  29   4
ENDBRANCH  24  29
ENDBRANCH  14  19
ENDBRANCH   5  14
TORSDOF 5
ENDMDL
MODEL 3
REMARK VINA RESULT:      -6.7     26.563     29.467
REMARK  Name = 7144272
REMARK  5 active torsions:
REMARK  status: ('A' for Active; 'I' for Inactive)
REMARK    1  A    between atoms: O_4  and  C_29
REMARK    2  A    between atoms: N_5  and  C_14
REMARK    3  A    between atoms: C_14  and  C_19
REMARK    4  A    between atoms: C_15  and  C_20
REMARK    5  A    between atoms: C_24  and  C_29
REMARK                            x       y       z     vdW  Elec       q    Type
REMARK                         _______ _______ _______ _____ _____    ______ ____
ROOT
ATOM      2  O   UNL     1      -3.981 -12.550  19.037  0.00  0.00    -0.268 OA
ATOM      5  N   UNL     1      -5.683 -11.590  14.450  0.00  0.00    -0.294 NA
ATOM      6  N   UNL     1      -5.770 -12.338  17.541  0.00  0.00    -0.311 N 
ATOM      7  C   UNL     1      -5.990 -13.850  15.479  0.00  0.00    +0.024 C 
ATOM      8  C   UNL     1      -7.657 -12.107  15.898  0.00  0.00    +0.051 C 
ATOM      9  C   UNL     1      -7.481 -13.602  15.646  0.00  0.00    +0.017 C 
ATOM     10  C   UNL     1      -5.441 -13.030  14.295  0.00  0.00    +0.090 C 
ATOM     11  C   UNL     1      -7.106 -11.314  14.688  0.00  0.00    +0.094 C 
ATOM     12  C   UNL     1      -5.292 -13.513  16.799  0.00  0.00    +0.130 C 
ATOM     13  C   UNL     1      -6.964 -11.675  17.193  0.00  0.00    +0.034 A 
ATOM     15  C   UNL     1      -7.443 -10.684  17.988  0.00  0.00    +0.002 A 
ATOM     16  C   UNL     1      -5.021 -11.995  18.680  0.00  0.00    +0.252 A 
ATOM     17  C   UNL     1      -6.694 -10.299  19.169  0.00  0.00    +0.015 A 
ATOM     18  C   UNL     1      -5.548 -10.889  19.509  0.00  0.00    +0.071 A 
ENDROOT
BRANCH  15  20
ATOM      1 CL   UNL     1     -12.534  -7.810  16.715  0.00  0.00    -0.084 Cl
ATOM     20  C   UNL     1      -8.702  -9.973  17.674  0.00  0.00    -0.016 A 
ATOM     22  C   UNL     1      -9.921 -10.530  18.048  0.00  0.00    +0.010 A 
ATOM     23  C   UNL     1      -8.658  -8.754  17.005  0.00  0.00    +0.010 A 
ATOM     26  C   UNL     1     -11.108  -9.860  17.751  0.00  0.00    +0.020 A 
ATOM     27  C   UNL     1      -9.845  -8.083  16.708  0.00  0.00    +0.020 A 
ATOM     28  C   UNL     1     -11.070  -8.637  17.081  0.00  0.00    +0.041 A 
ENDBRANCH  15  20
BRANCH   5  14
ATOM     14  C   UNL     1      -5.193 -10.850  13.290  0.00  0.00    +0.158 C 
BRANCH  14  19
ATOM      3  O   UNL     1      -3.207 -10.457  14.586  0.00  0.00    -0.461 OA
ATOM     19  C   UNL     1      -3.701 -10.672  13.354  0.00  0.00    +0.119 A 
ATOM     21  C   UNL     1      -2.744 -10.686  12.399  0.00  0.00    +0.046 A 
ATOM     24  C   UNL     1      -1.865 -10.326  14.418  0.00  0.00    +0.131 A 
ATOM     25  C   UNL     1      -1.531 -10.459  13.090  0.00  0.00    +0.047 A 
BRANCH  24  29
ATOM     29  C   UNL     1      -1.078 -10.079  15.634  0.00  0.00    +0.230 C 
BRANCH  29   4
ATOM      4  O   UNL     1      -1.463 -11.046  16.614  0.00  0.00    -0.387 OA
ATOM     30  H   UNL     1      -0.651 -11.370  17.040  0.00  0.00    +0.210 HD
ENDBRANCH  29   4
ENDBRANCH  24  29
ENDBRANCH  14  19
ENDBRANCH   5  14
TORSDOF 5
ENDMDL
MODEL 4
REMARK VINA RESULT:      -6.6     14.427     17.996
REMARK  Name = 7144272
REMARK  5 active torsions:
REMARK  status: ('A' for Active; 'I' for Inactive)
REMARK    1  A    between atoms: O_4  and  C_29
REMARK    2  A    between atoms: N_5  and  C_14
REMARK    3  A    between atoms: C_14  and  C_19
REMARK    4  A    between atoms: C_15  and  C_20
REMARK    5  A    between atoms: C_24  and  C_29
REMARK                            x       y       z     vdW  Elec       q    Type
REMARK                         _______ _______ _______ _____ _____    ______ ____
ROOT
ATOM      2  O   UNL     1      13.268   3.379   1.804  0.00  0.00    -0.268 OA
ATOM      5  N   UNL     1      13.316   7.243   4.955  0.00  0.00    -0.294 NA
ATOM      6  N   UNL     1      12.795   5.626   2.265  0.00  0.00    -0.311 N 
ATOM      7  C   UNL     1      14.649   7.304   2.839  0.00  0.00    +0.024 C 
ATOM      8  C   UNL     1      12.312   8.032   2.803  0.00  0.00    +0.051 C 
ATOM      9  C   UNL     1      13.699   8.327   2.237  0.00  0.00    +0.017 C 
ATOM     10  C   UNL     1      14.654   7.418   4.376  0.00  0.00    +0.090 C 
ATOM     11  C   UNL     1      12.349   8.165   4.345  0.00  0.00    +0.094 C 
ATOM     12  C   UNL     1      14.233   5.913   2.356  0.00  0.00    +0.130 C 
ATOM     13  C   UNL     1      11.826   6.641   2.389  0.00  0.00    +0.034 A 
ATOM     15  C   UNL     1      10.517   6.359   2.159  0.00  0.00    +0.002 A 
ATOM     16  C   UNL     1      12.461   4.300   1.939  0.00  0.00    +0.252 A 
ATOM     17  C   UNL     1      10.135   5.000   1.824  0.00  0.00    +0.015 A 
ATOM     18  C   UNL     1      11.025   4.013   1.727  0.00  0.00    +0.071 A 
ENDROOT
BRANCH  15  20
ATOM      1 CL   UNL     1       6.271  10.555   2.552  0.00  0.00    -0.084 Cl
ATOM     20  C   UNL     1       9.468   7.396   2.256  0.00  0.00    -0.016 A 
ATOM     22  C   UNL     1       8.793   7.585   3.458  0.00  0.00    +0.010 A 
ATOM     23  C   UNL     1       9.161   8.175   1.145  0.00  0.00    +0.010 A 
ATOM     26  C   UNL     1       7.802   8.564   3.550  0.00  0.00    +0.020 A 
ATOM     27  C   UNL     1       8.171   9.153   1.236  0.00  0.00    +0.020 A 
ATOM     28  C   UNL     1       7.491   9.348   2.439  0.00  0.00    +0.041 A 
ENDBRANCH  15  20
BRANCH   5  14
ATOM     14  C   UNL     1      13.349   7.403   6.407  0.00  0.00    +0.158 C 
BRANCH  14  19
ATOM      3  O   UNL     1      11.630   6.086   7.446  0.00  0.00    -0.461 OA
ATOM     19  C   UNL     1      11.967   7.305   6.993  0.00  0.00    +0.119 A 
ATOM     21  C   UNL     1      10.984   8.218   7.156  0.00  0.00    +0.046 A 
ATOM     24  C   UNL     1      10.365   6.218   7.926  0.00  0.00    +0.131 A 
ATOM     25  C   UNL     1       9.923   7.511   7.769  0.00  0.00    +0.047 A 
BRANCH  24  29
ATOM     29  C   UNL     1       9.753   5.006   8.488  0.00  0.00    +0.230 C 
BRANCH  29   4
ATOM      4  O   UNL     1      10.544   3.884   8.090  0.00  0.00    -0.387 OA
ATOM     30  H   UNL     1      11.403   4.225   7.788  0.00  0.00    +0.210 HD
ENDBRANCH  29   4
ENDBRANCH  24  29
ENDBRANCH  14  19
ENDBRANCH   5  14
TORSDOF 5
ENDMDL
MODEL 5
REMARK VINA RESULT:      -6.5     14.642     18.301
REMARK  Name = 7144272
REMARK  5 active torsions:
REMARK  status: ('A' for Active; 'I' for Inactive)
REMARK    1  A    between atoms: O_4  and  C_29
REMARK    2  A    between atoms: N_5  and  C_14
REMARK    3  A    between atoms: C_14  and  C_19
REMARK    4  A    between atoms: C_15  and  C_20
REMARK    5  A    between atoms: C_24  and  C_29
REMARK                            x       y       z     vdW  Elec       q    Type
REMARK                         _______ _______ _______ _____ _____    ______ ____
ROOT
ATOM      2  O   UNL     1      12.798   9.771   6.474  0.00  0.00    -0.268 OA
ATOM      5  N   UNL     1       9.856   5.916   5.314  0.00  0.00    -0.294 NA
ATOM      6  N   UNL     1      10.657   8.848   6.255  0.00  0.00    -0.311 N 
ATOM      7  C   UNL     1       9.913   6.823   7.645  0.00  0.00    +0.024 C 
ATOM      8  C   UNL     1       8.380   7.812   6.012  0.00  0.00    +0.051 C 
ATOM      9  C   UNL     1       8.522   7.413   7.479  0.00  0.00    +0.017 C 
ATOM     10  C   UNL     1      10.086   5.596   6.728  0.00  0.00    +0.090 C 
ATOM     11  C   UNL     1       8.549   6.558   5.121  0.00  0.00    +0.094 C 
ATOM     12  C   UNL     1      10.942   7.919   7.358  0.00  0.00    +0.130 C 
ATOM     13  C   UNL     1       9.395   8.892   5.629  0.00  0.00    +0.034 A 
ATOM     15  C   UNL     1       9.129   9.859   4.713  0.00  0.00    +0.002 A 
ATOM     16  C   UNL     1      11.684   9.757   5.948  0.00  0.00    +0.252 A 
ATOM     17  C   UNL     1      10.167  10.811   4.367  0.00  0.00    +0.015 A 
ATOM     18  C   UNL     1      11.378  10.778   4.922  0.00  0.00    +0.071 A 
ENDROOT
BRANCH  15  20
ATOM      1 CL   UNL     1       3.806  10.256   2.010  0.00  0.00    -0.084 Cl
ATOM     20  C   UNL     1       7.813   9.958   4.045  0.00  0.00    -0.016 A 
ATOM     22  C   UNL     1       6.760  10.603   4.685  0.00  0.00    +0.010 A 
ATOM     23  C   UNL     1       7.637   9.403   2.781  0.00  0.00    +0.010 A 
ATOM     26  C   UNL     1       5.518  10.695   4.055  0.00  0.00    +0.020 A 
ATOM     27  C   UNL     1       6.396   9.496   2.150  0.00  0.00    +0.020 A 
ATOM     28  C   UNL     1       5.336  10.142   2.788  0.00  0.00    +0.041 A 
ENDBRANCH  15  20
BRANCH   5  14
ATOM     14  C   UNL     1       9.982   4.723   4.481  0.00  0.00    +0.158 C 
BRANCH  14  19
ATOM      3  O   UNL     1      11.575   3.853   2.906  0.00  0.00    -0.461 OA
ATOM     19  C   UNL     1      10.945   4.954   3.348  0.00  0.00    +0.119 A 
ATOM     21  C   UNL     1      11.305   6.071   2.678  0.00  0.00    +0.046 A 
ATOM     24  C   UNL     1      12.383   4.279   1.900  0.00  0.00    +0.131 A 
ATOM     25  C   UNL     1      12.253   5.637   1.721  0.00  0.00    +0.047 A 
BRANCH  24  29
ATOM     29  C   UNL     1      13.196   3.250   1.238  0.00  0.00    +0.230 C 
BRANCH  29   4
ATOM      4  O   UNL     1      14.418   3.114   1.966  0.00  0.00    -0.387 OA
ATOM     30  H   UNL     1      14.206   2.688   2.815  0.00  0.00    +0.210 HD
ENDBRANCH  29   4
ENDBRANCH  24  29
ENDBRANCH  14  19
ENDBRANCH   5  14
TORSDOF 5
ENDMDL
MODEL 6
REMARK VINA RESULT:      -6.4     27.303     29.125
REMARK  Name = 7144272
REMARK  5 active torsions:
REMARK  status: ('A' for Active; 'I' for Inactive)
REMARK    1  A    between atoms: O_4  and  C_29
REMARK    2  A    between atoms: N_5  and  C_14
REMARK    3  A    between atoms: C_14  and  C_19
REMARK    4  A    between atoms: C_15  and  C_20
REMARK    5  A    between atoms: C_24  and  C_29
REMARK                            x       y       z     vdW  Elec       q    Type
REMARK                         _______ _______ _______ _____ _____    ______ ____
ROOT
ATOM      2  O   UNL     1      -5.704 -15.437  16.952  0.00  0.00    -0.268 OA
ATOM      5  N   UNL     1      -6.282 -10.485  17.048  0.00  0.00    -0.294 NA
ATOM      6  N   UNL     1      -4.871 -13.289  16.529  0.00  0.00    -0.311 N 
ATOM      7  C   UNL     1      -4.503 -11.590  18.417  0.00  0.00    +0.024 C 
ATOM      8  C   UNL     1      -4.017 -10.966  16.100  0.00  0.00    +0.051 C 
ATOM      9  C   UNL     1      -3.419 -11.040  17.503  0.00  0.00    +0.017 C 
ATOM     10  C   UNL     1      -5.737 -10.667  18.399  0.00  0.00    +0.090 C 
ATOM     11  C   UNL     1      -5.245 -10.024  16.115  0.00  0.00    +0.094 C 
ATOM     12  C   UNL     1      -4.833 -13.017  17.973  0.00  0.00    +0.130 C 
ATOM     13  C   UNL     1      -4.402 -12.354  15.585  0.00  0.00    +0.034 A 
ATOM     15  C   UNL     1      -4.324 -12.700  14.274  0.00  0.00    +0.002 A 
ATOM     16  C   UNL     1      -5.299 -14.578  16.167  0.00  0.00    +0.252 A 
ATOM     17  C   UNL     1      -4.761 -14.020  13.862  0.00  0.00    +0.015 A 
ATOM     18  C   UNL     1      -5.235 -14.915  14.727  0.00  0.00    +0.071 A 
ENDROOT
BRANCH  15  20
ATOM      1 CL   UNL     1      -2.283  -8.894  10.132  0.00  0.00    -0.084 Cl
ATOM     20  C   UNL     1      -3.819 -11.759  13.250  0.00  0.00    -0.016 A 
ATOM     22  C   UNL     1      -2.450 -11.652  13.025  0.00  0.00    +0.010 A 
ATOM     23  C   UNL     1      -4.716 -10.987  12.519  0.00  0.00    +0.010 A 
ATOM     26  C   UNL     1      -1.973 -10.764  12.059  0.00  0.00    +0.020 A 
ATOM     27  C   UNL     1      -4.241 -10.099  11.553  0.00  0.00    +0.020 A 
ATOM     28  C   UNL     1      -2.869  -9.988  11.323  0.00  0.00    +0.041 A 
ENDBRANCH  15  20
BRANCH   5  14
ATOM     14  C   UNL     1      -7.420  -9.569  17.062  0.00  0.00    +0.158 C 
BRANCH  14  19
ATOM      3  O   UNL     1      -9.110 -10.198  18.649  0.00  0.00    -0.461 OA
ATOM     19  C   UNL     1      -8.698 -10.299  17.374  0.00  0.00    +0.119 A 
ATOM     21  C   UNL     1      -9.525 -11.047  16.611  0.00  0.00    +0.046 A 
ATOM     24  C   UNL     1     -10.262 -10.917  18.713  0.00  0.00    +0.131 A 
ATOM     25  C   UNL     1     -10.559 -11.460  17.484  0.00  0.00    +0.047 A 
BRANCH  24  29
ATOM     29  C   UNL     1     -10.926 -10.968  20.023  0.00  0.00    +0.230 C 
BRANCH  29   4
ATOM      4  O   UNL     1     -10.307  -9.998  20.871  0.00  0.00    -0.387 OA
ATOM     30  H   UNL     1      -9.606 -10.452  21.371  0.00  0.00    +0.210 HD
ENDBRANCH  29   4
ENDBRANCH  24  29
ENDBRANCH  14  19
ENDBRANCH   5  14
TORSDOF 5
ENDMDL
MODEL 7
REMARK VINA RESULT:      -6.4     14.538     17.439
REMARK  Name = 7144272
REMARK  5 active torsions:
REMARK  status: ('A' for Active; 'I' for Inactive)
REMARK    1  A    between atoms: O_4  and  C_29
REMARK    2  A    between atoms: N_5  and  C_14
REMARK    3  A    between atoms: C_14  and  C_19
REMARK    4  A    between atoms: C_15  and  C_20
REMARK    5  A    between atoms: C_24  and  C_29
REMARK                            x       y       z     vdW  Elec       q    Type
REMARK                         _______ _______ _______ _____ _____    ______ ____
ROOT
ATOM      2  O   UNL     1       7.064   9.572   4.708  0.00  0.00    -0.268 OA
ATOM      5  N   UNL     1      11.272   7.636   6.554  0.00  0.00    -0.294 NA
ATOM      6  N   UNL     1       8.575   7.790   4.873  0.00  0.00    -0.311 N 
ATOM      7  C   UNL     1       9.050   6.628   7.111  0.00  0.00    +0.024 C 
ATOM      8  C   UNL     1      10.220   5.903   5.086  0.00  0.00    +0.051 C 
ATOM      9  C   UNL     1       9.351   5.417   6.243  0.00  0.00    +0.017 C 
ATOM     10  C   UNL     1      10.360   7.248   7.637  0.00  0.00    +0.090 C 
ATOM     11  C   UNL     1      11.530   6.509   5.648  0.00  0.00    +0.094 C 
ATOM     12  C   UNL     1       8.222   7.619   6.290  0.00  0.00    +0.130 C 
ATOM     13  C   UNL     1       9.475   6.924   4.222  0.00  0.00    +0.034 A 
ATOM     15  C   UNL     1       9.665   7.029   2.882  0.00  0.00    +0.002 A 
ATOM     16  C   UNL     1       7.872   8.799   4.191  0.00  0.00    +0.252 A 
ATOM     17  C   UNL     1       8.960   8.062   2.145  0.00  0.00    +0.015 A 
ATOM     18  C   UNL     1       8.123   8.913   2.738  0.00  0.00    +0.071 A 
ENDROOT
BRANCH  15  20
ATOM      1 CL   UNL     1      13.386   3.389  -0.068  0.00  0.00    -0.084 Cl
ATOM     20  C   UNL     1      10.585   6.129   2.152  0.00  0.00    -0.016 A 
ATOM     22  C   UNL     1      10.099   4.951   1.593  0.00  0.00    +0.010 A 
ATOM     23  C   UNL     1      11.929   6.466   2.031  0.00  0.00    +0.010 A 
ATOM     26  C   UNL     1      10.967   4.102   0.905  0.00  0.00    +0.020 A 
ATOM     27  C   UNL     1      12.798   5.617   1.344  0.00  0.00    +0.020 A 
ATOM     28  C   UNL     1      12.316   4.435   0.780  0.00  0.00    +0.041 A 
ENDBRANCH  15  20
BRANCH   5  14
ATOM     14  C   UNL     1      12.520   8.175   7.088  0.00  0.00    +0.158 C 
BRANCH  14  19
ATOM      3  O   UNL     1      14.396   7.734   5.653  0.00  0.00    -0.461 OA
ATOM     19  C   UNL     1      13.436   8.616   5.980  0.00  0.00    +0.119 A 
ATOM     21  C   UNL     1      13.483   9.744   5.237  0.00  0.00    +0.046 A 
ATOM     24  C   UNL     1      15.098   8.322   4.649  0.00  0.00    +0.131 A 
ATOM     25  C   UNL     1      14.575   9.561   4.357  0.00  0.00    +0.047 A 
BRANCH  24  29
ATOM     29  C   UNL     1      16.223   7.550   4.103  0.00  0.00    +0.230 C 
BRANCH  29   4
ATOM      4  O   UNL     1      15.740   6.252   3.750  0.00  0.00    -0.387 OA
ATOM     30  H   UNL     1      16.487   5.633   3.819  0.00  0.00    +0.210 HD
ENDBRANCH  29   4
ENDBRANCH  24  29
ENDBRANCH  14  19
ENDBRANCH   5  14
TORSDOF 5
ENDMDL
MODEL 8
REMARK VINA RESULT:      -6.3     27.277     29.017
REMARK  Name = 7144272
REMARK  5 active torsions:
REMARK  status: ('A' for Active; 'I' for Inactive)
REMARK    1  A    between atoms: O_4  and  C_29
REMARK    2  A    between atoms: N_5  and  C_14
REMARK    3  A    between atoms: C_14  and  C_19
REMARK    4  A    between atoms: C_15  and  C_20
REMARK    5  A    between atoms: C_24  and  C_29
REMARK                            x       y       z     vdW  Elec       q    Type
REMARK                         _______ _______ _______ _____ _____    ______ ____
ROOT
ATOM      2  O   UNL     1      -5.797 -15.200  16.722  0.00  0.00    -0.268 OA
ATOM      5  N   UNL     1      -6.639 -10.340  17.455  0.00  0.00    -0.294 NA
ATOM      6  N   UNL     1      -5.279 -12.961  16.270  0.00  0.00    -0.311 N 
ATOM      7  C   UNL     1      -4.455 -11.371  18.108  0.00  0.00    +0.024 C 
ATOM      8  C   UNL     1      -4.754 -10.546  15.823  0.00  0.00    +0.051 C 
ATOM      9  C   UNL     1      -3.747 -10.662  16.964  0.00  0.00    +0.017 C 
ATOM     10  C   UNL     1      -5.692 -10.565  18.553  0.00  0.00    +0.090 C 
ATOM     11  C   UNL     1      -5.976  -9.723  16.298  0.00  0.00    +0.094 C 
ATOM     12  C   UNL     1      -4.812 -12.788  17.653  0.00  0.00    +0.130 C 
ATOM     13  C   UNL     1      -5.188 -11.925  15.320  0.00  0.00    +0.034 A 
ATOM     15  C   UNL     1      -5.498 -12.170  14.021  0.00  0.00    +0.002 A 
ATOM     16  C   UNL     1      -5.714 -14.256  15.936  0.00  0.00    +0.252 A 
ATOM     17  C   UNL     1      -5.955 -13.492  13.639  0.00  0.00    +0.015 A 
ATOM     18  C   UNL     1      -6.078 -14.485  14.520  0.00  0.00    +0.071 A 
ENDROOT
BRANCH  15  20
ATOM      1 CL   UNL     1      -5.095  -7.919   9.830  0.00  0.00    -0.084 Cl
ATOM     20  C   UNL     1      -5.399 -11.118  12.985  0.00  0.00    -0.016 A 
ATOM     22  C   UNL     1      -6.503 -10.321  12.702  0.00  0.00    +0.010 A 
ATOM     23  C   UNL     1      -4.202 -10.935  12.300  0.00  0.00    +0.010 A 
ATOM     26  C   UNL     1      -6.410  -9.329  11.724  0.00  0.00    +0.020 A 
ATOM     27  C   UNL     1      -4.107  -9.944  11.322  0.00  0.00    +0.020 A 
ATOM     28  C   UNL     1      -5.212  -9.141  11.035  0.00  0.00    +0.041 A 
ENDBRANCH  15  20
BRANCH   5  14
ATOM     14  C   UNL     1      -7.774  -9.535  17.899  0.00  0.00    +0.158 C 
BRANCH  14  19
ATOM      3  O   UNL     1      -9.254  -7.976  16.825  0.00  0.00    -0.461 OA
ATOM     19  C   UNL     1      -8.674  -9.186  16.745  0.00  0.00    +0.119 A 
ATOM     21  C   UNL     1      -9.019  -9.863  15.628  0.00  0.00    +0.046 A 
ATOM     24  C   UNL     1     -10.011  -7.866  15.701  0.00  0.00    +0.131 A 
ATOM     25  C   UNL     1      -9.900  -9.001  14.933  0.00  0.00    +0.047 A 
BRANCH  24  29
ATOM     29  C   UNL     1     -10.761  -6.612  15.543  0.00  0.00    +0.230 C 
BRANCH  29   4
ATOM      4  O   UNL     1     -10.875  -5.999  16.829  0.00  0.00    -0.387 OA
ATOM     30  H   UNL     1     -10.118  -5.397  16.934  0.00  0.00    +0.210 HD
ENDBRANCH  29   4
ENDBRANCH  24  29
ENDBRANCH  14  19
ENDBRANCH   5  14
TORSDOF 5
ENDMDL
MODEL 9
REMARK VINA RESULT:      -6.3     14.818     16.501
REMARK  Name = 7144272
REMARK  5 active torsions:
REMARK  status: ('A' for Active; 'I' for Inactive)
REMARK    1  A    between atoms: O_4  and  C_29
REMARK    2  A    between atoms: N_5  and  C_14
REMARK    3  A    between atoms: C_14  and  C_19
REMARK    4  A    between atoms: C_15  and  C_20
REMARK    5  A    between atoms: C_24  and  C_29
REMARK                            x       y       z     vdW  Elec       q    Type
REMARK                         _______ _______ _______ _____ _____    ______ ____
ROOT
ATOM      2  O   UNL     1      10.407   4.354   2.456  0.00  0.00    -0.268 OA
ATOM      5  N   UNL     1       9.139   7.949   5.670  0.00  0.00    -0.294 NA
ATOM      6  N   UNL     1      10.903   5.662   4.334  0.00  0.00    -0.311 N 
ATOM      7  C   UNL     1       9.450   5.592   6.448  0.00  0.00    +0.024 C 
ATOM      8  C   UNL     1      11.388   7.085   6.347  0.00  0.00    +0.051 C 
ATOM      9  C   UNL     1      10.739   5.968   7.161  0.00  0.00    +0.017 C 
ATOM     10  C   UNL     1       8.514   6.813   6.357  0.00  0.00    +0.090 C 
ATOM     11  C   UNL     1      10.427   8.298   6.284  0.00  0.00    +0.094 C 
ATOM     12  C   UNL     1       9.806   5.022   5.073  0.00  0.00    +0.130 C 
ATOM     13  C   UNL     1      11.754   6.608   4.940  0.00  0.00    +0.034 A 
ATOM     15  C   UNL     1      12.840   7.069   4.266  0.00  0.00    +0.002 A 
ATOM     16  C   UNL     1      11.111   5.188   3.027  0.00  0.00    +0.252 A 
ATOM     17  C   UNL     1      13.084   6.605   2.914  0.00  0.00    +0.015 A 
ATOM     18  C   UNL     1      12.281   5.733   2.304  0.00  0.00    +0.071 A 
ENDROOT
BRANCH  15  20
ATOM      1 CL   UNL     1      16.613  11.020   6.705  0.00  0.00    -0.084 Cl
ATOM     20  C   UNL     1      13.773   8.045   4.869  0.00  0.00    -0.016 A 
ATOM     22  C   UNL     1      14.863   7.595   5.607  0.00  0.00    +0.010 A 
ATOM     23  C   UNL     1      13.553   9.408   4.696  0.00  0.00    +0.010 A 
ATOM     26  C   UNL     1      15.743   8.516   6.176  0.00  0.00    +0.020 A 
ATOM     27  C   UNL     1      14.433  10.330   5.264  0.00  0.00    +0.020 A 
ATOM     28  C   UNL     1      15.528   9.884   6.005  0.00  0.00    +0.041 A 
ENDBRANCH  15  20
BRANCH   5  14
ATOM     14  C   UNL     1       8.243   9.102   5.642  0.00  0.00    +0.158 C 
BRANCH  14  19
ATOM      3  O   UNL     1       6.410   9.873   4.294  0.00  0.00    -0.461 OA
ATOM     19  C   UNL     1       7.605   9.260   4.289  0.00  0.00    +0.119 A 
ATOM     21  C   UNL     1       8.007   8.899   3.050  0.00  0.00    +0.046 A 
ATOM     24  C   UNL     1       6.019   9.910   2.993  0.00  0.00    +0.131 A 
ATOM     25  C   UNL     1       6.968   9.323   2.188  0.00  0.00    +0.047 A 
BRANCH  24  29
ATOM     29  C   UNL     1       4.720  10.541   2.721  0.00  0.00    +0.230 C 
BRANCH  29   4
ATOM      4  O   UNL     1       3.853   9.550   2.166  0.00  0.00    -0.387 OA
ATOM     30  H   UNL     1       2.954   9.736   2.487  0.00  0.00    +0.210 HD
ENDBRANCH  29   4
ENDBRANCH  24  29
ENDBRANCH  14  19
ENDBRANCH   5  14
TORSDOF 5
ENDMDL
MODEL 10
REMARK VINA RESULT:      -6.2     26.651     29.512
REMARK  Name = 7144272
REMARK  5 active torsions:
REMARK  status: ('A' for Active; 'I' for Inactive)
REMARK    1  A    between atoms: O_4  and  C_29
REMARK    2  A    between atoms: N_5  and  C_14
REMARK    3  A    between atoms: C_14  and  C_19
REMARK    4  A    between atoms: C_15  and  C_20
REMARK    5  A    between atoms: C_24  and  C_29
REMARK                            x       y       z     vdW  Elec       q    Type
REMARK                         _______ _______ _______ _____ _____    ______ ____
ROOT
ATOM      2  O   UNL     1      -1.766 -10.680  16.712  0.00  0.00    -0.268 OA
ATOM      5  N   UNL     1      -4.851 -13.967  14.582  0.00  0.00    -0.294 NA
ATOM      6  N   UNL     1      -3.525 -11.151  15.239  0.00  0.00    -0.311 N 
ATOM      7  C   UNL     1      -5.739 -12.155  16.059  0.00  0.00    +0.024 C 
ATOM      8  C   UNL     1      -5.412 -11.704  13.675  0.00  0.00    +0.051 C 
ATOM      9  C   UNL     1      -6.334 -11.431  14.861  0.00  0.00    +0.017 C 
ATOM     10  C   UNL     1      -5.646 -13.667  15.779  0.00  0.00    +0.090 C 
ATOM     11  C   UNL     1      -5.349 -13.228  13.414  0.00  0.00    +0.094 C 
ATOM     12  C   UNL     1      -4.377 -11.532  16.374  0.00  0.00    +0.130 C 
ATOM     13  C   UNL     1      -4.012 -11.134  13.917  0.00  0.00    +0.034 A 
ATOM     15  C   UNL     1      -3.236 -10.642  12.917  0.00  0.00    +0.002 A 
ATOM     16  C   UNL     1      -2.236 -10.701  15.574  0.00  0.00    +0.252 A 
ATOM     17  C   UNL     1      -1.898 -10.173  13.224  0.00  0.00    +0.015 A 
ATOM     18  C   UNL     1      -1.400 -10.201  14.459  0.00  0.00    +0.071 A 
ENDROOT
BRANCH  15  20
ATOM      1 CL   UNL     1      -5.162 -10.413   7.257  0.00  0.00    -0.084 Cl
ATOM     20  C   UNL     1      -3.712 -10.586  11.517  0.00  0.00    -0.016 A 
ATOM     22  C   UNL     1      -3.553 -11.692  10.689  0.00  0.00    +0.010 A 
ATOM     23  C   UNL     1      -4.315  -9.427  11.039  0.00  0.00    +0.010 A 
ATOM     26  C   UNL     1      -4.002 -11.639   9.368  0.00  0.00    +0.020 A 
ATOM     27  C   UNL     1      -4.764  -9.373   9.719  0.00  0.00    +0.020 A 
ATOM     28  C   UNL     1      -4.608 -10.480   8.884  0.00  0.00    +0.041 A 
ENDBRANCH  15  20
BRANCH   5  14
ATOM     14  C   UNL     1      -4.822 -15.404  14.319  0.00  0.00    +0.158 C 
BRANCH  14  19
ATOM      3  O   UNL     1      -2.489 -15.319  13.750  0.00  0.00    -0.461 OA
ATOM     19  C   UNL     1      -3.430 -15.954  14.470  0.00  0.00    +0.119 A 
ATOM     21  C   UNL     1      -2.933 -16.977  15.200  0.00  0.00    +0.046 A 
ATOM     24  C   UNL     1      -1.326 -15.966  14.029  0.00  0.00    +0.131 A 
ATOM     25  C   UNL     1      -1.548 -16.993  14.916  0.00  0.00    +0.047 A 
BRANCH  24  29
ATOM     29  C   UNL     1      -0.123 -15.458  13.356  0.00  0.00    +0.230 C 
BRANCH  29   4
ATOM      4  O   UNL     1      -0.105 -15.981  12.026  0.00  0.00    -0.387 OA
ATOM     30  H   UNL     1       0.159 -16.915  12.083  0.00  0.00    +0.210 HD
ENDBRANCH  29   4
ENDBRANCH  24  29
ENDBRANCH  14  19
ENDBRANCH   5  14
TORSDOF 5
ENDMDL
