MODEL 1
REMARK VINA RESULT:      -7.2      0.000      0.000
REMARK  Name = 44715929
REMARK  7 active torsions:
REMARK  status: ('A' for Active; 'I' for Inactive)
REMARK    1  A    between atoms: N_4  and  C_15
REMARK    2  A    between atoms: N_5  and  C_17
REMARK    3  A    between atoms: C_9  and  C_16
REMARK    4  A    between atoms: C_10  and  C_15
REMARK    5  A    between atoms: C_17  and  C_20
REMARK    6  A    between atoms: C_17  and  C_21
REMARK    7  A    between atoms: C_19  and  C_22
REMARK                            x       y       z     vdW  Elec       q    Type
REMARK                         _______ _______ _______ _____ _____    ______ ____
ROOT
ATOM      3  N   UNL     1      -4.897 -10.881  11.221  0.00  0.00    -0.297 NA
ATOM      8  C   UNL     1      -4.539  -9.506   9.040  0.00  0.00    +0.005 C 
ATOM      9  C   UNL     1      -5.914  -9.210   9.671  0.00  0.00    +0.092 C 
ATOM     10  C   UNL     1      -3.818  -9.875  11.420  0.00  0.00    +0.078 C 
ATOM     11  C   UNL     1      -3.469  -9.160  10.093  0.00  0.00    +0.025 C 
ATOM     12  C   UNL     1      -4.414 -11.017   8.773  0.00  0.00    +0.020 C 
ATOM     13  C   UNL     1      -6.146 -10.161  10.860  0.00  0.00    +0.097 C 
ATOM     14  C   UNL     1      -4.566 -11.786  10.096  0.00  0.00    +0.085 C 
ENDROOT
BRANCH   9  16
ATOM      2  O   UNL     1      -7.924 -10.137   8.780  0.00  0.00    -0.275 OA
ATOM      5  N   UNL     1      -6.866  -8.418   7.621  0.00  0.00    -0.313 N 
ATOM     16  C   UNL     1      -7.018  -9.317   8.662  0.00  0.00    +0.218 C 
ATOM     28  H   UNL     1      -6.095  -7.756   7.647  0.00  0.00    +0.149 HD
BRANCH   5  17
ATOM     17  C   UNL     1      -7.785  -8.334   6.509  0.00  0.00    +0.067 C 
ATOM     20  C   UNL     1      -8.580  -7.036   6.568  0.00  0.00    +0.027 C 
ATOM     21  C   UNL     1      -7.033  -8.460   5.190  0.00  0.00    +0.027 C 
ENDBRANCH   5  17
ENDBRANCH   9  16
BRANCH  10  15
ATOM     15  C   UNL     1      -2.578 -10.482  12.079  0.00  0.00    +0.164 C 
BRANCH  15   4
ATOM      4  N   UNL     1      -2.711 -10.517  13.576  0.00  0.00    -0.250 N 
ATOM      6  N   UNL     1      -1.635 -10.359  14.363  0.00  0.00    -0.065 NA
ATOM      7  N   UNL     1      -2.052 -10.436  15.622  0.00  0.00    -0.130 NA
ATOM     18  C   UNL     1      -3.844 -10.697  14.306  0.00  0.00    +0.138 A 
ATOM     19  C   UNL     1      -3.404 -10.642  15.604  0.00  0.00    +0.113 A 
BRANCH  19  22
ATOM      1  F   UNL     1      -6.580 -11.173  20.132  0.00  0.00    -0.205 F 
ATOM     22  C   UNL     1      -4.220 -10.778  16.767  0.00  0.00    +0.004 A 
ATOM     23  C   UNL     1      -3.771 -11.536  17.849  0.00  0.00    +0.013 A 
ATOM     24  C   UNL     1      -5.465 -10.154  16.823  0.00  0.00    +0.013 A 
ATOM     25  C   UNL     1      -4.568 -11.669  18.986  0.00  0.00    +0.039 A 
ATOM     26  C   UNL     1      -6.263 -10.287  17.959  0.00  0.00    +0.039 A 
ATOM     27  C   UNL     1      -5.815 -11.046  19.041  0.00  0.00    +0.123 A 
ENDBRANCH  19  22
ENDBRANCH  15   4
ENDBRANCH  10  15
TORSDOF 5
ENDMDL
MODEL 2
REMARK VINA RESULT:      -7.0      5.435      8.481
REMARK  Name = 44715929
REMARK  7 active torsions:
REMARK  status: ('A' for Active; 'I' for Inactive)
REMARK    1  A    between atoms: N_4  and  C_15
REMARK    2  A    between atoms: N_5  and  C_17
REMARK    3  A    between atoms: C_9  and  C_16
REMARK    4  A    between atoms: C_10  and  C_15
REMARK    5  A    between atoms: C_17  and  C_20
REMARK    6  A    between atoms: C_17  and  C_21
REMARK    7  A    between atoms: C_19  and  C_22
REMARK                            x       y       z     vdW  Elec       q    Type
REMARK                         _______ _______ _______ _____ _____    ______ ____
ROOT
ATOM      3  N   UNL     1      -6.478 -11.272  16.723  0.00  0.00    -0.297 NA
ATOM      8  C   UNL     1      -4.245 -11.369  18.057  0.00  0.00    +0.005 C 
ATOM      9  C   UNL     1      -4.157 -10.369  16.888  0.00  0.00    +0.092 C 
ATOM     10  C   UNL     1      -6.672 -10.717  18.091  0.00  0.00    +0.078 C 
ATOM     11  C   UNL     1      -5.409 -10.916  18.960  0.00  0.00    +0.025 C 
ATOM     12  C   UNL     1      -4.631 -12.757  17.514  0.00  0.00    +0.020 C 
ATOM     13  C   UNL     1      -5.436 -10.465  16.035  0.00  0.00    +0.097 C 
ATOM     14  C   UNL     1      -5.985 -12.667  16.792  0.00  0.00    +0.085 C 
ENDROOT
BRANCH   9  16
ATOM      2  O   UNL     1      -1.818 -10.721  16.567  0.00  0.00    -0.275 OA
ATOM      5  N   UNL     1      -3.210 -10.623  14.703  0.00  0.00    -0.313 N 
ATOM     16  C   UNL     1      -2.929 -10.596  16.058  0.00  0.00    +0.218 C 
ATOM     28  H   UNL     1      -4.175 -10.547  14.396  0.00  0.00    +0.149 HD
BRANCH   5  17
ATOM     17  C   UNL     1      -2.196 -10.806  13.689  0.00  0.00    +0.067 C 
ATOM     20  C   UNL     1      -1.805 -12.274  13.582  0.00  0.00    +0.027 C 
ATOM     21  C   UNL     1      -2.682 -10.265  12.351  0.00  0.00    +0.027 C 
ENDBRANCH   5  17
ENDBRANCH   9  16
BRANCH  10  15
ATOM     15  C   UNL     1      -7.921 -11.281  18.770  0.00  0.00    +0.164 C 
BRANCH  15   4
ATOM      4  N   UNL     1      -9.129 -10.430  18.496  0.00  0.00    -0.250 N 
ATOM      6  N   UNL     1     -10.212 -10.502  19.288  0.00  0.00    -0.065 NA
ATOM      7  N   UNL     1     -11.109  -9.648  18.808  0.00  0.00    -0.130 NA
ATOM     18  C   UNL     1      -9.302  -9.530  17.491  0.00  0.00    +0.138 A 
ATOM     19  C   UNL     1     -10.567  -9.044  17.708  0.00  0.00    +0.113 A 
BRANCH  19  22
ATOM      1  F   UNL     1     -13.136  -5.207  14.617  0.00  0.00    -0.205 F 
ATOM     22  C   UNL     1     -11.228  -8.058  16.914  0.00  0.00    +0.004 A 
ATOM     23  C   UNL     1     -10.530  -6.930  16.481  0.00  0.00    +0.013 A 
ATOM     24  C   UNL     1     -12.569  -8.223  16.570  0.00  0.00    +0.013 A 
ATOM     25  C   UNL     1     -11.175  -5.967  15.705  0.00  0.00    +0.039 A 
ATOM     26  C   UNL     1     -13.214  -7.260  15.794  0.00  0.00    +0.039 A 
ATOM     27  C   UNL     1     -12.517  -6.131  15.361  0.00  0.00    +0.123 A 
ENDBRANCH  19  22
ENDBRANCH  15   4
ENDBRANCH  10  15
TORSDOF 5
ENDMDL
MODEL 3
REMARK VINA RESULT:      -6.7     28.662     30.881
REMARK  Name = 44715929
REMARK  7 active torsions:
REMARK  status: ('A' for Active; 'I' for Inactive)
REMARK    1  A    between atoms: N_4  and  C_15
REMARK    2  A    between atoms: N_5  and  C_17
REMARK    3  A    between atoms: C_9  and  C_16
REMARK    4  A    between atoms: C_10  and  C_15
REMARK    5  A    between atoms: C_17  and  C_20
REMARK    6  A    between atoms: C_17  and  C_21
REMARK    7  A    between atoms: C_19  and  C_22
REMARK                            x       y       z     vdW  Elec       q    Type
REMARK                         _______ _______ _______ _____ _____    ______ ____
ROOT
ATOM      3  N   UNL     1      20.467   7.320  22.609  0.00  0.00    -0.297 NA
ATOM      8  C   UNL     1      21.161   5.900  20.542  0.00  0.00    +0.005 C 
ATOM      9  C   UNL     1      21.390   5.127  21.855  0.00  0.00    +0.092 C 
ATOM     10  C   UNL     1      19.266   6.966  21.803  0.00  0.00    +0.078 C 
ATOM     11  C   UNL     1      19.666   6.268  20.482  0.00  0.00    +0.025 C 
ATOM     12  C   UNL     1      21.935   7.231  20.590  0.00  0.00    +0.020 C 
ATOM     13  C   UNL     1      21.121   6.060  23.051  0.00  0.00    +0.097 C 
ATOM     14  C   UNL     1      21.447   8.064  21.786  0.00  0.00    +0.085 C 
ENDROOT
BRANCH   9  16
ATOM      2  O   UNL     1      23.596   4.922  22.745  0.00  0.00    -0.275 OA
ATOM      5  N   UNL     1      22.976   3.579  20.948  0.00  0.00    -0.313 N 
ATOM     16  C   UNL     1      22.770   4.543  21.919  0.00  0.00    +0.218 C 
ATOM     28  H   UNL     1      22.205   3.317  20.340  0.00  0.00    +0.149 HD
BRANCH   5  17
ATOM     17  C   UNL     1      24.230   2.879  20.782  0.00  0.00    +0.067 C 
ATOM     20  C   UNL     1      24.040   1.383  21.000  0.00  0.00    +0.027 C 
ATOM     21  C   UNL     1      24.818   3.165  19.407  0.00  0.00    +0.027 C 
ENDBRANCH   5  17
ENDBRANCH   9  16
BRANCH  10  15
ATOM     15  C   UNL     1      18.362   8.174  21.554  0.00  0.00    +0.164 C 
BRANCH  15   4
ATOM      4  N   UNL     1      17.013   7.756  21.039  0.00  0.00    -0.250 N 
ATOM      6  N   UNL     1      16.499   6.558  21.360  0.00  0.00    -0.065 NA
ATOM      7  N   UNL     1      15.312   6.467  20.768  0.00  0.00    -0.130 NA
ATOM     18  C   UNL     1      16.174   8.464  20.236  0.00  0.00    +0.138 A 
ATOM     19  C   UNL     1      15.098   7.627  20.076  0.00  0.00    +0.113 A 
BRANCH  19  22
ATOM      1  F   UNL     1      10.546   8.732  17.088  0.00  0.00    -0.205 F 
ATOM     22  C   UNL     1      13.929   7.911  19.308  0.00  0.00    +0.004 A 
ATOM     23  C   UNL     1      12.711   8.139  19.951  0.00  0.00    +0.013 A 
ATOM     24  C   UNL     1      14.003   7.961  17.917  0.00  0.00    +0.013 A 
ATOM     25  C   UNL     1      11.569   8.416  19.200  0.00  0.00    +0.039 A 
ATOM     26  C   UNL     1      12.861   8.238  17.166  0.00  0.00    +0.039 A 
ATOM     27  C   UNL     1      11.643   8.466  17.808  0.00  0.00    +0.123 A 
ENDBRANCH  19  22
ENDBRANCH  15   4
ENDBRANCH  10  15
TORSDOF 5
ENDMDL
MODEL 4
REMARK VINA RESULT:      -6.6     20.980     24.108
REMARK  Name = 44715929
REMARK  7 active torsions:
REMARK  status: ('A' for Active; 'I' for Inactive)
REMARK    1  A    between atoms: N_4  and  C_15
REMARK    2  A    between atoms: N_5  and  C_17
REMARK    3  A    between atoms: C_9  and  C_16
REMARK    4  A    between atoms: C_10  and  C_15
REMARK    5  A    between atoms: C_17  and  C_20
REMARK    6  A    between atoms: C_17  and  C_21
REMARK    7  A    between atoms: C_19  and  C_22
REMARK                            x       y       z     vdW  Elec       q    Type
REMARK                         _______ _______ _______ _____ _____    ______ ____
ROOT
ATOM      3  N   UNL     1     -16.320   2.952  26.723  0.00  0.00    -0.297 NA
ATOM      8  C   UNL     1     -17.670   4.239  28.537  0.00  0.00    +0.005 C 
ATOM      9  C   UNL     1     -16.211   4.012  28.979  0.00  0.00    +0.092 C 
ATOM     10  C   UNL     1     -16.685   4.307  26.226  0.00  0.00    +0.078 C 
ATOM     11  C   UNL     1     -17.629   5.029  27.215  0.00  0.00    +0.025 C 
ATOM     12  C   UNL     1     -18.323   2.883  28.214  0.00  0.00    +0.020 C 
ATOM     13  C   UNL     1     -15.501   3.111  27.952  0.00  0.00    +0.097 C 
ATOM     14  C   UNL     1     -17.534   2.188  27.093  0.00  0.00    +0.085 C 
ENDROOT
BRANCH   9  16
ATOM      2  O   UNL     1     -16.706   3.955  31.314  0.00  0.00    -0.275 OA
ATOM      5  N   UNL     1     -15.356   2.289  30.406  0.00  0.00    -0.313 N 
ATOM     16  C   UNL     1     -16.137   3.431  30.360  0.00  0.00    +0.218 C 
ATOM     28  H   UNL     1     -14.964   1.923  29.544  0.00  0.00    +0.149 HD
BRANCH   5  17
ATOM     17  C   UNL     1     -15.108   1.551  31.624  0.00  0.00    +0.067 C 
ATOM     20  C   UNL     1     -14.971   0.063  31.328  0.00  0.00    +0.027 C 
ATOM     21  C   UNL     1     -13.868   2.090  32.326  0.00  0.00    +0.027 C 
ENDBRANCH   5  17
ENDBRANCH   9  16
BRANCH  10  15
ATOM     15  C   UNL     1     -17.270   4.265  24.813  0.00  0.00    +0.164 C 
BRANCH  15   4
ATOM      4  N   UNL     1     -16.239   4.619  23.779  0.00  0.00    -0.250 N 
ATOM      6  N   UNL     1     -15.847   3.716  22.866  0.00  0.00    -0.065 NA
ATOM      7  N   UNL     1     -14.939   4.304  22.094  0.00  0.00    -0.130 NA
ATOM     18  C   UNL     1     -15.596   5.807  23.618  0.00  0.00    +0.138 A 
ATOM     19  C   UNL     1     -14.774   5.585  22.541  0.00  0.00    +0.113 A 
BRANCH  19  22
ATOM      1  F   UNL     1     -11.290   9.291  20.304  0.00  0.00    -0.205 F 
ATOM     22  C   UNL     1     -13.879   6.538  21.967  0.00  0.00    +0.004 A 
ATOM     23  C   UNL     1     -12.705   6.106  21.349  0.00  0.00    +0.013 A 
ATOM     24  C   UNL     1     -14.179   7.898  22.021  0.00  0.00    +0.013 A 
ATOM     25  C   UNL     1     -11.830   7.037  20.787  0.00  0.00    +0.039 A 
ATOM     26  C   UNL     1     -13.304   8.829  21.461  0.00  0.00    +0.039 A 
ATOM     27  C   UNL     1     -12.129   8.398  20.843  0.00  0.00    +0.123 A 
ENDBRANCH  19  22
ENDBRANCH  15   4
ENDBRANCH  10  15
TORSDOF 5
ENDMDL
MODEL 5
REMARK VINA RESULT:      -6.5     23.889     25.683
REMARK  Name = 44715929
REMARK  7 active torsions:
REMARK  status: ('A' for Active; 'I' for Inactive)
REMARK    1  A    between atoms: N_4  and  C_15
REMARK    2  A    between atoms: N_5  and  C_17
REMARK    3  A    between atoms: C_9  and  C_16
REMARK    4  A    between atoms: C_10  and  C_15
REMARK    5  A    between atoms: C_17  and  C_20
REMARK    6  A    between atoms: C_17  and  C_21
REMARK    7  A    between atoms: C_19  and  C_22
REMARK                            x       y       z     vdW  Elec       q    Type
REMARK                         _______ _______ _______ _____ _____    ______ ____
ROOT
ATOM      3  N   UNL     1      12.899   5.779   0.449  0.00  0.00    -0.297 NA
ATOM      8  C   UNL     1      14.182   3.516   0.406  0.00  0.00    +0.005 C 
ATOM      9  C   UNL     1      15.154   4.710   0.476  0.00  0.00    +0.092 C 
ATOM     10  C   UNL     1      12.647   5.022   1.706  0.00  0.00    +0.078 C 
ATOM     11  C   UNL     1      13.260   3.604   1.637  0.00  0.00    +0.025 C 
ATOM     12  C   UNL     1      13.275   3.666  -0.829  0.00  0.00    +0.020 C 
ATOM     13  C   UNL     1      14.360   6.023   0.336  0.00  0.00    +0.097 C 
ATOM     14  C   UNL     1      12.488   4.982  -0.730  0.00  0.00    +0.085 C 
ENDROOT
BRANCH   9  16
ATOM      2  O   UNL     1      17.014   3.663  -0.593  0.00  0.00    -0.275 OA
ATOM      5  N   UNL     1      16.227   5.688  -1.428  0.00  0.00    -0.313 N 
ATOM     16  C   UNL     1      16.230   4.608  -0.564  0.00  0.00    +0.218 C 
ATOM     28  H   UNL     1      15.504   6.397  -1.333  0.00  0.00    +0.149 HD
BRANCH   5  17
ATOM     17  C   UNL     1      17.177   5.840  -2.506  0.00  0.00    +0.067 C 
ATOM     20  C   UNL     1      16.640   5.211  -3.786  0.00  0.00    +0.027 C 
ATOM     21  C   UNL     1      17.512   7.312  -2.714  0.00  0.00    +0.027 C 
ENDBRANCH   5  17
ENDBRANCH   9  16
BRANCH  10  15
ATOM     15  C   UNL     1      11.161   4.980   2.067  0.00  0.00    +0.164 C 
BRANCH  15   4
ATOM      4  N   UNL     1      10.917   5.493   3.459  0.00  0.00    -0.250 N 
ATOM      6  N   UNL     1      11.209   6.763   3.781  0.00  0.00    -0.065 NA
ATOM      7  N   UNL     1      10.892   6.928   5.061  0.00  0.00    -0.130 NA
ATOM     18  C   UNL     1      10.406   4.811   4.519  0.00  0.00    +0.138 A 
ATOM     19  C   UNL     1      10.398   5.741   5.527  0.00  0.00    +0.113 A 
BRANCH  19  22
ATOM      1  F   UNL     1       8.639   4.873  10.726  0.00  0.00    -0.205 F 
ATOM     22  C   UNL     1       9.946   5.518   6.863  0.00  0.00    +0.004 A 
ATOM     23  C   UNL     1       9.446   6.581   7.617  0.00  0.00    +0.013 A 
ATOM     24  C   UNL     1      10.003   4.239   7.414  0.00  0.00    +0.013 A 
ATOM     25  C   UNL     1       9.005   6.362   8.922  0.00  0.00    +0.039 A 
ATOM     26  C   UNL     1       9.563   4.020   8.719  0.00  0.00    +0.039 A 
ATOM     27  C   UNL     1       9.063   5.083   9.474  0.00  0.00    +0.123 A 
ENDBRANCH  19  22
ENDBRANCH  15   4
ENDBRANCH  10  15
TORSDOF 5
ENDMDL
MODEL 6
REMARK VINA RESULT:      -6.2     25.303     28.797
REMARK  Name = 44715929
REMARK  7 active torsions:
REMARK  status: ('A' for Active; 'I' for Inactive)
REMARK    1  A    between atoms: N_4  and  C_15
REMARK    2  A    between atoms: N_5  and  C_17
REMARK    3  A    between atoms: C_9  and  C_16
REMARK    4  A    between atoms: C_10  and  C_15
REMARK    5  A    between atoms: C_17  and  C_20
REMARK    6  A    between atoms: C_17  and  C_21
REMARK    7  A    between atoms: C_19  and  C_22
REMARK                            x       y       z     vdW  Elec       q    Type
REMARK                         _______ _______ _______ _____ _____    ______ ____
ROOT
ATOM      3  N   UNL     1     -11.863   9.434  34.949  0.00  0.00    -0.297 NA
ATOM      8  C   UNL     1     -11.080  10.405  32.664  0.00  0.00    +0.005 C 
ATOM      9  C   UNL     1      -9.881   9.969  33.529  0.00  0.00    +0.092 C 
ATOM     10  C   UNL     1     -12.275   8.531  33.839  0.00  0.00    +0.078 C 
ATOM     11  C   UNL     1     -11.972   9.164  32.461  0.00  0.00    +0.025 C 
ATOM     12  C   UNL     1     -11.928  11.427  33.443  0.00  0.00    +0.020 C 
ATOM     13  C   UNL     1     -10.382   9.557  34.926  0.00  0.00    +0.097 C 
ATOM     14  C   UNL     1     -12.423  10.791  34.752  0.00  0.00    +0.085 C 
ENDROOT
BRANCH   9  16
ATOM      2  O   UNL     1      -8.247  11.289  34.664  0.00  0.00    -0.275 OA
ATOM      5  N   UNL     1      -8.679  11.717  32.417  0.00  0.00    -0.313 N 
ATOM     16  C   UNL     1      -8.844  11.049  33.618  0.00  0.00    +0.218 C 
ATOM     28  H   UNL     1      -9.200  11.406  31.602  0.00  0.00    +0.149 HD
BRANCH   5  17
ATOM     17  C   UNL     1      -7.754  12.814  32.244  0.00  0.00    +0.067 C 
ATOM     20  C   UNL     1      -6.601  12.404  31.337  0.00  0.00    +0.027 C 
ATOM     21  C   UNL     1      -8.479  14.036  31.694  0.00  0.00    +0.027 C 
ENDBRANCH   5  17
ENDBRANCH   9  16
BRANCH  10  15
ATOM     15  C   UNL     1     -13.739   8.104  33.956  0.00  0.00    +0.164 C 
BRANCH  15   4
ATOM      4  N   UNL     1     -13.881   6.608  33.918  0.00  0.00    -0.250 N 
ATOM      6  N   UNL     1     -14.003   5.903  35.054  0.00  0.00    -0.065 NA
ATOM      7  N   UNL     1     -14.110   4.623  34.715  0.00  0.00    -0.130 NA
ATOM     18  C   UNL     1     -13.907   5.802  32.823  0.00  0.00    +0.138 A 
ATOM     19  C   UNL     1     -14.054   4.545  33.351  0.00  0.00    +0.113 A 
BRANCH  19  22
ATOM      1  F   UNL     1     -14.373  -0.178  30.440  0.00  0.00    -0.205 F 
ATOM     22  C   UNL     1     -14.136   3.331  32.602  0.00  0.00    +0.004 A 
ATOM     23  C   UNL     1     -14.734   2.204  33.167  0.00  0.00    +0.013 A 
ATOM     24  C   UNL     1     -13.619   3.273  31.309  0.00  0.00    +0.013 A 
ATOM     25  C   UNL     1     -14.814   1.019  32.435  0.00  0.00    +0.039 A 
ATOM     26  C   UNL     1     -13.699   2.088  30.578  0.00  0.00    +0.039 A 
ATOM     27  C   UNL     1     -14.296   0.960  31.142  0.00  0.00    +0.123 A 
ENDBRANCH  19  22
ENDBRANCH  15   4
ENDBRANCH  10  15
TORSDOF 5
ENDMDL
MODEL 7
REMARK VINA RESULT:      -6.1      4.318      8.776
REMARK  Name = 44715929
REMARK  7 active torsions:
REMARK  status: ('A' for Active; 'I' for Inactive)
REMARK    1  A    between atoms: N_4  and  C_15
REMARK    2  A    between atoms: N_5  and  C_17
REMARK    3  A    between atoms: C_9  and  C_16
REMARK    4  A    between atoms: C_10  and  C_15
REMARK    5  A    between atoms: C_17  and  C_20
REMARK    6  A    between atoms: C_17  and  C_21
REMARK    7  A    between atoms: C_19  and  C_22
REMARK                            x       y       z     vdW  Elec       q    Type
REMARK                         _______ _______ _______ _____ _____    ______ ____
ROOT
ATOM      3  N   UNL     1      -5.688 -11.089  16.603  0.00  0.00    -0.297 NA
ATOM      8  C   UNL     1      -5.567 -11.851  19.088  0.00  0.00    +0.005 C 
ATOM      9  C   UNL     1      -6.617 -12.662  18.304  0.00  0.00    +0.092 C 
ATOM     10  C   UNL     1      -4.378 -11.742  16.877  0.00  0.00    +0.078 C 
ATOM     11  C   UNL     1      -4.213 -12.052  18.383  0.00  0.00    +0.025 C 
ATOM     12  C   UNL     1      -5.895 -10.351  18.981  0.00  0.00    +0.020 C 
ATOM     13  C   UNL     1      -6.767 -12.070  16.890  0.00  0.00    +0.097 C 
ATOM     14  C   UNL     1      -5.891  -9.930  17.502  0.00  0.00    +0.085 C 
ENDROOT
BRANCH   9  16
ATOM      2  O   UNL     1      -8.056 -13.246  20.116  0.00  0.00    -0.275 OA
ATOM      5  N   UNL     1      -8.942 -12.090  18.301  0.00  0.00    -0.313 N 
ATOM     16  C   UNL     1      -7.933 -12.703  19.022  0.00  0.00    +0.218 C 
ATOM     28  H   UNL     1      -8.716 -11.637  17.419  0.00  0.00    +0.149 HD
BRANCH   5  17
ATOM     17  C   UNL     1     -10.309 -12.013  18.763  0.00  0.00    +0.067 C 
ATOM     20  C   UNL     1     -10.658 -10.586  19.167  0.00  0.00    +0.027 C 
ATOM     21  C   UNL     1     -11.261 -12.531  17.692  0.00  0.00    +0.027 C 
ENDBRANCH   5  17
ENDBRANCH   9  16
BRANCH  10  15
ATOM     15  C   UNL     1      -3.203 -10.927  16.334  0.00  0.00    +0.164 C 
BRANCH  15   4
ATOM      4  N   UNL     1      -2.987 -11.180  14.869  0.00  0.00    -0.250 N 
ATOM      6  N   UNL     1      -1.966 -11.945  14.450  0.00  0.00    -0.065 NA
ATOM      7  N   UNL     1      -2.025 -11.990  13.123  0.00  0.00    -0.130 NA
ATOM     18  C   UNL     1      -3.726 -10.716  13.826  0.00  0.00    +0.138 A 
ATOM     19  C   UNL     1      -3.099 -11.243  12.725  0.00  0.00    +0.113 A 
BRANCH  19  22
ATOM      1  F   UNL     1      -4.641 -10.486   7.441  0.00  0.00    -0.205 F 
ATOM     22  C   UNL     1      -3.495 -11.048  11.368  0.00  0.00    +0.004 A 
ATOM     23  C   UNL     1      -3.844 -12.145  10.579  0.00  0.00    +0.013 A 
ATOM     24  C   UNL     1      -3.534  -9.762  10.830  0.00  0.00    +0.013 A 
ATOM     25  C   UNL     1      -4.231 -11.954   9.253  0.00  0.00    +0.039 A 
ATOM     26  C   UNL     1      -3.920  -9.571   9.504  0.00  0.00    +0.039 A 
ATOM     27  C   UNL     1      -4.269 -10.668   8.714  0.00  0.00    +0.123 A 
ENDBRANCH  19  22
ENDBRANCH  15   4
ENDBRANCH  10  15
TORSDOF 5
ENDMDL
MODEL 8
REMARK VINA RESULT:      -6.1      4.298      8.279
REMARK  Name = 44715929
REMARK  7 active torsions:
REMARK  status: ('A' for Active; 'I' for Inactive)
REMARK    1  A    between atoms: N_4  and  C_15
REMARK    2  A    between atoms: N_5  and  C_17
REMARK    3  A    between atoms: C_9  and  C_16
REMARK    4  A    between atoms: C_10  and  C_15
REMARK    5  A    between atoms: C_17  and  C_20
REMARK    6  A    between atoms: C_17  and  C_21
REMARK    7  A    between atoms: C_19  and  C_22
REMARK                            x       y       z     vdW  Elec       q    Type
REMARK                         _______ _______ _______ _____ _____    ______ ____
ROOT
ATOM      3  N   UNL     1      -6.228 -10.970  16.709  0.00  0.00    -0.297 NA
ATOM      8  C   UNL     1      -7.367 -11.865  18.871  0.00  0.00    +0.005 C 
ATOM      9  C   UNL     1      -8.412 -11.441  17.821  0.00  0.00    +0.092 C 
ATOM     10  C   UNL     1      -5.961 -12.427  16.864  0.00  0.00    +0.078 C 
ATOM     11  C   UNL     1      -6.483 -12.948  18.224  0.00  0.00    +0.025 C 
ATOM     12  C   UNL     1      -6.441 -10.675  19.181  0.00  0.00    +0.020 C 
ATOM     13  C   UNL     1      -7.699 -10.771  16.632  0.00  0.00    +0.097 C 
ATOM     14  C   UNL     1      -5.740 -10.222  17.890  0.00  0.00    +0.085 C 
ENDROOT
BRANCH   9  16
ATOM      2  O   UNL     1      -9.846 -10.672  19.568  0.00  0.00    -0.275 OA
ATOM      5  N   UNL     1      -9.903  -9.593  17.507  0.00  0.00    -0.313 N 
ATOM     16  C   UNL     1      -9.454 -10.538  18.412  0.00  0.00    +0.218 C 
ATOM     28  H   UNL     1      -9.478  -9.549  16.585  0.00  0.00    +0.149 HD
BRANCH   5  17
ATOM     17  C   UNL     1     -10.922  -8.617  17.823  0.00  0.00    +0.067 C 
ATOM     20  C   UNL     1     -10.737  -7.360  16.983  0.00  0.00    +0.027 C 
ATOM     21  C   UNL     1     -12.308  -9.216  17.621  0.00  0.00    +0.027 C 
ENDBRANCH   5  17
ENDBRANCH   9  16
BRANCH  10  15
ATOM     15  C   UNL     1      -4.485 -12.769  16.655  0.00  0.00    +0.164 C 
BRANCH  15   4
ATOM      4  N   UNL     1      -3.883 -11.956  15.544  0.00  0.00    -0.250 N 
ATOM      6  N   UNL     1      -2.635 -11.472  15.649  0.00  0.00    -0.065 NA
ATOM      7  N   UNL     1      -2.376 -10.803  14.530  0.00  0.00    -0.130 NA
ATOM     18  C   UNL     1      -4.457 -11.611  14.360  0.00  0.00    +0.138 A 
ATOM     19  C   UNL     1      -3.483 -10.879  13.730  0.00  0.00    +0.113 A 
BRANCH  19  22
ATOM      1  F   UNL     1      -3.918  -8.556   8.701  0.00  0.00    -0.205 F 
ATOM     22  C   UNL     1      -3.594 -10.282  12.438  0.00  0.00    +0.004 A 
ATOM     23  C   UNL     1      -4.852  -9.976  11.918  0.00  0.00    +0.013 A 
ATOM     24  C   UNL     1      -2.447 -10.004  11.696  0.00  0.00    +0.013 A 
ATOM     25  C   UNL     1      -4.961  -9.392  10.656  0.00  0.00    +0.039 A 
ATOM     26  C   UNL     1      -2.555  -9.422  10.434  0.00  0.00    +0.039 A 
ATOM     27  C   UNL     1      -3.813  -9.116   9.913  0.00  0.00    +0.123 A 
ENDBRANCH  19  22
ENDBRANCH  15   4
ENDBRANCH  10  15
TORSDOF 5
ENDMDL
MODEL 9
REMARK VINA RESULT:      -6.0     30.902     33.297
REMARK  Name = 44715929
REMARK  7 active torsions:
REMARK  status: ('A' for Active; 'I' for Inactive)
REMARK    1  A    between atoms: N_4  and  C_15
REMARK    2  A    between atoms: N_5  and  C_17
REMARK    3  A    between atoms: C_9  and  C_16
REMARK    4  A    between atoms: C_10  and  C_15
REMARK    5  A    between atoms: C_17  and  C_20
REMARK    6  A    between atoms: C_17  and  C_21
REMARK    7  A    between atoms: C_19  and  C_22
REMARK                            x       y       z     vdW  Elec       q    Type
REMARK                         _______ _______ _______ _____ _____    ______ ____
ROOT
ATOM      3  N   UNL     1      -1.752  10.128  36.857  0.00  0.00    -0.297 NA
ATOM      8  C   UNL     1      -1.207   9.550  39.335  0.00  0.00    +0.005 C 
ATOM      9  C   UNL     1      -0.506   8.579  38.366  0.00  0.00    +0.092 C 
ATOM     10  C   UNL     1      -0.928  11.207  37.466  0.00  0.00    +0.078 C 
ATOM     11  C   UNL     1      -0.731  10.972  38.982  0.00  0.00    +0.025 C 
ATOM     12  C   UNL     1      -2.725   9.523  39.078  0.00  0.00    +0.020 C 
ATOM     13  C   UNL     1      -0.985   8.857  36.929  0.00  0.00    +0.097 C 
ATOM     14  C   UNL     1      -3.005   9.934  37.623  0.00  0.00    +0.085 C 
ENDROOT
BRANCH   9  16
ATOM      2  O   UNL     1      -1.676   6.499  38.295  0.00  0.00    -0.275 OA
ATOM      5  N   UNL     1       0.194   6.695  39.668  0.00  0.00    -0.313 N 
ATOM     16  C   UNL     1      -0.739   7.149  38.752  0.00  0.00    +0.218 C 
ATOM     28  H   UNL     1       0.952   7.310  39.949  0.00  0.00    +0.149 HD
BRANCH   5  17
ATOM     17  C   UNL     1       0.177   5.358  40.217  0.00  0.00    +0.067 C 
ATOM     20  C   UNL     1       1.331   4.535  39.657  0.00  0.00    +0.027 C 
ATOM     21  C   UNL     1       0.224   5.409  41.738  0.00  0.00    +0.027 C 
ENDBRANCH   5  17
ENDBRANCH   9  16
BRANCH  10  15
ATOM     15  C   UNL     1      -1.494  12.598  37.177  0.00  0.00    +0.164 C 
BRANCH  15   4
ATOM      4  N   UNL     1      -0.680  13.320  36.140  0.00  0.00    -0.250 N 
ATOM      6  N   UNL     1      -0.133  14.516  36.410  0.00  0.00    -0.065 NA
ATOM      7  N   UNL     1       0.520  14.906  35.320  0.00  0.00    -0.130 NA
ATOM     18  C   UNL     1      -0.394  12.911  34.875  0.00  0.00    +0.138 A 
ATOM     19  C   UNL     1       0.370  13.933  34.371  0.00  0.00    +0.113 A 
BRANCH  19  22
ATOM      1  F   UNL     1       2.544  14.141  29.261  0.00  0.00    -0.205 F 
ATOM     22  C   UNL     1       0.928  13.986  33.058  0.00  0.00    +0.004 A 
ATOM     23  C   UNL     1       1.417  15.194  32.556  0.00  0.00    +0.013 A 
ATOM     24  C   UNL     1       0.987  12.833  32.277  0.00  0.00    +0.013 A 
ATOM     25  C   UNL     1       1.962  15.245  31.273  0.00  0.00    +0.039 A 
ATOM     26  C   UNL     1       1.531  12.884  30.994  0.00  0.00    +0.039 A 
ATOM     27  C   UNL     1       2.020  14.091  30.492  0.00  0.00    +0.123 A 
ENDBRANCH  19  22
ENDBRANCH  15   4
ENDBRANCH  10  15
TORSDOF 5
ENDMDL
MODEL 10
REMARK VINA RESULT:      -6.0      4.703      7.062
REMARK  Name = 44715929
REMARK  7 active torsions:
REMARK  status: ('A' for Active; 'I' for Inactive)
REMARK    1  A    between atoms: N_4  and  C_15
REMARK    2  A    between atoms: N_5  and  C_17
REMARK    3  A    between atoms: C_9  and  C_16
REMARK    4  A    between atoms: C_10  and  C_15
REMARK    5  A    between atoms: C_17  and  C_20
REMARK    6  A    between atoms: C_17  and  C_21
REMARK    7  A    between atoms: C_19  and  C_22
REMARK                            x       y       z     vdW  Elec       q    Type
REMARK                         _______ _______ _______ _____ _____    ______ ____
ROOT
ATOM      3  N   UNL     1      -9.567  -8.782   7.689  0.00  0.00    -0.297 NA
ATOM      8  C   UNL     1      -9.636  -6.197   7.974  0.00  0.00    +0.005 C 
ATOM      9  C   UNL     1     -10.247  -6.912   9.195  0.00  0.00    +0.092 C 
ATOM     10  C   UNL     1      -8.186  -8.244   7.826  0.00  0.00    +0.078 C 
ATOM     11  C   UNL     1      -8.187  -6.698   7.828  0.00  0.00    +0.025 C 
ATOM     12  C   UNL     1     -10.379  -6.637   6.700  0.00  0.00    +0.020 C 
ATOM     13  C   UNL     1     -10.332  -8.424   8.911  0.00  0.00    +0.097 C 
ATOM     14  C   UNL     1     -10.257  -8.160   6.535  0.00  0.00    +0.085 C 
ENDROOT
BRANCH   9  16
ATOM      2  O   UNL     1     -12.625  -6.987   9.389  0.00  0.00    -0.275 OA
ATOM      5  N   UNL     1     -11.500  -5.058  10.047  0.00  0.00    -0.313 N 
ATOM     16  C   UNL     1     -11.589  -6.347   9.552  0.00  0.00    +0.218 C 
ATOM     28  H   UNL     1     -10.583  -4.640  10.176  0.00  0.00    +0.149 HD
BRANCH   5  17
ATOM     17  C   UNL     1     -12.653  -4.283  10.445  0.00  0.00    +0.067 C 
ATOM     20  C   UNL     1     -12.319  -3.402  11.642  0.00  0.00    +0.027 C 
ATOM     21  C   UNL     1     -13.161  -3.451   9.273  0.00  0.00    +0.027 C 
ENDBRANCH   5  17
ENDBRANCH   9  16
BRANCH  10  15
ATOM     15  C   UNL     1      -7.238  -8.808   6.766  0.00  0.00    +0.164 C 
BRANCH  15   4
ATOM      4  N   UNL     1      -6.132  -9.613   7.388  0.00  0.00    -0.250 N 
ATOM      6  N   UNL     1      -5.454 -10.519   6.665  0.00  0.00    -0.065 NA
ATOM      7  N   UNL     1      -4.549 -11.067   7.469  0.00  0.00    -0.130 NA
ATOM     18  C   UNL     1      -5.680  -9.555   8.670  0.00  0.00    +0.138 A 
ATOM     19  C   UNL     1      -4.674 -10.487   8.700  0.00  0.00    +0.113 A 
BRANCH  19  22
ATOM      1  F   UNL     1      -1.556 -11.747  13.124  0.00  0.00    -0.205 F 
ATOM     22  C   UNL     1      -3.873 -10.811   9.837  0.00  0.00    +0.004 A 
ATOM     23  C   UNL     1      -3.081  -9.830  10.434  0.00  0.00    +0.013 A 
ATOM     24  C   UNL     1      -3.882 -12.107  10.351  0.00  0.00    +0.013 A 
ATOM     25  C   UNL     1      -2.299 -10.146  11.545  0.00  0.00    +0.039 A 
ATOM     26  C   UNL     1      -3.100 -12.424  11.460  0.00  0.00    +0.039 A 
ATOM     27  C   UNL     1      -2.307 -11.443  12.058  0.00  0.00    +0.123 A 
ENDBRANCH  19  22
ENDBRANCH  15   4
ENDBRANCH  10  15
TORSDOF 5
ENDMDL
