MODEL 1
REMARK VINA RESULT:      -5.7      0.000      0.000
REMARK  Name = 11912249
REMARK  9 active torsions:
REMARK  status: ('A' for Active; 'I' for Inactive)
REMARK    1  A    between atoms: S_1  and  N_10
REMARK    2  A    between atoms: S_1  and  C_25
REMARK    3  A    between atoms: S_2  and  C_26
REMARK    4  A    between atoms: S_2  and  C_27
REMARK    5  A    between atoms: O_8  and  C_28
REMARK    6  A    between atoms: N_12  and  C_19
REMARK    7  A    between atoms: C_14  and  C_18
REMARK    8  A    between atoms: C_22  and  C_26
REMARK    9  A    between atoms: C_27  and  C_28
REMARK                            x       y       z     vdW  Elec       q    Type
REMARK                         _______ _______ _______ _____ _____    ______ ____
ROOT
ATOM      6  O   UNL     1      10.181   4.032   5.128  0.00  0.00    -0.275 OA
ATOM     10  N   UNL     1      12.334   5.218   0.758  0.00  0.00    -0.167 NA
ATOM     11  N   UNL     1      10.958   5.243   3.307  0.00  0.00    -0.298 N 
ATOM     14  C   UNL     1      12.483   6.379   1.676  0.00  0.00    +0.182 C 
ATOM     15  C   UNL     1      11.338   6.514   2.679  0.00  0.00    +0.137 C 
ATOM     16  C   UNL     1      11.127   4.383   0.987  0.00  0.00    +0.129 C 
ATOM     17  C   UNL     1      11.025   4.049   2.466  0.00  0.00    +0.125 C 
ATOM     22  C   UNL     1      10.518   5.106   4.624  0.00  0.00    +0.226 C 
ENDROOT
BRANCH  10   1
ATOM      1  S   UNL     1      12.785   5.460  -0.873  0.00  0.00    +0.030 S 
ATOM      4  O   UNL     1      13.575   6.669  -0.963  0.00  0.00    -0.158 OA
ATOM      5  O   UNL     1      11.628   5.244  -1.713  0.00  0.00    -0.158 OA
ATOM     25  C   UNL     1      13.877   4.076  -1.075  0.00  0.00    +0.215 C 
ENDBRANCH  10   1
BRANCH  14  18
ATOM      3  O   UNL     1      14.448   5.123   2.172  0.00  0.00    -0.274 OA
ATOM     12  N   UNL     1      14.115   7.164   3.239  0.00  0.00    -0.303 N 
ATOM     18  C   UNL     1      13.787   6.138   2.368  0.00  0.00    +0.234 C 
ATOM     29  H   UNL     1      13.496   7.967   3.313  0.00  0.00    +0.149 HD
BRANCH  12  19
ATOM      7  O   UNL     1      13.840   7.099   5.957  0.00  0.00    -0.274 OA
ATOM     13  N   UNL     1      15.859   8.127   6.246  0.00  0.00    -0.314 N 
ATOM     19  C   UNL     1      15.309   7.163   4.043  0.00  0.00    +0.159 C 
ATOM     20  C   UNL     1      16.357   8.101   3.460  0.00  0.00    +0.033 C 
ATOM     21  C   UNL     1      17.532   8.213   4.418  0.00  0.00    +0.021 C 
ATOM     23  C   UNL     1      14.908   7.484   5.479  0.00  0.00    +0.233 C 
ATOM     24  C   UNL     1      17.044   8.791   5.734  0.00  0.00    +0.104 C 
ATOM     30  H   UNL     1      15.626   8.294   7.220  0.00  0.00    +0.149 HD
ENDBRANCH  12  19
ENDBRANCH  14  18
BRANCH  22  26
ATOM     26  C   UNL     1      10.469   6.366   5.452  0.00  0.00    +0.165 C 
BRANCH  26   2
ATOM      2  S   UNL     1       9.037   6.251   6.536  0.00  0.00    -0.140 S 
BRANCH   2  27
ATOM     27  C   UNL     1       9.898   6.157   8.126  0.00  0.00    +0.189 C 
BRANCH  27  28
ATOM      9  O   UNL     1       9.001   4.541   9.674  0.00  0.00    -0.250 OA
ATOM     28  C   UNL     1       9.718   4.786   8.711  0.00  0.00    +0.315 C 
BRANCH  28   8
ATOM      8  O   UNL     1      10.424   3.836   8.047  0.00  0.00    -0.480 OA
ATOM     31  H   UNL     1       9.840   3.235   7.536  0.00  0.00    +0.295 HD
ENDBRANCH  28   8
ENDBRANCH  27  28
ENDBRANCH   2  27
ENDBRANCH  26   2
ENDBRANCH  22  26
TORSDOF 8
ENDMDL
MODEL 2
REMARK VINA RESULT:      -5.6      2.219      6.046
REMARK  Name = 11912249
REMARK  9 active torsions:
REMARK  status: ('A' for Active; 'I' for Inactive)
REMARK    1  A    between atoms: S_1  and  N_10
REMARK    2  A    between atoms: S_1  and  C_25
REMARK    3  A    between atoms: S_2  and  C_26
REMARK    4  A    between atoms: S_2  and  C_27
REMARK    5  A    between atoms: O_8  and  C_28
REMARK    6  A    between atoms: N_12  and  C_19
REMARK    7  A    between atoms: C_14  and  C_18
REMARK    8  A    between atoms: C_22  and  C_26
REMARK    9  A    between atoms: C_27  and  C_28
REMARK                            x       y       z     vdW  Elec       q    Type
REMARK                         _______ _______ _______ _____ _____    ______ ____
ROOT
ATOM      6  O   UNL     1      10.005   5.992   0.850  0.00  0.00    -0.275 OA
ATOM     10  N   UNL     1      10.012   7.227   5.709  0.00  0.00    -0.167 NA
ATOM     11  N   UNL     1      10.385   5.943   3.138  0.00  0.00    -0.298 N 
ATOM     14  C   UNL     1      11.269   6.485   5.419  0.00  0.00    +0.182 C 
ATOM     15  C   UNL     1      11.122   5.448   4.308  0.00  0.00    +0.137 C 
ATOM     16  C   UNL     1       8.850   6.856   4.860  0.00  0.00    +0.129 C 
ATOM     17  C   UNL     1       9.277   6.861   3.401  0.00  0.00    +0.125 C 
ATOM     22  C   UNL     1      10.651   5.582   1.817  0.00  0.00    +0.226 C 
ENDROOT
BRANCH  10   1
ATOM      1  S   UNL     1       9.671   7.557   7.351  0.00  0.00    +0.030 S 
ATOM      4  O   UNL     1       8.239   7.506   7.549  0.00  0.00    -0.158 OA
ATOM      5  O   UNL     1      10.456   8.697   7.770  0.00  0.00    -0.158 OA
ATOM     25  C   UNL     1      10.377   6.104   8.086  0.00  0.00    +0.215 C 
ENDBRANCH  10   1
BRANCH  14  18
ATOM      3  O   UNL     1      11.887   8.643   4.614  0.00  0.00    -0.274 OA
ATOM     12  N   UNL     1      13.560   7.142   5.219  0.00  0.00    -0.303 N 
ATOM     18  C   UNL     1      12.248   7.551   5.043  0.00  0.00    +0.234 C 
ATOM     29  H   UNL     1      13.743   6.215   5.594  0.00  0.00    +0.149 HD
BRANCH  12  19
ATOM      7  O   UNL     1      14.989   6.586   2.958  0.00  0.00    -0.274 OA
ATOM     13  N   UNL     1      16.872   7.528   3.844  0.00  0.00    -0.314 N 
ATOM     19  C   UNL     1      14.693   7.975   4.909  0.00  0.00    +0.159 C 
ATOM     20  C   UNL     1      15.471   8.324   6.170  0.00  0.00    +0.033 C 
ATOM     21  C   UNL     1      16.751   9.052   5.795  0.00  0.00    +0.021 C 
ATOM     23  C   UNL     1      15.517   7.267   3.839  0.00  0.00    +0.233 C 
ATOM     24  C   UNL     1      17.607   8.139   4.936  0.00  0.00    +0.104 C 
ATOM     30  H   UNL     1      17.423   7.108   3.101  0.00  0.00    +0.149 HD
ENDBRANCH  12  19
ENDBRANCH  14  18
BRANCH  22  26
ATOM     26  C   UNL     1      11.805   4.636   1.597  0.00  0.00    +0.165 C 
BRANCH  26   2
ATOM      2  S   UNL     1      12.919   5.401   0.410  0.00  0.00    -0.140 S 
BRANCH   2  27
ATOM     27  C   UNL     1      13.885   3.939  -0.047  0.00  0.00    +0.189 C 
BRANCH  27  28
ATOM      9  O   UNL     1      14.963   3.125   1.949  0.00  0.00    -0.250 OA
ATOM     28  C   UNL     1      15.028   3.776   0.913  0.00  0.00    +0.315 C 
BRANCH  28   8
ATOM      8  O   UNL     1      16.153   4.415   0.503  0.00  0.00    -0.480 OA
ATOM     31  H   UNL     1      16.423   4.138  -0.398  0.00  0.00    +0.295 HD
ENDBRANCH  28   8
ENDBRANCH  27  28
ENDBRANCH   2  27
ENDBRANCH  26   2
ENDBRANCH  22  26
TORSDOF 8
ENDMDL
MODEL 3
REMARK VINA RESULT:      -5.5     36.031     38.991
REMARK  Name = 11912249
REMARK  9 active torsions:
REMARK  status: ('A' for Active; 'I' for Inactive)
REMARK    1  A    between atoms: S_1  and  N_10
REMARK    2  A    between atoms: S_1  and  C_25
REMARK    3  A    between atoms: S_2  and  C_26
REMARK    4  A    between atoms: S_2  and  C_27
REMARK    5  A    between atoms: O_8  and  C_28
REMARK    6  A    between atoms: N_12  and  C_19
REMARK    7  A    between atoms: C_14  and  C_18
REMARK    8  A    between atoms: C_22  and  C_26
REMARK    9  A    between atoms: C_27  and  C_28
REMARK                            x       y       z     vdW  Elec       q    Type
REMARK                         _______ _______ _______ _____ _____    ______ ____
ROOT
ATOM      6  O   UNL     1     -19.153   3.777  26.970  0.00  0.00    -0.275 OA
ATOM     10  N   UNL     1     -16.094   1.193  29.986  0.00  0.00    -0.167 NA
ATOM     11  N   UNL     1     -17.240   2.972  28.007  0.00  0.00    -0.298 N 
ATOM     14  C   UNL     1     -15.471   2.518  29.722  0.00  0.00    +0.182 C 
ATOM     15  C   UNL     1     -15.817   3.092  28.349  0.00  0.00    +0.137 C 
ATOM     16  C   UNL     1     -16.957   0.673  28.894  0.00  0.00    +0.129 C 
ATOM     17  C   UNL     1     -17.925   1.763  28.462  0.00  0.00    +0.125 C 
ATOM     22  C   UNL     1     -17.963   3.907  27.267  0.00  0.00    +0.226 C 
ENDROOT
BRANCH  10   1
ATOM      1  S   UNL     1     -15.135   0.038  30.804  0.00  0.00    +0.030 S 
ATOM      4  O   UNL     1     -15.722  -1.271  30.617  0.00  0.00    -0.158 OA
ATOM      5  O   UNL     1     -14.813   0.547  32.118  0.00  0.00    -0.158 OA
ATOM     25  C   UNL     1     -13.669   0.128  29.807  0.00  0.00    +0.215 C 
ENDBRANCH  10   1
BRANCH  14  18
ATOM      3  O   UNL     1     -17.137   3.809  30.837  0.00  0.00    -0.274 OA
ATOM     12  N   UNL     1     -15.007   3.669  31.767  0.00  0.00    -0.303 N 
ATOM     18  C   UNL     1     -15.982   3.392  30.823  0.00  0.00    +0.234 C 
ATOM     29  H   UNL     1     -14.083   3.259  31.659  0.00  0.00    +0.149 HD
BRANCH  12  19
ATOM      7  O   UNL     1     -15.019   6.378  31.406  0.00  0.00    -0.274 OA
ATOM     13  N   UNL     1     -14.399   6.730  33.576  0.00  0.00    -0.314 N 
ATOM     19  C   UNL     1     -15.238   4.507  32.915  0.00  0.00    +0.159 C 
ATOM     20  C   UNL     1     -14.519   3.959  34.139  0.00  0.00    +0.033 C 
ATOM     21  C   UNL     1     -14.634   4.951  35.286  0.00  0.00    +0.021 C 
ATOM     23  C   UNL     1     -14.846   5.933  32.542  0.00  0.00    +0.233 C 
ATOM     24  C   UNL     1     -13.974   6.256  34.880  0.00  0.00    +0.104 C 
ATOM     30  H   UNL     1     -14.189   7.698  33.351  0.00  0.00    +0.149 HD
ENDBRANCH  12  19
ENDBRANCH  14  18
BRANCH  22  26
ATOM     26  C   UNL     1     -17.214   5.139  26.823  0.00  0.00    +0.165 C 
BRANCH  26   2
ATOM      2  S   UNL     1     -17.227   5.167  25.024  0.00  0.00    -0.140 S 
BRANCH   2  27
ATOM     27  C   UNL     1     -15.768   4.140  24.719  0.00  0.00    +0.189 C 
BRANCH  27  28
ATOM      9  O   UNL     1     -16.480   2.724  22.902  0.00  0.00    -0.250 OA
ATOM     28  C   UNL     1     -16.193   2.845  24.087  0.00  0.00    +0.315 C 
BRANCH  28   8
ATOM      8  O   UNL     1     -16.211   1.813  24.968  0.00  0.00    -0.480 OA
ATOM     31  H   UNL     1     -16.577   0.996  24.567  0.00  0.00    +0.295 HD
ENDBRANCH  28   8
ENDBRANCH  27  28
ENDBRANCH   2  27
ENDBRANCH  26   2
ENDBRANCH  22  26
TORSDOF 8
ENDMDL
MODEL 4
REMARK VINA RESULT:      -5.5     16.258     19.648
REMARK  Name = 11912249
REMARK  9 active torsions:
REMARK  status: ('A' for Active; 'I' for Inactive)
REMARK    1  A    between atoms: S_1  and  N_10
REMARK    2  A    between atoms: S_1  and  C_25
REMARK    3  A    between atoms: S_2  and  C_26
REMARK    4  A    between atoms: S_2  and  C_27
REMARK    5  A    between atoms: O_8  and  C_28
REMARK    6  A    between atoms: N_12  and  C_19
REMARK    7  A    between atoms: C_14  and  C_18
REMARK    8  A    between atoms: C_22  and  C_26
REMARK    9  A    between atoms: C_27  and  C_28
REMARK                            x       y       z     vdW  Elec       q    Type
REMARK                         _______ _______ _______ _____ _____    ______ ____
ROOT
ATOM      6  O   UNL     1      17.290  11.535  19.913  0.00  0.00    -0.275 OA
ATOM     10  N   UNL     1      13.088   8.814  20.179  0.00  0.00    -0.167 NA
ATOM     11  N   UNL     1      15.660  10.059  20.654  0.00  0.00    -0.298 N 
ATOM     14  C   UNL     1      13.517   9.139  21.567  0.00  0.00    +0.182 C 
ATOM     15  C   UNL     1      15.030   9.272  21.722  0.00  0.00    +0.137 C 
ATOM     16  C   UNL     1      14.189   8.703  19.189  0.00  0.00    +0.129 C 
ATOM     17  C   UNL     1      15.096   9.916  19.313  0.00  0.00    +0.125 C 
ATOM     22  C   UNL     1      16.760  10.900  20.827  0.00  0.00    +0.226 C 
ENDROOT
BRANCH  10   1
ATOM      1  S   UNL     1      11.805   7.697  20.009  0.00  0.00    +0.030 S 
ATOM      4  O   UNL     1      12.224   6.637  19.118  0.00  0.00    -0.158 OA
ATOM      5  O   UNL     1      10.576   8.428  19.796  0.00  0.00    -0.158 OA
ATOM     25  C   UNL     1      11.775   7.044  21.659  0.00  0.00    +0.215 C 
ENDBRANCH  10   1
BRANCH  14  18
ATOM      3  O   UNL     1      12.225  11.065  21.014  0.00  0.00    -0.274 OA
ATOM     12  N   UNL     1      12.960  10.790  23.205  0.00  0.00    -0.303 N 
ATOM     18  C   UNL     1      12.822  10.426  21.876  0.00  0.00    +0.234 C 
ATOM     29  H   UNL     1      13.468  10.176  23.836  0.00  0.00    +0.149 HD
BRANCH  12  19
ATOM      7  O   UNL     1      13.838  11.621  25.656  0.00  0.00    -0.274 OA
ATOM     13  N   UNL     1      11.878  12.724  26.051  0.00  0.00    -0.314 N 
ATOM     19  C   UNL     1      12.403  11.999  23.753  0.00  0.00    +0.159 C 
ATOM     20  C   UNL     1      10.910  12.086  23.469  0.00  0.00    +0.033 C 
ATOM     21  C   UNL     1      10.319  13.278  24.205  0.00  0.00    +0.021 C 
ATOM     23  C   UNL     1      12.766  12.055  25.233  0.00  0.00    +0.233 C 
ATOM     24  C   UNL     1      10.518  13.087  25.698  0.00  0.00    +0.104 C 
ATOM     30  H   UNL     1      12.136  12.818  27.029  0.00  0.00    +0.149 HD
ENDBRANCH  12  19
ENDBRANCH  14  18
BRANCH  22  26
ATOM     26  C   UNL     1      17.305  11.016  22.229  0.00  0.00    +0.165 C 
BRANCH  26   2
ATOM      2  S   UNL     1      19.097  10.896  22.130  0.00  0.00    -0.140 S 
BRANCH   2  27
ATOM     27  C   UNL     1      19.222   9.367  21.170  0.00  0.00    +0.189 C 
BRANCH  27  28
ATOM      9  O   UNL     1      18.075   7.309  21.681  0.00  0.00    -0.250 OA
ATOM     28  C   UNL     1      18.834   8.201  22.035  0.00  0.00    +0.315 C 
BRANCH  28   8
ATOM      8  O   UNL     1      19.430   8.233  23.255  0.00  0.00    -0.480 OA
ATOM     31  H   UNL     1      18.921   7.727  23.924  0.00  0.00    +0.295 HD
ENDBRANCH  28   8
ENDBRANCH  27  28
ENDBRANCH   2  27
ENDBRANCH  26   2
ENDBRANCH  22  26
TORSDOF 8
ENDMDL
MODEL 5
REMARK VINA RESULT:      -5.4     14.464     18.400
REMARK  Name = 11912249
REMARK  9 active torsions:
REMARK  status: ('A' for Active; 'I' for Inactive)
REMARK    1  A    between atoms: S_1  and  N_10
REMARK    2  A    between atoms: S_1  and  C_25
REMARK    3  A    between atoms: S_2  and  C_26
REMARK    4  A    between atoms: S_2  and  C_27
REMARK    5  A    between atoms: O_8  and  C_28
REMARK    6  A    between atoms: N_12  and  C_19
REMARK    7  A    between atoms: C_14  and  C_18
REMARK    8  A    between atoms: C_22  and  C_26
REMARK    9  A    between atoms: C_27  and  C_28
REMARK                            x       y       z     vdW  Elec       q    Type
REMARK                         _______ _______ _______ _____ _____    ______ ____
ROOT
ATOM      6  O   UNL     1      17.830  10.257  20.810  0.00  0.00    -0.275 OA
ATOM     10  N   UNL     1      13.421   8.687  19.010  0.00  0.00    -0.167 NA
ATOM     11  N   UNL     1      16.124   8.888  20.034  0.00  0.00    -0.298 N 
ATOM     14  C   UNL     1      13.971   7.615  19.884  0.00  0.00    +0.182 C 
ATOM     15  C   UNL     1      15.498   7.567  19.901  0.00  0.00    +0.137 C 
ATOM     16  C   UNL     1      14.438   9.533  18.333  0.00  0.00    +0.129 C 
ATOM     17  C   UNL     1      15.459  10.001  19.357  0.00  0.00    +0.125 C 
ATOM     22  C   UNL     1      17.306   9.143  20.729  0.00  0.00    +0.226 C 
ENDROOT
BRANCH  10   1
ATOM      1  S   UNL     1      12.032   8.299  18.093  0.00  0.00    +0.030 S 
ATOM      4  O   UNL     1      10.856   8.687  18.841  0.00  0.00    -0.158 OA
ATOM      5  O   UNL     1      12.185   6.964  17.558  0.00  0.00    -0.158 OA
ATOM     25  C   UNL     1      12.239   9.452  16.760  0.00  0.00    +0.215 C 
ENDBRANCH  10   1
BRANCH  14  18
ATOM      3  O   UNL     1      13.289   7.061  22.101  0.00  0.00    -0.274 OA
ATOM     12  N   UNL     1      13.078   9.262  21.372  0.00  0.00    -0.303 N 
ATOM     18  C   UNL     1      13.421   7.926  21.240  0.00  0.00    +0.234 C 
ATOM     29  H   UNL     1      13.243   9.894  20.593  0.00  0.00    +0.149 HD
BRANCH  12  19
ATOM      7  O   UNL     1      10.402   8.912  21.804  0.00  0.00    -0.274 OA
ATOM     13  N   UNL     1      10.303  10.794  23.094  0.00  0.00    -0.314 N 
ATOM     19  C   UNL     1      12.505   9.813  22.572  0.00  0.00    +0.159 C 
ATOM     20  C   UNL     1      13.099  11.181  22.878  0.00  0.00    +0.033 C 
ATOM     21  C   UNL     1      12.355  11.812  24.044  0.00  0.00    +0.021 C 
ATOM     23  C   UNL     1      10.988   9.807  22.415  0.00  0.00    +0.233 C 
ATOM     24  C   UNL     1      10.897  11.991  23.662  0.00  0.00    +0.104 C 
ATOM     30  H   UNL     1       9.289  10.767  23.043  0.00  0.00    +0.149 HD
ENDBRANCH  12  19
ENDBRANCH  14  18
BRANCH  22  26
ATOM     26  C   UNL     1      17.953   7.964  21.413  0.00  0.00    +0.165 C 
BRANCH  26   2
ATOM      2  S   UNL     1      19.497   8.534  22.140  0.00  0.00    -0.140 S 
BRANCH   2  27
ATOM     27  C   UNL     1      20.654   7.620  21.089  0.00  0.00    +0.189 C 
BRANCH  27  28
ATOM      9  O   UNL     1      20.593   5.638  22.461  0.00  0.00    -0.250 OA
ATOM     28  C   UNL     1      20.508   6.148  21.350  0.00  0.00    +0.315 C 
BRANCH  28   8
ATOM      8  O   UNL     1      20.256   5.438  20.221  0.00  0.00    -0.480 OA
ATOM     31  H   UNL     1      20.894   4.703  20.101  0.00  0.00    +0.295 HD
ENDBRANCH  28   8
ENDBRANCH  27  28
ENDBRANCH   2  27
ENDBRANCH  26   2
ENDBRANCH  22  26
TORSDOF 8
ENDMDL
MODEL 6
REMARK VINA RESULT:      -5.4     15.414     18.621
REMARK  Name = 11912249
REMARK  9 active torsions:
REMARK  status: ('A' for Active; 'I' for Inactive)
REMARK    1  A    between atoms: S_1  and  N_10
REMARK    2  A    between atoms: S_1  and  C_25
REMARK    3  A    between atoms: S_2  and  C_26
REMARK    4  A    between atoms: S_2  and  C_27
REMARK    5  A    between atoms: O_8  and  C_28
REMARK    6  A    between atoms: N_12  and  C_19
REMARK    7  A    between atoms: C_14  and  C_18
REMARK    8  A    between atoms: C_22  and  C_26
REMARK    9  A    between atoms: C_27  and  C_28
REMARK                            x       y       z     vdW  Elec       q    Type
REMARK                         _______ _______ _______ _____ _____    ______ ____
ROOT
ATOM      6  O   UNL     1      16.107  13.212  19.249  0.00  0.00    -0.275 OA
ATOM     10  N   UNL     1      12.959   9.309  19.288  0.00  0.00    -0.167 NA
ATOM     11  N   UNL     1      15.280  11.044  19.273  0.00  0.00    -0.298 N 
ATOM     14  C   UNL     1      14.191   8.917  20.027  0.00  0.00    +0.182 C 
ATOM     15  C   UNL     1      15.454   9.606  19.514  0.00  0.00    +0.137 C 
ATOM     16  C   UNL     1      13.162  10.311  18.211  0.00  0.00    +0.129 C 
ATOM     17  C   UNL     1      13.981  11.470  18.755  0.00  0.00    +0.125 C 
ATOM     22  C   UNL     1      16.265  12.011  19.479  0.00  0.00    +0.226 C 
ENDROOT
BRANCH  10   1
ATOM      1  S   UNL     1      11.826   8.071  18.964  0.00  0.00    +0.030 S 
ATOM      4  O   UNL     1      11.992   7.635  17.595  0.00  0.00    -0.158 OA
ATOM      5  O   UNL     1      10.537   8.471  19.484  0.00  0.00    -0.158 OA
ATOM     25  C   UNL     1      12.476   6.806  20.025  0.00  0.00    +0.215 C 
ENDBRANCH  10   1
BRANCH  14  18
ATOM      3  O   UNL     1      14.479   8.751  22.388  0.00  0.00    -0.274 OA
ATOM     12  N   UNL     1      12.930  10.270  21.544  0.00  0.00    -0.303 N 
ATOM     18  C   UNL     1      13.905   9.291  21.446  0.00  0.00    +0.234 C 
ATOM     29  H   UNL     1      12.530  10.655  20.693  0.00  0.00    +0.149 HD
BRANCH  12  19
ATOM      7  O   UNL     1      10.514   9.395  22.474  0.00  0.00    -0.274 OA
ATOM     13  N   UNL     1      10.210  11.318  23.668  0.00  0.00    -0.314 N 
ATOM     19  C   UNL     1      12.458  10.788  22.801  0.00  0.00    +0.159 C 
ATOM     20  C   UNL     1      12.769  12.273  22.927  0.00  0.00    +0.033 C 
ATOM     21  C   UNL     1      12.108  12.830  24.177  0.00  0.00    +0.021 C 
ATOM     23  C   UNL     1      10.977  10.445  22.924  0.00  0.00    +0.233 C 
ATOM     24  C   UNL     1      10.604  12.658  24.061  0.00  0.00    +0.104 C 
ATOM     30  H   UNL     1       9.235  11.070  23.806  0.00  0.00    +0.149 HD
ENDBRANCH  12  19
ENDBRANCH  14  18
BRANCH  22  26
ATOM     26  C   UNL     1      17.586  11.522  20.018  0.00  0.00    +0.165 C 
BRANCH  26   2
ATOM      2  S   UNL     1      17.437  11.405  21.807  0.00  0.00    -0.140 S 
BRANCH   2  27
ATOM     27  C   UNL     1      18.917  10.419  22.145  0.00  0.00    +0.189 C 
BRANCH  27  28
ATOM      9  O   UNL     1      19.468   8.219  21.328  0.00  0.00    -0.250 OA
ATOM     28  C   UNL     1      18.643   8.978  21.821  0.00  0.00    +0.315 C 
BRANCH  28   8
ATOM      8  O   UNL     1      17.381   8.599  22.148  0.00  0.00    -0.480 OA
ATOM     31  H   UNL     1      17.231   8.625  23.117  0.00  0.00    +0.295 HD
ENDBRANCH  28   8
ENDBRANCH  27  28
ENDBRANCH   2  27
ENDBRANCH  26   2
ENDBRANCH  22  26
TORSDOF 8
ENDMDL
MODEL 7
REMARK VINA RESULT:      -5.3     25.348     27.977
REMARK  Name = 11912249
REMARK  9 active torsions:
REMARK  status: ('A' for Active; 'I' for Inactive)
REMARK    1  A    between atoms: S_1  and  N_10
REMARK    2  A    between atoms: S_1  and  C_25
REMARK    3  A    between atoms: S_2  and  C_26
REMARK    4  A    between atoms: S_2  and  C_27
REMARK    5  A    between atoms: O_8  and  C_28
REMARK    6  A    between atoms: N_12  and  C_19
REMARK    7  A    between atoms: C_14  and  C_18
REMARK    8  A    between atoms: C_22  and  C_26
REMARK    9  A    between atoms: C_27  and  C_28
REMARK                            x       y       z     vdW  Elec       q    Type
REMARK                         _______ _______ _______ _____ _____    ______ ____
ROOT
ATOM      6  O   UNL     1      -2.980 -10.960  16.757  0.00  0.00    -0.275 OA
ATOM     10  N   UNL     1      -4.855 -10.774  12.111  0.00  0.00    -0.167 NA
ATOM     11  N   UNL     1      -4.186 -11.473  14.842  0.00  0.00    -0.298 N 
ATOM     14  C   UNL     1      -5.880 -11.387  12.999  0.00  0.00    +0.182 C 
ATOM     15  C   UNL     1      -5.285 -12.173  14.166  0.00  0.00    +0.137 C 
ATOM     16  C   UNL     1      -3.446 -11.005  12.521  0.00  0.00    +0.129 C 
ATOM     17  C   UNL     1      -3.296 -10.677  13.998  0.00  0.00    +0.125 C 
ATOM     22  C   UNL     1      -3.923 -11.537  16.211  0.00  0.00    +0.226 C 
ENDROOT
BRANCH  10   1
ATOM      1  S   UNL     1      -5.167 -10.811  10.431  0.00  0.00    +0.030 S 
ATOM      4  O   UNL     1      -4.000 -11.330   9.751  0.00  0.00    -0.158 OA
ATOM      5  O   UNL     1      -5.778  -9.559  10.043  0.00  0.00    -0.158 OA
ATOM     25  C   UNL     1      -6.421 -12.066  10.402  0.00  0.00    +0.215 C 
ENDBRANCH  10   1
BRANCH  14  18
ATOM      3  O   UNL     1      -6.601  -9.115  12.970  0.00  0.00    -0.274 OA
ATOM     12  N   UNL     1      -7.506 -10.566  14.549  0.00  0.00    -0.303 N 
ATOM     18  C   UNL     1      -6.692 -10.227  13.481  0.00  0.00    +0.234 C 
ATOM     29  H   UNL     1      -7.509 -11.526  14.884  0.00  0.00    +0.149 HD
BRANCH  12  19
ATOM      7  O   UNL     1      -6.542  -9.249  16.741  0.00  0.00    -0.274 OA
ATOM     13  N   UNL     1      -8.650  -8.961  17.570  0.00  0.00    -0.314 N 
ATOM     19  C   UNL     1      -8.370  -9.624  15.211  0.00  0.00    +0.159 C 
ATOM     20  C   UNL     1      -9.799 -10.147  15.271  0.00  0.00    +0.033 C 
ATOM     21  C   UNL     1     -10.647  -9.218  16.124  0.00  0.00    +0.021 C 
ATOM     23  C   UNL     1      -7.761  -9.303  16.571  0.00  0.00    +0.233 C 
ATOM     24  C   UNL     1     -10.084  -9.186  17.533  0.00  0.00    +0.104 C 
ATOM     30  H   UNL     1      -8.253  -8.690  18.464  0.00  0.00    +0.149 HD
ENDBRANCH  12  19
ENDBRANCH  14  18
BRANCH  22  26
ATOM     26  C   UNL     1      -4.870 -12.368  17.040  0.00  0.00    +0.165 C 
BRANCH  26   2
ATOM      2  S   UNL     1      -4.888 -11.680  18.702  0.00  0.00    -0.140 S 
BRANCH   2  27
ATOM     27  C   UNL     1      -6.520 -12.262  19.227  0.00  0.00    +0.189 C 
BRANCH  27  28
ATOM      9  O   UNL     1      -8.535 -11.152  19.947  0.00  0.00    -0.250 OA
ATOM     28  C   UNL     1      -7.335 -11.096  19.708  0.00  0.00    +0.315 C 
BRANCH  28   8
ATOM      8  O   UNL     1      -6.595  -9.969  19.866  0.00  0.00    -0.480 OA
ATOM     31  H   UNL     1      -7.128  -9.158  19.721  0.00  0.00    +0.295 HD
ENDBRANCH  28   8
ENDBRANCH  27  28
ENDBRANCH   2  27
ENDBRANCH  26   2
ENDBRANCH  22  26
TORSDOF 8
ENDMDL
MODEL 8
REMARK VINA RESULT:      -5.3     14.717     19.384
REMARK  Name = 11912249
REMARK  9 active torsions:
REMARK  status: ('A' for Active; 'I' for Inactive)
REMARK    1  A    between atoms: S_1  and  N_10
REMARK    2  A    between atoms: S_1  and  C_25
REMARK    3  A    between atoms: S_2  and  C_26
REMARK    4  A    between atoms: S_2  and  C_27
REMARK    5  A    between atoms: O_8  and  C_28
REMARK    6  A    between atoms: N_12  and  C_19
REMARK    7  A    between atoms: C_14  and  C_18
REMARK    8  A    between atoms: C_22  and  C_26
REMARK    9  A    between atoms: C_27  and  C_28
REMARK                            x       y       z     vdW  Elec       q    Type
REMARK                         _______ _______ _______ _____ _____    ______ ____
ROOT
ATOM      6  O   UNL     1      15.323  10.829  19.705  0.00  0.00    -0.275 OA
ATOM     10  N   UNL     1      12.696  13.243  23.228  0.00  0.00    -0.167 NA
ATOM     11  N   UNL     1      13.669  12.063  20.767  0.00  0.00    -0.298 N 
ATOM     14  C   UNL     1      11.736  12.694  22.231  0.00  0.00    +0.182 C 
ATOM     15  C   UNL     1      12.308  12.611  20.817  0.00  0.00    +0.137 C 
ATOM     16  C   UNL     1      14.037  13.586  22.690  0.00  0.00    +0.129 C 
ATOM     17  C   UNL     1      14.561  12.417  21.871  0.00  0.00    +0.125 C 
ATOM     22  C   UNL     1      14.168  11.261  19.740  0.00  0.00    +0.226 C 
ENDROOT
BRANCH  10   1
ATOM      1  S   UNL     1      12.061  14.306  24.406  0.00  0.00    +0.030 S 
ATOM      4  O   UNL     1      10.624  14.367  24.253  0.00  0.00    -0.158 OA
ATOM      5  O   UNL     1      12.873  15.502  24.441  0.00  0.00    -0.158 OA
ATOM     25  C   UNL     1      12.417  13.359  25.864  0.00  0.00    +0.215 C 
ENDBRANCH  10   1
BRANCH  14  18
ATOM      3  O   UNL     1      10.726  11.190  23.781  0.00  0.00    -0.274 OA
ATOM     12  N   UNL     1      11.918  10.323  21.980  0.00  0.00    -0.303 N 
ATOM     18  C   UNL     1      11.390  11.339  22.759  0.00  0.00    +0.234 C 
ATOM     29  H   UNL     1      12.445  10.563  21.144  0.00  0.00    +0.149 HD
BRANCH  12  19
ATOM      7  O   UNL     1      14.151   8.753  22.130  0.00  0.00    -0.274 OA
ATOM     13  N   UNL     1      12.949   6.889  21.585  0.00  0.00    -0.314 N 
ATOM     19  C   UNL     1      11.749   8.926  22.285  0.00  0.00    +0.159 C 
ATOM     20  C   UNL     1      10.531   8.359  21.569  0.00  0.00    +0.033 C 
ATOM     21  C   UNL     1      10.477   6.853  21.767  0.00  0.00    +0.021 C 
ATOM     23  C   UNL     1      13.057   8.212  21.962  0.00  0.00    +0.233 C 
ATOM     24  C   UNL     1      11.725   6.229  21.169  0.00  0.00    +0.104 C 
ATOM     30  H   UNL     1      13.817   6.386  21.423  0.00  0.00    +0.149 HD
ENDBRANCH  12  19
ENDBRANCH  14  18
BRANCH  22  26
ATOM     26  C   UNL     1      13.211  10.921  18.625  0.00  0.00    +0.165 C 
BRANCH  26   2
ATOM      2  S   UNL     1      13.377   9.163  18.280  0.00  0.00    -0.140 S 
BRANCH   2  27
ATOM     27  C   UNL     1      12.906   9.177  16.532  0.00  0.00    +0.189 C 
BRANCH  27  28
ATOM      9  O   UNL     1      10.903   7.924  17.010  0.00  0.00    -0.250 OA
ATOM     28  C   UNL     1      11.448   8.839  16.405  0.00  0.00    +0.315 C 
BRANCH  28   8
ATOM      8  O   UNL     1      10.790   9.668  15.556  0.00  0.00    -0.480 OA
ATOM     31  H   UNL     1      10.189   9.176  14.956  0.00  0.00    +0.295 HD
ENDBRANCH  28   8
ENDBRANCH  27  28
ENDBRANCH   2  27
ENDBRANCH  26   2
ENDBRANCH  22  26
TORSDOF 8
ENDMDL
MODEL 9
REMARK VINA RESULT:      -5.3     12.827     17.166
REMARK  Name = 11912249
REMARK  9 active torsions:
REMARK  status: ('A' for Active; 'I' for Inactive)
REMARK    1  A    between atoms: S_1  and  N_10
REMARK    2  A    between atoms: S_1  and  C_25
REMARK    3  A    between atoms: S_2  and  C_26
REMARK    4  A    between atoms: S_2  and  C_27
REMARK    5  A    between atoms: O_8  and  C_28
REMARK    6  A    between atoms: N_12  and  C_19
REMARK    7  A    between atoms: C_14  and  C_18
REMARK    8  A    between atoms: C_22  and  C_26
REMARK    9  A    between atoms: C_27  and  C_28
REMARK                            x       y       z     vdW  Elec       q    Type
REMARK                         _______ _______ _______ _____ _____    ______ ____
ROOT
ATOM      6  O   UNL     1      12.679  10.327  14.875  0.00  0.00    -0.275 OA
ATOM     10  N   UNL     1      12.488   8.250  19.434  0.00  0.00    -0.167 NA
ATOM     11  N   UNL     1      13.312   9.387  16.900  0.00  0.00    -0.298 N 
ATOM     14  C   UNL     1      13.733   9.062  19.348  0.00  0.00    +0.182 C 
ATOM     15  C   UNL     1      14.318   9.133  17.939  0.00  0.00    +0.137 C 
ATOM     16  C   UNL     1      12.019   7.677  18.147  0.00  0.00    +0.129 C 
ATOM     17  C   UNL     1      12.000   8.771  17.091  0.00  0.00    +0.125 C 
ATOM     22  C   UNL     1      13.530  10.144  15.749  0.00  0.00    +0.226 C 
ENDROOT
BRANCH  10   1
ATOM      1  S   UNL     1      12.310   7.255  20.813  0.00  0.00    +0.030 S 
ATOM      4  O   UNL     1      11.667   6.021  20.416  0.00  0.00    -0.158 OA
ATOM      5  O   UNL     1      11.806   8.058  21.905  0.00  0.00    -0.158 OA
ATOM     25  C   UNL     1      14.019   6.903  21.133  0.00  0.00    +0.215 C 
ENDBRANCH  10   1
BRANCH  14  18
ATOM      3  O   UNL     1      13.179  11.365  19.073  0.00  0.00    -0.274 OA
ATOM     12  N   UNL     1      13.164  10.448  21.213  0.00  0.00    -0.303 N 
ATOM     18  C   UNL     1      13.325  10.415  19.838  0.00  0.00    +0.234 C 
ATOM     29  H   UNL     1      13.301   9.594  21.747  0.00  0.00    +0.149 HD
BRANCH  12  19
ATOM      7  O   UNL     1      14.572  11.076  23.470  0.00  0.00    -0.274 OA
ATOM     13  N   UNL     1      12.796  12.225  24.330  0.00  0.00    -0.314 N 
ATOM     19  C   UNL     1      12.797  11.638  21.935  0.00  0.00    +0.159 C 
ATOM     20  C   UNL     1      11.284  11.802  21.976  0.00  0.00    +0.033 C 
ATOM     21  C   UNL     1      10.920  12.963  22.888  0.00  0.00    +0.021 C 
ATOM     23  C   UNL     1      13.459  11.579  23.307  0.00  0.00    +0.233 C 
ATOM     24  C   UNL     1      11.413  12.663  24.292  0.00  0.00    +0.104 C 
ATOM     30  H   UNL     1      13.255  12.242  25.236  0.00  0.00    +0.149 HD
ENDBRANCH  12  19
ENDBRANCH  14  18
BRANCH  22  26
ATOM     26  C   UNL     1      14.898  10.763  15.598  0.00  0.00    +0.165 C 
BRANCH  26   2
ATOM      2  S   UNL     1      14.721  12.243  14.591  0.00  0.00    -0.140 S 
BRANCH   2  27
ATOM     27  C   UNL     1      16.442  12.427  14.061  0.00  0.00    +0.189 C 
BRANCH  27  28
ATOM      9  O   UNL     1      17.251  12.769  11.817  0.00  0.00    -0.250 OA
ATOM     28  C   UNL     1      16.546  12.135  12.592  0.00  0.00    +0.315 C 
BRANCH  28   8
ATOM      8  O   UNL     1      15.783  11.079  12.212  0.00  0.00    -0.480 OA
ATOM     31  H   UNL     1      14.901  11.091  12.641  0.00  0.00    +0.295 HD
ENDBRANCH  28   8
ENDBRANCH  27  28
ENDBRANCH   2  27
ENDBRANCH  26   2
ENDBRANCH  22  26
TORSDOF 8
ENDMDL
MODEL 10
REMARK VINA RESULT:      -5.3      2.720      5.588
REMARK  Name = 11912249
REMARK  9 active torsions:
REMARK  status: ('A' for Active; 'I' for Inactive)
REMARK    1  A    between atoms: S_1  and  N_10
REMARK    2  A    between atoms: S_1  and  C_25
REMARK    3  A    between atoms: S_2  and  C_26
REMARK    4  A    between atoms: S_2  and  C_27
REMARK    5  A    between atoms: O_8  and  C_28
REMARK    6  A    between atoms: N_12  and  C_19
REMARK    7  A    between atoms: C_14  and  C_18
REMARK    8  A    between atoms: C_22  and  C_26
REMARK    9  A    between atoms: C_27  and  C_28
REMARK                            x       y       z     vdW  Elec       q    Type
REMARK                         _______ _______ _______ _____ _____    ______ ____
ROOT
ATOM      6  O   UNL     1      10.127   8.199   4.112  0.00  0.00    -0.275 OA
ATOM     10  N   UNL     1      12.941   4.932   1.554  0.00  0.00    -0.167 NA
ATOM     11  N   UNL     1      11.139   6.231   3.414  0.00  0.00    -0.298 N 
ATOM     14  C   UNL     1      11.741   4.211   2.060  0.00  0.00    +0.182 C 
ATOM     15  C   UNL     1      11.209   4.765   3.380  0.00  0.00    +0.137 C 
ATOM     16  C   UNL     1      13.394   6.069   2.395  0.00  0.00    +0.129 C 
ATOM     17  C   UNL     1      12.203   6.955   2.720  0.00  0.00    +0.125 C 
ATOM     22  C   UNL     1      10.156   6.967   4.075  0.00  0.00    +0.226 C 
ENDROOT
BRANCH  10   1
ATOM      1  S   UNL     1      14.171   3.980   0.845  0.00  0.00    +0.030 S 
ATOM      4  O   UNL     1      13.699   3.483  -0.429  0.00  0.00    -0.158 OA
ATOM      5  O   UNL     1      14.714   3.095   1.852  0.00  0.00    -0.158 OA
ATOM     25  C   UNL     1      15.368   5.251   0.529  0.00  0.00    +0.215 C 
ENDBRANCH  10   1
BRANCH  14  18
ATOM      3  O   UNL     1       9.588   3.929   1.074  0.00  0.00    -0.274 OA
ATOM     12  N   UNL     1      11.259   4.991  -0.150  0.00  0.00    -0.303 N 
ATOM     18  C   UNL     1      10.734   4.356   0.963  0.00  0.00    +0.234 C 
ATOM     29  H   UNL     1      12.223   5.314  -0.125  0.00  0.00    +0.149 HD
BRANCH  12  19
ATOM      7  O   UNL     1      10.870   2.906  -1.873  0.00  0.00    -0.274 OA
ATOM     13  N   UNL     1      10.641   4.332  -3.641  0.00  0.00    -0.314 N 
ATOM     19  C   UNL     1      10.502   5.233  -1.350  0.00  0.00    +0.159 C 
ATOM     20  C   UNL     1      10.850   6.589  -1.947  0.00  0.00    +0.033 C 
ATOM     21  C   UNL     1      10.171   6.742  -3.298  0.00  0.00    +0.021 C 
ATOM     23  C   UNL     1      10.726   4.055  -2.293  0.00  0.00    +0.233 C 
ATOM     24  C   UNL     1      10.677   5.657  -4.232  0.00  0.00    +0.104 C 
ATOM     30  H   UNL     1      10.731   3.546  -4.278  0.00  0.00    +0.149 HD
ENDBRANCH  12  19
ENDBRANCH  14  18
BRANCH  22  26
ATOM     26  C   UNL     1       9.078   6.176   4.774  0.00  0.00    +0.165 C 
BRANCH  26   2
ATOM      2  S   UNL     1       8.927   6.817   6.448  0.00  0.00    -0.140 S 
BRANCH   2  27
ATOM     27  C   UNL     1      10.356   5.993   7.192  0.00  0.00    +0.189 C 
BRANCH  27  28
ATOM      9  O   UNL     1       9.311   4.918   9.080  0.00  0.00    -0.250 OA
ATOM     28  C   UNL     1       9.888   4.819   8.004  0.00  0.00    +0.315 C 
BRANCH  28   8
ATOM      8  O   UNL     1      10.159   3.629   7.410  0.00  0.00    -0.480 OA
ATOM     31  H   UNL     1      10.872   3.709   6.740  0.00  0.00    +0.295 HD
ENDBRANCH  28   8
ENDBRANCH  27  28
ENDBRANCH   2  27
ENDBRANCH  26   2
ENDBRANCH  22  26
TORSDOF 8
ENDMDL
