MODEL 1
REMARK VINA RESULT:      -6.8      0.000      0.000
REMARK  Name = 11911754
REMARK  10 active torsions:
REMARK  status: ('A' for Active; 'I' for Inactive)
REMARK    1  A    between atoms: N_4  and  C_11
REMARK    2  A    between atoms: N_5  and  C_12
REMARK    3  A    between atoms: N_8  and  C_29
REMARK    4  A    between atoms: N_8  and  C_30
REMARK    5  A    between atoms: N_8  and  C_31
REMARK    6  A    between atoms: C_16  and  C_17
REMARK    7  A    between atoms: C_18  and  C_19
REMARK    8  A    between atoms: C_18  and  C_22
REMARK    9  A    between atoms: C_18  and  C_23
REMARK   10  A    between atoms: C_18  and  C_24
REMARK                            x       y       z     vdW  Elec       q    Type
REMARK                         _______ _______ _______ _____ _____    ______ ____
ROOT
ATOM      1  O   UNL     1     -11.960  -9.527  16.135  0.00  0.00    -0.370 OA
ATOM      2  O   UNL     1     -10.085  -7.048  15.853  0.00  0.00    -0.370 OA
ATOM      9  C   UNL     1     -10.559  -8.036  14.921  0.00  0.00    +0.171 C 
ATOM     10  C   UNL     1     -10.615  -9.359  15.659  0.00  0.00    +0.171 C 
ATOM     11  C   UNL     1     -11.996  -7.759  14.549  0.00  0.00    +0.130 C 
ATOM     12  C   UNL     1      -9.664  -9.173  16.820  0.00  0.00    +0.130 C 
ATOM     13  C   UNL     1     -12.766  -8.435  15.669  0.00  0.00    +0.185 C 
ATOM     14  C   UNL     1      -9.782  -7.686  17.102  0.00  0.00    +0.185 C 
ENDROOT
BRANCH  11   4
ATOM      4  N   UNL     1     -12.308  -8.382  13.281  0.00  0.00    -0.306 N 
ATOM      6  N   UNL     1     -12.454  -6.317  12.177  0.00  0.00    -0.219 NA
ATOM      7  N   UNL     1     -12.814  -8.382  10.990  0.00  0.00    -0.223 NA
ATOM     15  C   UNL     1     -12.531  -7.672  12.115  0.00  0.00    +0.216 A 
ATOM     19  C   UNL     1     -12.678  -5.657  11.022  0.00  0.00    +0.052 A 
ATOM     20  C   UNL     1     -12.971  -6.281   9.826  0.00  0.00    +0.043 A 
ATOM     21  C   UNL     1     -13.028  -7.659   9.871  0.00  0.00    +0.116 A 
ATOM     32  H   UNL     1     -12.316  -9.393  13.212  0.00  0.00    +0.149 HD
BRANCH  19  18
ATOM     18  C   UNL     1     -12.597  -4.168  11.072  0.00  0.00    +0.005 C 
ATOM     22  C   UNL     1     -11.506  -3.627  10.097  0.00  0.00    +0.017 C 
ATOM     23  C   UNL     1     -12.234  -3.669  12.506  0.00  0.00    +0.017 C 
ATOM     24  C   UNL     1     -13.911  -3.411  10.689  0.00  0.00    +0.017 C 
ENDBRANCH  19  18
ENDBRANCH  11   4
BRANCH  12   5
ATOM      3  O   UNL     1      -7.653 -10.276  18.548  0.00  0.00    -0.270 OA
ATOM      5  N   UNL     1      -8.315  -9.531  16.453  0.00  0.00    -0.304 N 
ATOM     16  C   UNL     1      -7.411 -10.060  17.364  0.00  0.00    +0.244 C 
ATOM     33  H   UNL     1      -8.010  -9.273  15.521  0.00  0.00    +0.149 HD
BRANCH  16  17
ATOM     17  C   UNL     1      -6.053 -10.351  16.836  0.00  0.00    +0.037 A 
ATOM     25  C   UNL     1      -5.809 -10.175  15.490  0.00  0.00    +0.015 A 
ATOM     26  C   UNL     1      -5.078 -10.786  17.711  0.00  0.00    +0.015 A 
ATOM     27  C   UNL     1      -4.533 -10.447  14.995  0.00  0.00    +0.024 A 
ATOM     28  C   UNL     1      -3.802 -11.058  17.215  0.00  0.00    +0.024 A 
ATOM     29  C   UNL     1      -3.530 -10.888  15.858  0.00  0.00    +0.029 A 
BRANCH  29   8
ATOM      8  N   UNL     1      -2.239 -11.162  15.359  0.00  0.00    -0.336 N 
ATOM     30  C   UNL     1      -1.116 -10.324  15.729  0.00  0.00    +0.129 C 
ATOM     31  C   UNL     1      -2.023 -12.277  14.458  0.00  0.00    +0.129 C 
ENDBRANCH  29   8
ENDBRANCH  16  17
ENDBRANCH  12   5
TORSDOF 5
ENDMDL
MODEL 2
REMARK VINA RESULT:      -6.8     28.672     31.110
REMARK  Name = 11911754
REMARK  10 active torsions:
REMARK  status: ('A' for Active; 'I' for Inactive)
REMARK    1  A    between atoms: N_4  and  C_11
REMARK    2  A    between atoms: N_5  and  C_12
REMARK    3  A    between atoms: N_8  and  C_29
REMARK    4  A    between atoms: N_8  and  C_30
REMARK    5  A    between atoms: N_8  and  C_31
REMARK    6  A    between atoms: C_16  and  C_17
REMARK    7  A    between atoms: C_18  and  C_19
REMARK    8  A    between atoms: C_18  and  C_22
REMARK    9  A    between atoms: C_18  and  C_23
REMARK   10  A    between atoms: C_18  and  C_24
REMARK                            x       y       z     vdW  Elec       q    Type
REMARK                         _______ _______ _______ _____ _____    ______ ____
ROOT
ATOM      1  O   UNL     1      13.424   8.022  17.896  0.00  0.00    -0.370 OA
ATOM      2  O   UNL     1      13.508   8.422  20.989  0.00  0.00    -0.370 OA
ATOM      9  C   UNL     1      14.062   9.158  19.886  0.00  0.00    +0.171 C 
ATOM     10  C   UNL     1      14.497   8.147  18.843  0.00  0.00    +0.171 C 
ATOM     11  C   UNL     1      12.984   9.960  19.196  0.00  0.00    +0.130 C 
ATOM     12  C   UNL     1      14.663   6.863  19.624  0.00  0.00    +0.130 C 
ATOM     13  C   UNL     1      12.385   8.952  18.232  0.00  0.00    +0.185 C 
ATOM     14  C   UNL     1      13.630   7.017  20.727  0.00  0.00    +0.185 C 
ENDROOT
BRANCH  11   4
ATOM      4  N   UNL     1      13.576  11.060  18.465  0.00  0.00    -0.306 N 
ATOM      6  N   UNL     1      12.527  12.666  19.816  0.00  0.00    -0.219 NA
ATOM      7  N   UNL     1      13.972  13.326  18.004  0.00  0.00    -0.223 NA
ATOM     15  C   UNL     1      13.352  12.390  18.771  0.00  0.00    +0.216 A 
ATOM     19  C   UNL     1      12.332  13.973  20.087  0.00  0.00    +0.052 A 
ATOM     20  C   UNL     1      12.913  15.000  19.371  0.00  0.00    +0.043 A 
ATOM     21  C   UNL     1      13.732  14.613  18.330  0.00  0.00    +0.116 A 
ATOM     32  H   UNL     1      14.233  10.865  17.718  0.00  0.00    +0.149 HD
BRANCH  19  18
ATOM     18  C   UNL     1      11.429  14.294  21.231  0.00  0.00    +0.005 C 
ATOM     22  C   UNL     1      10.980  13.001  21.978  0.00  0.00    +0.017 C 
ATOM     23  C   UNL     1      10.140  15.029  20.745  0.00  0.00    +0.017 C 
ATOM     24  C   UNL     1      12.045  15.219  22.332  0.00  0.00    +0.017 C 
ENDBRANCH  19  18
ENDBRANCH  11   4
BRANCH  12   5
ATOM      3  O   UNL     1      16.903   5.542  18.408  0.00  0.00    -0.270 OA
ATOM      5  N   UNL     1      15.995   6.750  20.167  0.00  0.00    -0.304 N 
ATOM     16  C   UNL     1      17.017   6.089  19.501  0.00  0.00    +0.244 C 
ATOM     33  H   UNL     1      16.132   7.077  21.118  0.00  0.00    +0.149 HD
BRANCH  16  17
ATOM     17  C   UNL     1      18.324   6.037  20.205  0.00  0.00    +0.037 A 
ATOM     25  C   UNL     1      19.247   5.084  19.827  0.00  0.00    +0.015 A 
ATOM     26  C   UNL     1      18.574   6.944  21.215  0.00  0.00    +0.015 A 
ATOM     27  C   UNL     1      20.476   5.036  20.487  0.00  0.00    +0.024 A 
ATOM     28  C   UNL     1      19.802   6.896  21.875  0.00  0.00    +0.024 A 
ATOM     29  C   UNL     1      20.752   5.943  21.511  0.00  0.00    +0.029 A 
BRANCH  29   8
ATOM      8  N   UNL     1      21.994   5.896  22.179  0.00  0.00    -0.336 N 
ATOM     30  C   UNL     1      22.876   4.758  22.011  0.00  0.00    +0.129 C 
ATOM     31  C   UNL     1      22.399   6.981  23.052  0.00  0.00    +0.129 C 
ENDBRANCH  29   8
ENDBRANCH  16  17
ENDBRANCH  12   5
TORSDOF 5
ENDMDL
MODEL 3
REMARK VINA RESULT:      -6.7      7.667     11.367
REMARK  Name = 11911754
REMARK  10 active torsions:
REMARK  status: ('A' for Active; 'I' for Inactive)
REMARK    1  A    between atoms: N_4  and  C_11
REMARK    2  A    between atoms: N_5  and  C_12
REMARK    3  A    between atoms: N_8  and  C_29
REMARK    4  A    between atoms: N_8  and  C_30
REMARK    5  A    between atoms: N_8  and  C_31
REMARK    6  A    between atoms: C_16  and  C_17
REMARK    7  A    between atoms: C_18  and  C_19
REMARK    8  A    between atoms: C_18  and  C_22
REMARK    9  A    between atoms: C_18  and  C_23
REMARK   10  A    between atoms: C_18  and  C_24
REMARK                            x       y       z     vdW  Elec       q    Type
REMARK                         _______ _______ _______ _____ _____    ______ ____
ROOT
ATOM      1  O   UNL     1      -5.054  -8.682  10.082  0.00  0.00    -0.370 OA
ATOM      2  O   UNL     1      -6.012 -11.649   9.959  0.00  0.00    -0.370 OA
ATOM      9  C   UNL     1      -4.746 -11.034  10.256  0.00  0.00    +0.171 C 
ATOM     10  C   UNL     1      -4.606  -9.830   9.345  0.00  0.00    +0.171 C 
ATOM     11  C   UNL     1      -4.763 -10.445  11.646  0.00  0.00    +0.130 C 
ATOM     12  C   UNL     1      -5.551 -10.123   8.201  0.00  0.00    +0.130 C 
ATOM     13  C   UNL     1      -5.383  -9.078  11.421  0.00  0.00    +0.185 C 
ATOM     14  C   UNL     1      -6.636 -10.942   8.877  0.00  0.00    +0.185 C 
ENDROOT
BRANCH  11   4
ATOM      4  N   UNL     1      -3.410 -10.305  12.141  0.00  0.00    -0.306 N 
ATOM      6  N   UNL     1      -4.064 -10.704  14.359  0.00  0.00    -0.219 NA
ATOM      7  N   UNL     1      -1.757 -10.280  13.806  0.00  0.00    -0.223 NA
ATOM     15  C   UNL     1      -3.067 -10.434  13.475  0.00  0.00    +0.216 A 
ATOM     19  C   UNL     1      -3.693 -10.823  15.650  0.00  0.00    +0.052 A 
ATOM     20  C   UNL     1      -2.393 -10.686  16.091  0.00  0.00    +0.043 A 
ATOM     21  C   UNL     1      -1.457 -10.411  15.115  0.00  0.00    +0.116 A 
ATOM     32  H   UNL     1      -2.653 -10.156  11.485  0.00  0.00    +0.149 HD
BRANCH  19  18
ATOM     18  C   UNL     1      -4.775 -11.119  16.635  0.00  0.00    +0.005 C 
ATOM     22  C   UNL     1      -5.601 -12.372  16.208  0.00  0.00    +0.017 C 
ATOM     23  C   UNL     1      -5.768  -9.922  16.762  0.00  0.00    +0.017 C 
ATOM     24  C   UNL     1      -4.292 -11.416  18.093  0.00  0.00    +0.017 C 
ENDBRANCH  19  18
ENDBRANCH  11   4
BRANCH  12   5
ATOM      3  O   UNL     1      -6.415 -10.401   5.477  0.00  0.00    -0.270 OA
ATOM      5  N   UNL     1      -4.895 -10.880   7.162  0.00  0.00    -0.304 N 
ATOM     16  C   UNL     1      -5.392 -10.955   5.869  0.00  0.00    +0.244 C 
ATOM     33  H   UNL     1      -4.108 -11.456   7.442  0.00  0.00    +0.149 HD
BRANCH  16  17
ATOM     17  C   UNL     1      -4.615 -11.797   4.922  0.00  0.00    +0.037 A 
ATOM     25  C   UNL     1      -5.198 -12.172   3.731  0.00  0.00    +0.015 A 
ATOM     26  C   UNL     1      -3.332 -12.176   5.266  0.00  0.00    +0.015 A 
ATOM     27  C   UNL     1      -4.469 -12.961   2.841  0.00  0.00    +0.024 A 
ATOM     28  C   UNL     1      -2.603 -12.965   4.376  0.00  0.00    +0.024 A 
ATOM     29  C   UNL     1      -3.170 -13.357   3.165  0.00  0.00    +0.029 A 
BRANCH  29   8
ATOM      8  N   UNL     1      -2.431 -14.154   2.266  0.00  0.00    -0.336 N 
ATOM     30  C   UNL     1      -0.982 -14.116   2.272  0.00  0.00    +0.129 C 
ATOM     31  C   UNL     1      -3.111 -15.011   1.315  0.00  0.00    +0.129 C 
ENDBRANCH  29   8
ENDBRANCH  16  17
ENDBRANCH  12   5
TORSDOF 5
ENDMDL
MODEL 4
REMARK VINA RESULT:      -6.6     28.511     34.794
REMARK  Name = 11911754
REMARK  10 active torsions:
REMARK  status: ('A' for Active; 'I' for Inactive)
REMARK    1  A    between atoms: N_4  and  C_11
REMARK    2  A    between atoms: N_5  and  C_12
REMARK    3  A    between atoms: N_8  and  C_29
REMARK    4  A    between atoms: N_8  and  C_30
REMARK    5  A    between atoms: N_8  and  C_31
REMARK    6  A    between atoms: C_16  and  C_17
REMARK    7  A    between atoms: C_18  and  C_19
REMARK    8  A    between atoms: C_18  and  C_22
REMARK    9  A    between atoms: C_18  and  C_23
REMARK   10  A    between atoms: C_18  and  C_24
REMARK                            x       y       z     vdW  Elec       q    Type
REMARK                         _______ _______ _______ _____ _____    ______ ____
ROOT
ATOM      1  O   UNL     1      22.535   7.896  22.273  0.00  0.00    -0.370 OA
ATOM      2  O   UNL     1      20.814   6.235  24.276  0.00  0.00    -0.370 OA
ATOM      9  C   UNL     1      21.320   5.969  22.957  0.00  0.00    +0.171 C 
ATOM     10  C   UNL     1      21.247   7.267  22.177  0.00  0.00    +0.171 C 
ATOM     11  C   UNL     1      22.796   5.655  23.015  0.00  0.00    +0.130 C 
ATOM     12  C   UNL     1      20.207   8.080  22.915  0.00  0.00    +0.130 C 
ATOM     13  C   UNL     1      23.430   7.034  22.989  0.00  0.00    +0.185 C 
ATOM     14  C   UNL     1      20.371   7.597  24.345  0.00  0.00    +0.185 C 
ENDROOT
BRANCH  11   4
ATOM      4  N   UNL     1      23.188   4.902  21.843  0.00  0.00    -0.306 N 
ATOM      6  N   UNL     1      23.651   2.976  23.102  0.00  0.00    -0.219 NA
ATOM      7  N   UNL     1      23.947   2.992  20.710  0.00  0.00    -0.223 NA
ATOM     15  C   UNL     1      23.607   3.584  21.887  0.00  0.00    +0.216 A 
ATOM     19  C   UNL     1      24.064   1.692  23.107  0.00  0.00    +0.052 A 
ATOM     20  C   UNL     1      24.430   0.999  21.970  0.00  0.00    +0.043 A 
ATOM     21  C   UNL     1      24.352   1.708  20.789  0.00  0.00    +0.116 A 
ATOM     32  H   UNL     1      23.110   5.329  20.928  0.00  0.00    +0.149 HD
BRANCH  19  18
ATOM     18  C   UNL     1      24.118   1.009  24.432  0.00  0.00    +0.005 C 
ATOM     22  C   UNL     1      24.641   1.970  25.544  0.00  0.00    +0.017 C 
ATOM     23  C   UNL     1      25.069  -0.228  24.392  0.00  0.00    +0.017 C 
ATOM     24  C   UNL     1      22.750   0.465  24.962  0.00  0.00    +0.017 C 
ENDBRANCH  19  18
ENDBRANCH  11   4
BRANCH  12   5
ATOM      3  O   UNL     1      18.696   9.691  21.080  0.00  0.00    -0.270 OA
ATOM      5  N   UNL     1      18.880   7.806  22.418  0.00  0.00    -0.304 N 
ATOM     16  C   UNL     1      18.228   8.649  21.530  0.00  0.00    +0.244 C 
ATOM     33  H   UNL     1      18.388   7.023  22.834  0.00  0.00    +0.149 HD
BRANCH  16  17
ATOM     17  C   UNL     1      16.856   8.240  21.134  0.00  0.00    +0.037 A 
ATOM     25  C   UNL     1      16.564   6.896  21.032  0.00  0.00    +0.015 A 
ATOM     26  C   UNL     1      15.915   9.219  20.883  0.00  0.00    +0.015 A 
ATOM     27  C   UNL     1      15.275   6.511  20.662  0.00  0.00    +0.024 A 
ATOM     28  C   UNL     1      14.626   8.834  20.513  0.00  0.00    +0.024 A 
ATOM     29  C   UNL     1      14.306   7.482  20.403  0.00  0.00    +0.029 A 
BRANCH  29   8
ATOM      8  N   UNL     1      13.002   7.094  20.030  0.00  0.00    -0.336 N 
ATOM     30  C   UNL     1      12.590   7.143  18.641  0.00  0.00    +0.129 C 
ATOM     31  C   UNL     1      12.053   6.655  21.034  0.00  0.00    +0.129 C 
ENDBRANCH  29   8
ENDBRANCH  16  17
ENDBRANCH  12   5
TORSDOF 5
ENDMDL
MODEL 5
REMARK VINA RESULT:      -6.6      2.497      9.837
REMARK  Name = 11911754
REMARK  10 active torsions:
REMARK  status: ('A' for Active; 'I' for Inactive)
REMARK    1  A    between atoms: N_4  and  C_11
REMARK    2  A    between atoms: N_5  and  C_12
REMARK    3  A    between atoms: N_8  and  C_29
REMARK    4  A    between atoms: N_8  and  C_30
REMARK    5  A    between atoms: N_8  and  C_31
REMARK    6  A    between atoms: C_16  and  C_17
REMARK    7  A    between atoms: C_18  and  C_19
REMARK    8  A    between atoms: C_18  and  C_22
REMARK    9  A    between atoms: C_18  and  C_23
REMARK   10  A    between atoms: C_18  and  C_24
REMARK                            x       y       z     vdW  Elec       q    Type
REMARK                         _______ _______ _______ _____ _____    ______ ____
ROOT
ATOM      1  O   UNL     1      -6.507 -10.839  19.646  0.00  0.00    -0.370 OA
ATOM      2  O   UNL     1      -7.775 -12.233  17.159  0.00  0.00    -0.370 OA
ATOM      9  C   UNL     1      -6.768 -11.218  17.312  0.00  0.00    +0.171 C 
ATOM     10  C   UNL     1      -7.184 -10.344  18.479  0.00  0.00    +0.171 C 
ATOM     11  C   UNL     1      -5.465 -11.836  17.759  0.00  0.00    +0.130 C 
ATOM     12  C   UNL     1      -8.674 -10.574  18.598  0.00  0.00    +0.130 C 
ATOM     13  C   UNL     1      -5.631 -11.910  19.266  0.00  0.00    +0.185 C 
ATOM     14  C   UNL     1      -8.821 -12.005  18.114  0.00  0.00    +0.185 C 
ENDROOT
BRANCH  11   4
ATOM      4  N   UNL     1      -4.361 -10.964  17.420  0.00  0.00    -0.306 N 
ATOM      6  N   UNL     1      -3.720 -12.302  15.602  0.00  0.00    -0.219 NA
ATOM      7  N   UNL     1      -2.507 -10.292  16.148  0.00  0.00    -0.223 NA
ATOM     15  C   UNL     1      -3.504 -11.193  16.358  0.00  0.00    +0.216 A 
ATOM     19  C   UNL     1      -2.866 -12.493  14.575  0.00  0.00    +0.052 A 
ATOM     20  C   UNL     1      -1.823 -11.640  14.276  0.00  0.00    +0.043 A 
ATOM     21  C   UNL     1      -1.690 -10.546  15.105  0.00  0.00    +0.116 A 
ATOM     32  H   UNL     1      -4.223 -10.108  17.945  0.00  0.00    +0.149 HD
BRANCH  19  18
ATOM     18  C   UNL     1      -3.088 -13.705  13.734  0.00  0.00    +0.005 C 
ATOM     22  C   UNL     1      -1.915 -14.723  13.887  0.00  0.00    +0.017 C 
ATOM     23  C   UNL     1      -3.194 -13.333  12.222  0.00  0.00    +0.017 C 
ATOM     24  C   UNL     1      -4.387 -14.516  14.056  0.00  0.00    +0.017 C 
ENDBRANCH  19  18
ENDBRANCH  11   4
BRANCH  12   5
ATOM      3  O   UNL     1     -11.316  -9.558  19.080  0.00  0.00    -0.270 OA
ATOM      5  N   UNL     1      -9.411  -9.659  17.760  0.00  0.00    -0.304 N 
ATOM     16  C   UNL     1     -10.690  -9.224  18.079  0.00  0.00    +0.244 C 
ATOM     33  H   UNL     1      -9.003  -9.431  16.860  0.00  0.00    +0.149 HD
BRANCH  16  17
ATOM     17  C   UNL     1     -11.325  -8.304  17.099  0.00  0.00    +0.037 A 
ATOM     25  C   UNL     1     -10.645  -7.169  16.712  0.00  0.00    +0.015 A 
ATOM     26  C   UNL     1     -12.577  -8.617  16.608  0.00  0.00    +0.015 A 
ATOM     27  C   UNL     1     -11.240  -6.306  15.792  0.00  0.00    +0.024 A 
ATOM     28  C   UNL     1     -13.173  -7.754  15.687  0.00  0.00    +0.024 A 
ATOM     29  C   UNL     1     -12.505  -6.600  15.279  0.00  0.00    +0.029 A 
BRANCH  29   8
ATOM      8  N   UNL     1     -13.108  -5.729  14.348  0.00  0.00    -0.336 N 
ATOM     30  C   UNL     1     -12.314  -4.741  13.645  0.00  0.00    +0.129 C 
ATOM     31  C   UNL     1     -14.533  -5.803  14.090  0.00  0.00    +0.129 C 
ENDBRANCH  29   8
ENDBRANCH  16  17
ENDBRANCH  12   5
TORSDOF 5
ENDMDL
MODEL 6
REMARK VINA RESULT:      -6.5     27.328     30.948
REMARK  Name = 11911754
REMARK  10 active torsions:
REMARK  status: ('A' for Active; 'I' for Inactive)
REMARK    1  A    between atoms: N_4  and  C_11
REMARK    2  A    between atoms: N_5  and  C_12
REMARK    3  A    between atoms: N_8  and  C_29
REMARK    4  A    between atoms: N_8  and  C_30
REMARK    5  A    between atoms: N_8  and  C_31
REMARK    6  A    between atoms: C_16  and  C_17
REMARK    7  A    between atoms: C_18  and  C_19
REMARK    8  A    between atoms: C_18  and  C_22
REMARK    9  A    between atoms: C_18  and  C_23
REMARK   10  A    between atoms: C_18  and  C_24
REMARK                            x       y       z     vdW  Elec       q    Type
REMARK                         _______ _______ _______ _____ _____    ______ ____
ROOT
ATOM      1  O   UNL     1      10.490   7.934  20.646  0.00  0.00    -0.370 OA
ATOM      2  O   UNL     1      13.455   8.265  21.558  0.00  0.00    -0.370 OA
ATOM      9  C   UNL     1      12.324   9.153  21.546  0.00  0.00    +0.171 C 
ATOM     10  C   UNL     1      11.532   8.856  20.287  0.00  0.00    +0.171 C 
ATOM     11  C   UNL     1      11.375   8.808  22.669  0.00  0.00    +0.130 C 
ATOM     12  C   UNL     1      12.534   8.187  19.373  0.00  0.00    +0.130 C 
ATOM     13  C   UNL     1      10.527   7.705  22.061  0.00  0.00    +0.185 C 
ATOM     14  C   UNL     1      13.452   7.483  20.356  0.00  0.00    +0.185 C 
ENDROOT
BRANCH  11   4
ATOM      4  N   UNL     1      10.551   9.952  22.991  0.00  0.00    -0.306 N 
ATOM      6  N   UNL     1      12.361  11.139  23.896  0.00  0.00    -0.219 NA
ATOM      7  N   UNL     1      10.154  12.104  23.839  0.00  0.00    -0.223 NA
ATOM     15  C   UNL     1      11.037  11.099  23.593  0.00  0.00    +0.216 A 
ATOM     19  C   UNL     1      12.801  12.272  24.482  0.00  0.00    +0.052 A 
ATOM     20  C   UNL     1      11.989  13.349  24.774  0.00  0.00    +0.043 A 
ATOM     21  C   UNL     1      10.661  13.207  24.428  0.00  0.00    +0.116 A 
ATOM     32  H   UNL     1       9.574   9.954  22.722  0.00  0.00    +0.149 HD
BRANCH  19  18
ATOM     18  C   UNL     1      14.252  12.333  24.822  0.00  0.00    +0.005 C 
ATOM     22  C   UNL     1      14.698  13.794  25.142  0.00  0.00    +0.017 C 
ATOM     23  C   UNL     1      15.132  11.821  23.639  0.00  0.00    +0.017 C 
ATOM     24  C   UNL     1      14.687  11.484  26.062  0.00  0.00    +0.017 C 
ENDBRANCH  19  18
ENDBRANCH  11   4
BRANCH  12   5
ATOM      3  O   UNL     1      13.365   7.910  16.638  0.00  0.00    -0.270 OA
ATOM      5  N   UNL     1      13.255   9.161  18.588  0.00  0.00    -0.304 N 
ATOM     16  C   UNL     1      13.614   8.934  17.267  0.00  0.00    +0.244 C 
ATOM     33  H   UNL     1      13.595   9.982  19.076  0.00  0.00    +0.149 HD
BRANCH  16  17
ATOM     17  C   UNL     1      14.378  10.023  16.605  0.00  0.00    +0.037 A 
ATOM     25  C   UNL     1      14.713  11.142  17.338  0.00  0.00    +0.015 A 
ATOM     26  C   UNL     1      14.728   9.880  15.277  0.00  0.00    +0.015 A 
ATOM     27  C   UNL     1      15.431  12.165  16.718  0.00  0.00    +0.024 A 
ATOM     28  C   UNL     1      15.446  10.903  14.657  0.00  0.00    +0.024 A 
ATOM     29  C   UNL     1      15.797  12.044  15.376  0.00  0.00    +0.029 A 
BRANCH  29   8
ATOM      8  N   UNL     1      16.524  13.077  14.748  0.00  0.00    -0.336 N 
ATOM     30  C   UNL     1      17.891  12.857  14.319  0.00  0.00    +0.129 C 
ATOM     31  C   UNL     1      15.917  14.376  14.534  0.00  0.00    +0.129 C 
ENDBRANCH  29   8
ENDBRANCH  16  17
ENDBRANCH  12   5
TORSDOF 5
ENDMDL
MODEL 7
REMARK VINA RESULT:      -6.3      6.164      8.815
REMARK  Name = 11911754
REMARK  10 active torsions:
REMARK  status: ('A' for Active; 'I' for Inactive)
REMARK    1  A    between atoms: N_4  and  C_11
REMARK    2  A    between atoms: N_5  and  C_12
REMARK    3  A    between atoms: N_8  and  C_29
REMARK    4  A    between atoms: N_8  and  C_30
REMARK    5  A    between atoms: N_8  and  C_31
REMARK    6  A    between atoms: C_16  and  C_17
REMARK    7  A    between atoms: C_18  and  C_19
REMARK    8  A    between atoms: C_18  and  C_22
REMARK    9  A    between atoms: C_18  and  C_23
REMARK   10  A    between atoms: C_18  and  C_24
REMARK                            x       y       z     vdW  Elec       q    Type
REMARK                         _______ _______ _______ _____ _____    ______ ____
ROOT
ATOM      1  O   UNL     1      -2.138 -10.291  13.474  0.00  0.00    -0.370 OA
ATOM      2  O   UNL     1      -3.716 -12.980  13.344  0.00  0.00    -0.370 OA
ATOM      9  C   UNL     1      -4.004 -11.646  12.890  0.00  0.00    +0.171 C 
ATOM     10  C   UNL     1      -3.444 -10.689  13.924  0.00  0.00    +0.171 C 
ATOM     11  C   UNL     1      -3.221 -11.337  11.637  0.00  0.00    +0.130 C 
ATOM     12  C   UNL     1      -3.335 -11.526  15.179  0.00  0.00    +0.130 C 
ATOM     13  C   UNL     1      -1.885 -10.870  12.186  0.00  0.00    +0.185 C 
ATOM     14  C   UNL     1      -3.070 -12.913  14.623  0.00  0.00    +0.185 C 
ENDROOT
BRANCH  11   4
ATOM      4  N   UNL     1      -3.862 -10.267  10.904  0.00  0.00    -0.306 N 
ATOM      6  N   UNL     1      -4.210 -11.620   9.018  0.00  0.00    -0.219 NA
ATOM      7  N   UNL     1      -4.931  -9.321   9.041  0.00  0.00    -0.223 NA
ATOM     15  C   UNL     1      -4.349 -10.407   9.616  0.00  0.00    +0.216 A 
ATOM     19  C   UNL     1      -4.696 -11.721   7.764  0.00  0.00    +0.052 A 
ATOM     20  C   UNL     1      -5.305 -10.681   7.091  0.00  0.00    +0.043 A 
ATOM     21  C   UNL     1      -5.395  -9.492   7.786  0.00  0.00    +0.116 A 
ATOM     32  H   UNL     1      -4.018  -9.375  11.359  0.00  0.00    +0.149 HD
BRANCH  19  18
ATOM     18  C   UNL     1      -4.552 -13.045   7.092  0.00  0.00    +0.005 C 
ATOM     22  C   UNL     1      -4.201 -14.166   8.119  0.00  0.00    +0.017 C 
ATOM     23  C   UNL     1      -3.416 -13.015   6.022  0.00  0.00    +0.017 C 
ATOM     24  C   UNL     1      -5.823 -13.556   6.336  0.00  0.00    +0.017 C 
ENDBRANCH  19  18
ENDBRANCH  11   4
BRANCH  12   5
ATOM      3  O   UNL     1      -3.582 -11.394  18.036  0.00  0.00    -0.270 OA
ATOM      5  N   UNL     1      -4.562 -11.491  15.937  0.00  0.00    -0.304 N 
ATOM     16  C   UNL     1      -4.580 -11.428  17.323  0.00  0.00    +0.244 C 
ATOM     33  H   UNL     1      -5.425 -11.632  15.421  0.00  0.00    +0.149 HD
BRANCH  16  17
ATOM     17  C   UNL     1      -5.925 -11.427  17.956  0.00  0.00    +0.037 A 
ATOM     25  C   UNL     1      -6.867 -10.521  17.517  0.00  0.00    +0.015 A 
ATOM     26  C   UNL     1      -6.187 -12.334  18.963  0.00  0.00    +0.015 A 
ATOM     27  C   UNL     1      -8.130 -10.521  18.110  0.00  0.00    +0.024 A 
ATOM     28  C   UNL     1      -7.450 -12.334  19.556  0.00  0.00    +0.024 A 
ATOM     29  C   UNL     1      -8.421 -11.428  19.130  0.00  0.00    +0.029 A 
BRANCH  29   8
ATOM      8  N   UNL     1      -9.698 -11.430  19.730  0.00  0.00    -0.336 N 
ATOM     30  C   UNL     1     -10.240 -12.647  20.299  0.00  0.00    +0.129 C 
ATOM     31  C   UNL     1     -10.490 -10.216  19.772  0.00  0.00    +0.129 C 
ENDBRANCH  29   8
ENDBRANCH  16  17
ENDBRANCH  12   5
TORSDOF 5
ENDMDL
MODEL 8
REMARK VINA RESULT:      -6.3      5.375      7.266
REMARK  Name = 11911754
REMARK  10 active torsions:
REMARK  status: ('A' for Active; 'I' for Inactive)
REMARK    1  A    between atoms: N_4  and  C_11
REMARK    2  A    between atoms: N_5  and  C_12
REMARK    3  A    between atoms: N_8  and  C_29
REMARK    4  A    between atoms: N_8  and  C_30
REMARK    5  A    between atoms: N_8  and  C_31
REMARK    6  A    between atoms: C_16  and  C_17
REMARK    7  A    between atoms: C_18  and  C_19
REMARK    8  A    between atoms: C_18  and  C_22
REMARK    9  A    between atoms: C_18  and  C_23
REMARK   10  A    between atoms: C_18  and  C_24
REMARK                            x       y       z     vdW  Elec       q    Type
REMARK                         _______ _______ _______ _____ _____    ______ ____
ROOT
ATOM      1  O   UNL     1      -3.565  -8.910  10.141  0.00  0.00    -0.370 OA
ATOM      2  O   UNL     1      -5.136 -11.604  10.246  0.00  0.00    -0.370 OA
ATOM      9  C   UNL     1      -5.531 -10.228  10.380  0.00  0.00    +0.171 C 
ATOM     10  C   UNL     1      -4.421  -9.512  11.125  0.00  0.00    +0.171 C 
ATOM     11  C   UNL     1      -5.561  -9.557   9.028  0.00  0.00    +0.130 C 
ATOM     12  C   UNL     1      -3.692 -10.621  11.850  0.00  0.00    +0.130 C 
ATOM     13  C   UNL     1      -4.117  -9.132   8.835  0.00  0.00    +0.185 C 
ATOM     14  C   UNL     1      -3.884 -11.802  10.916  0.00  0.00    +0.185 C 
ENDROOT
BRANCH  11   4
ATOM      4  N   UNL     1      -6.422  -8.395   9.071  0.00  0.00    -0.306 N 
ATOM      6  N   UNL     1      -7.256  -8.797   6.914  0.00  0.00    -0.219 NA
ATOM      7  N   UNL     1      -8.016  -6.908   8.202  0.00  0.00    -0.223 NA
ATOM     15  C   UNL     1      -7.256  -8.023   8.031  0.00  0.00    +0.216 A 
ATOM     19  C   UNL     1      -8.080  -8.405   5.921  0.00  0.00    +0.052 A 
ATOM     20  C   UNL     1      -8.893  -7.292   5.994  0.00  0.00    +0.043 A 
ATOM     21  C   UNL     1      -8.817  -6.573   7.169  0.00  0.00    +0.116 A 
ATOM     32  H   UNL     1      -6.469  -7.841   9.917  0.00  0.00    +0.149 HD
BRANCH  19  18
ATOM     18  C   UNL     1      -8.092  -9.244   4.688  0.00  0.00    +0.005 C 
ATOM     22  C   UNL     1      -6.990 -10.346   4.741  0.00  0.00    +0.017 C 
ATOM     23  C   UNL     1      -7.833  -8.380   3.414  0.00  0.00    +0.017 C 
ATOM     24  C   UNL     1      -9.430 -10.006   4.408  0.00  0.00    +0.017 C 
ENDBRANCH  19  18
ENDBRANCH  11   4
BRANCH  12   5
ATOM      3  O   UNL     1      -2.422 -10.298  14.405  0.00  0.00    -0.270 OA
ATOM      5  N   UNL     1      -4.280 -10.874  13.143  0.00  0.00    -0.304 N 
ATOM     16  C   UNL     1      -3.583 -10.688  14.328  0.00  0.00    +0.244 C 
ATOM     33  H   UNL     1      -5.197 -11.309  13.152  0.00  0.00    +0.149 HD
BRANCH  16  17
ATOM     17  C   UNL     1      -4.321 -11.020  15.575  0.00  0.00    +0.037 A 
ATOM     25  C   UNL     1      -3.763 -10.680  16.789  0.00  0.00    +0.015 A 
ATOM     26  C   UNL     1      -5.542 -11.656  15.477  0.00  0.00    +0.015 A 
ATOM     27  C   UNL     1      -4.456 -10.990  17.960  0.00  0.00    +0.024 A 
ATOM     28  C   UNL     1      -6.235 -11.966  16.648  0.00  0.00    +0.024 A 
ATOM     29  C   UNL     1      -5.692 -11.633  17.888  0.00  0.00    +0.029 A 
BRANCH  29   8
ATOM      8  N   UNL     1      -6.395 -11.946  19.071  0.00  0.00    -0.336 N 
ATOM     30  C   UNL     1      -7.575 -12.786  19.024  0.00  0.00    +0.129 C 
ATOM     31  C   UNL     1      -5.953 -11.419  20.347  0.00  0.00    +0.129 C 
ENDBRANCH  29   8
ENDBRANCH  16  17
ENDBRANCH  12   5
TORSDOF 5
ENDMDL
MODEL 9
REMARK VINA RESULT:      -6.2     28.245     32.045
REMARK  Name = 11911754
REMARK  10 active torsions:
REMARK  status: ('A' for Active; 'I' for Inactive)
REMARK    1  A    between atoms: N_4  and  C_11
REMARK    2  A    between atoms: N_5  and  C_12
REMARK    3  A    between atoms: N_8  and  C_29
REMARK    4  A    between atoms: N_8  and  C_30
REMARK    5  A    between atoms: N_8  and  C_31
REMARK    6  A    between atoms: C_16  and  C_17
REMARK    7  A    between atoms: C_18  and  C_19
REMARK    8  A    between atoms: C_18  and  C_22
REMARK    9  A    between atoms: C_18  and  C_23
REMARK   10  A    between atoms: C_18  and  C_24
REMARK                            x       y       z     vdW  Elec       q    Type
REMARK                         _______ _______ _______ _____ _____    ______ ____
ROOT
ATOM      1  O   UNL     1      10.766  12.801  24.294  0.00  0.00    -0.370 OA
ATOM      2  O   UNL     1      13.756  12.329  23.535  0.00  0.00    -0.370 OA
ATOM      9  C   UNL     1      12.667  11.442  23.845  0.00  0.00    +0.171 C 
ATOM     10  C   UNL     1      11.846  12.103  24.935  0.00  0.00    +0.171 C 
ATOM     11  C   UNL     1      11.719  11.347  22.674  0.00  0.00    +0.130 C 
ATOM     12  C   UNL     1      12.804  13.086  25.571  0.00  0.00    +0.130 C 
ATOM     13  C   UNL     1      10.812  12.547  22.882  0.00  0.00    +0.185 C 
ATOM     14  C   UNL     1      13.701  13.466  24.407  0.00  0.00    +0.185 C 
ENDROOT
BRANCH  11   4
ATOM      4  N   UNL     1      10.953  10.122  22.755  0.00  0.00    -0.306 N 
ATOM      6  N   UNL     1      12.483   8.949  21.417  0.00  0.00    -0.219 NA
ATOM      7  N   UNL     1      10.520   7.862  22.296  0.00  0.00    -0.223 NA
ATOM     15  C   UNL     1      11.330   8.943  22.138  0.00  0.00    +0.216 A 
ATOM     19  C   UNL     1      12.820   7.783  20.829  0.00  0.00    +0.052 A 
ATOM     20  C   UNL     1      12.069   6.629  20.928  0.00  0.00    +0.043 A 
ATOM     21  C   UNL     1      10.917   6.729  21.681  0.00  0.00    +0.116 A 
ATOM     32  H   UNL     1      10.121  10.092  23.332  0.00  0.00    +0.149 HD
BRANCH  19  18
ATOM     18  C   UNL     1      14.082   7.772  20.034  0.00  0.00    +0.005 C 
ATOM     22  C   UNL     1      15.010   6.593  20.461  0.00  0.00    +0.017 C 
ATOM     23  C   UNL     1      14.884   9.097  20.227  0.00  0.00    +0.017 C 
ATOM     24  C   UNL     1      13.899   7.618  18.488  0.00  0.00    +0.017 C 
ENDBRANCH  19  18
ENDBRANCH  11   4
BRANCH  12   5
ATOM      3  O   UNL     1      14.223  14.428  27.675  0.00  0.00    -0.270 OA
ATOM      5  N   UNL     1      13.559  12.466  26.633  0.00  0.00    -0.304 N 
ATOM     16  C   UNL     1      14.215  13.203  27.609  0.00  0.00    +0.244 C 
ATOM     33  H   UNL     1      13.691  11.462  26.576  0.00  0.00    +0.149 HD
BRANCH  16  17
ATOM     17  C   UNL     1      14.972  12.417  28.618  0.00  0.00    +0.037 A 
ATOM     25  C   UNL     1      14.805  12.712  29.954  0.00  0.00    +0.015 A 
ATOM     26  C   UNL     1      15.817  11.415  28.184  0.00  0.00    +0.015 A 
ATOM     27  C   UNL     1      15.514  11.973  30.902  0.00  0.00    +0.024 A 
ATOM     28  C   UNL     1      16.527  10.676  29.132  0.00  0.00    +0.024 A 
ATOM     29  C   UNL     1      16.376  10.955  30.489  0.00  0.00    +0.029 A 
BRANCH  29   8
ATOM      8  N   UNL     1      17.092  10.206  31.446  0.00  0.00    -0.336 N 
ATOM     30  C   UNL     1      17.417   8.816  31.198  0.00  0.00    +0.129 C 
ATOM     31  C   UNL     1      17.503  10.815  32.696  0.00  0.00    +0.129 C 
ENDBRANCH  29   8
ENDBRANCH  16  17
ENDBRANCH  12   5
TORSDOF 5
ENDMDL
MODEL 10
REMARK VINA RESULT:      -6.1     26.248     28.806
REMARK  Name = 11911754
REMARK  10 active torsions:
REMARK  status: ('A' for Active; 'I' for Inactive)
REMARK    1  A    between atoms: N_4  and  C_11
REMARK    2  A    between atoms: N_5  and  C_12
REMARK    3  A    between atoms: N_8  and  C_29
REMARK    4  A    between atoms: N_8  and  C_30
REMARK    5  A    between atoms: N_8  and  C_31
REMARK    6  A    between atoms: C_16  and  C_17
REMARK    7  A    between atoms: C_18  and  C_19
REMARK    8  A    between atoms: C_18  and  C_22
REMARK    9  A    between atoms: C_18  and  C_23
REMARK   10  A    between atoms: C_18  and  C_24
REMARK                            x       y       z     vdW  Elec       q    Type
REMARK                         _______ _______ _______ _____ _____    ______ ____
ROOT
ATOM      1  O   UNL     1      10.542   4.719   4.788  0.00  0.00    -0.370 OA
ATOM      2  O   UNL     1       9.846   7.423   3.396  0.00  0.00    -0.370 OA
ATOM      9  C   UNL     1      11.087   6.771   3.714  0.00  0.00    +0.171 C 
ATOM     10  C   UNL     1      10.903   6.084   5.054  0.00  0.00    +0.171 C 
ATOM     11  C   UNL     1      11.346   5.637   2.750  0.00  0.00    +0.130 C 
ATOM     12  C   UNL     1       9.745   6.821   5.688  0.00  0.00    +0.130 C 
ATOM     13  C   UNL     1      10.572   4.489   3.372  0.00  0.00    +0.185 C 
ATOM     14  C   UNL     1       8.925   7.240   4.481  0.00  0.00    +0.185 C 
ENDROOT
BRANCH  11   4
ATOM      4  N   UNL     1      12.759   5.329   2.717  0.00  0.00    -0.306 N 
ATOM      6  N   UNL     1      12.663   4.620   0.482  0.00  0.00    -0.219 NA
ATOM      7  N   UNL     1      14.740   4.584   1.704  0.00  0.00    -0.223 NA
ATOM     15  C   UNL     1      13.406   4.830   1.601  0.00  0.00    +0.216 A 
ATOM     19  C   UNL     1      13.326   4.133  -0.587  0.00  0.00    +0.052 A 
ATOM     20  C   UNL     1      14.677   3.851  -0.588  0.00  0.00    +0.043 A 
ATOM     21  C   UNL     1      15.340   4.097   0.597  0.00  0.00    +0.116 A 
ATOM     32  H   UNL     1      13.332   5.530   3.528  0.00  0.00    +0.149 HD
BRANCH  19  18
ATOM     18  C   UNL     1      12.526   3.897  -1.823  0.00  0.00    +0.005 C 
ATOM     22  C   UNL     1      13.295   4.371  -3.095  0.00  0.00    +0.017 C 
ATOM     23  C   UNL     1      11.171   4.671  -1.777  0.00  0.00    +0.017 C 
ATOM     24  C   UNL     1      12.143   2.405  -2.100  0.00  0.00    +0.017 C 
ENDBRANCH  19  18
ENDBRANCH  11   4
BRANCH  12   5
ATOM      3  O   UNL     1       8.559   7.900   8.071  0.00  0.00    -0.270 OA
ATOM      5  N   UNL     1      10.202   7.968   6.435  0.00  0.00    -0.304 N 
ATOM     16  C   UNL     1       9.559   8.416   7.580  0.00  0.00    +0.244 C 
ATOM     33  H   UNL     1      10.954   8.512   6.025  0.00  0.00    +0.149 HD
BRANCH  16  17
ATOM     17  C   UNL     1      10.138   9.626   8.218  0.00  0.00    +0.037 A 
ATOM     25  C   UNL     1      11.441   9.974   7.929  0.00  0.00    +0.015 A 
ATOM     26  C   UNL     1       9.352  10.365   9.081  0.00  0.00    +0.015 A 
ATOM     27  C   UNL     1      11.984  11.112   8.527  0.00  0.00    +0.024 A 
ATOM     28  C   UNL     1       9.895  11.503   9.679  0.00  0.00    +0.024 A 
ATOM     29  C   UNL     1      11.210  11.876   9.402  0.00  0.00    +0.029 A 
BRANCH  29   8
ATOM      8  N   UNL     1      11.758  13.027  10.007  0.00  0.00    -0.336 N 
ATOM     30  C   UNL     1      11.438  14.346   9.498  0.00  0.00    +0.129 C 
ATOM     31  C   UNL     1      12.658  12.904  11.136  0.00  0.00    +0.129 C 
ENDBRANCH  29   8
ENDBRANCH  16  17
ENDBRANCH  12   5
TORSDOF 5
ENDMDL
