MODEL 1
REMARK VINA RESULT:      -6.8      0.000      0.000
REMARK  Name = 45783568
REMARK  10 active torsions:
REMARK  status: ('A' for Active; 'I' for Inactive)
REMARK    1  A    between atoms: O_2  and  C_29
REMARK    2  A    between atoms: O_2  and  C_30
REMARK    3  A    between atoms: O_3  and  C_31
REMARK    4  A    between atoms: O_3  and  C_32
REMARK    5  A    between atoms: N_4  and  C_13
REMARK    6  A    between atoms: N_5  and  C_22
REMARK    7  A    between atoms: C_9  and  C_14
REMARK    8  A    between atoms: C_13  and  C_15
REMARK    9  A    between atoms: C_20  and  C_25
REMARK   10  A    between atoms: C_30  and  C_31
REMARK                            x       y       z     vdW  Elec       q    Type
REMARK                         _______ _______ _______ _____ _____    ______ ____
ROOT
ATOM      4  N   UNL     1      12.017  10.956  23.311  0.00  0.00    -0.287 NA
ATOM      9  C   UNL     1      13.048  11.968  23.007  0.00  0.00    +0.146 C 
ATOM     10  C   UNL     1      13.344  12.644  24.359  0.00  0.00    +0.030 C 
ATOM     11  C   UNL     1      11.276  11.456  24.469  0.00  0.00    +0.085 C 
ATOM     12  C   UNL     1      12.389  11.989  25.348  0.00  0.00    +0.017 C 
ENDROOT
BRANCH   9  14
ATOM      1  O   UNL     1      15.098  12.224  21.702  0.00  0.00    -0.336 OA
ATOM      6  N   UNL     1      14.695  10.124  22.369  0.00  0.00    -0.190 NA
ATOM      7  N   UNL     1      16.156  11.449  21.209  0.00  0.00    -0.056 NA
ATOM     14  C   UNL     1      14.284  11.367  22.372  0.00  0.00    +0.245 A 
ATOM     20  C   UNL     1      15.847  10.224  21.644  0.00  0.00    +0.204 A 
BRANCH  20  25
ATOM      8  N   UNL     1      18.874   8.101  21.242  0.00  0.00    -0.221 NA
ATOM     25  C   UNL     1      16.667   9.079  21.372  0.00  0.00    +0.041 A 
ATOM     26  C   UNL     1      16.100   7.869  20.986  0.00  0.00    +0.018 A 
ATOM     27  C   UNL     1      18.046   9.142  21.484  0.00  0.00    +0.126 A 
ATOM     28  C   UNL     1      16.919   6.774  20.728  0.00  0.00    +0.068 A 
ATOM     29  C   UNL     1      18.287   6.941  20.869  0.00  0.00    +0.215 A 
BRANCH  29   2
ATOM      2  O   UNL     1      19.116   5.879  20.620  0.00  0.00    -0.474 OA
BRANCH   2  30
ATOM     30  C   UNL     1      20.382   5.889  21.268  0.00  0.00    +0.258 C 
BRANCH  30  31
ATOM     31  C   UNL     1      21.348   5.027  20.479  0.00  0.00    +0.200 C 
BRANCH  31   3
ATOM      3  O   UNL     1      21.252   3.683  20.937  0.00  0.00    -0.380 OA
ATOM     32  C   UNL     1      21.994   3.486  22.133  0.00  0.00    +0.194 C 
ENDBRANCH  31   3
ENDBRANCH  30  31
ENDBRANCH   2  30
ENDBRANCH  29   2
ENDBRANCH  20  25
ENDBRANCH   9  14
BRANCH   4  13
ATOM     13  C   UNL     1      11.141  10.671  22.182  0.00  0.00    +0.122 C 
BRANCH  13  15
ATOM      5  N   UNL     1      11.378   7.093  21.355  0.00  0.00    -0.349 N 
ATOM     15  C   UNL     1      11.386   9.297  21.616  0.00  0.00    -0.008 A 
ATOM     16  C   UNL     1      12.102   8.987  20.425  0.00  0.00    +0.004 A 
ATOM     17  C   UNL     1      10.954   8.112  22.165  0.00  0.00    +0.091 A 
ATOM     18  C   UNL     1      12.082   7.598  20.285  0.00  0.00    +0.049 A 
ATOM     19  C   UNL     1      12.767   9.757  19.451  0.00  0.00    +0.010 A 
ATOM     21  C   UNL     1      12.695   6.938  19.215  0.00  0.00    +0.026 A 
ATOM     22  C   UNL     1      11.116   5.692  21.603  0.00  0.00    +0.149 C 
ATOM     23  C   UNL     1      13.385   9.111  18.375  0.00  0.00    +0.001 A 
ATOM     24  C   UNL     1      13.348   7.723  18.260  0.00  0.00    +0.002 A 
ENDBRANCH  13  15
ENDBRANCH   4  13
TORSDOF 8
ENDMDL
MODEL 2
REMARK VINA RESULT:      -6.3     26.830     30.586
REMARK  Name = 45783568
REMARK  10 active torsions:
REMARK  status: ('A' for Active; 'I' for Inactive)
REMARK    1  A    between atoms: O_2  and  C_29
REMARK    2  A    between atoms: O_2  and  C_30
REMARK    3  A    between atoms: O_3  and  C_31
REMARK    4  A    between atoms: O_3  and  C_32
REMARK    5  A    between atoms: N_4  and  C_13
REMARK    6  A    between atoms: N_5  and  C_22
REMARK    7  A    between atoms: C_9  and  C_14
REMARK    8  A    between atoms: C_13  and  C_15
REMARK    9  A    between atoms: C_20  and  C_25
REMARK   10  A    between atoms: C_30  and  C_31
REMARK                            x       y       z     vdW  Elec       q    Type
REMARK                         _______ _______ _______ _____ _____    ______ ____
ROOT
ATOM      4  N   UNL     1     -14.741   6.065  21.091  0.00  0.00    -0.287 NA
ATOM      9  C   UNL     1     -15.709   6.250  22.191  0.00  0.00    +0.146 C 
ATOM     10  C   UNL     1     -16.992   6.751  21.503  0.00  0.00    +0.030 C 
ATOM     11  C   UNL     1     -15.122   7.012  20.043  0.00  0.00    +0.085 C 
ATOM     12  C   UNL     1     -16.630   6.876  20.030  0.00  0.00    +0.017 C 
ENDROOT
BRANCH   9  14
ATOM      1  O   UNL     1     -16.140   3.846  22.275  0.00  0.00    -0.336 OA
ATOM      6  N   UNL     1     -15.956   4.813  24.287  0.00  0.00    -0.190 NA
ATOM      7  N   UNL     1     -16.318   2.824  23.216  0.00  0.00    -0.056 NA
ATOM     14  C   UNL     1     -15.931   4.983  22.989  0.00  0.00    +0.245 A 
ATOM     20  C   UNL     1     -16.196   3.472  24.377  0.00  0.00    +0.204 A 
BRANCH  20  25
ATOM      8  N   UNL     1     -16.074   2.902  28.050  0.00  0.00    -0.221 NA
ATOM     25  C   UNL     1     -16.307   2.812  25.646  0.00  0.00    +0.041 A 
ATOM     26  C   UNL     1     -16.733   1.490  25.729  0.00  0.00    +0.018 A 
ATOM     27  C   UNL     1     -15.992   3.467  26.825  0.00  0.00    +0.126 A 
ATOM     28  C   UNL     1     -16.831   0.874  26.973  0.00  0.00    +0.068 A 
ATOM     29  C   UNL     1     -16.492   1.617  28.093  0.00  0.00    +0.215 A 
BRANCH  29   2
ATOM      2  O   UNL     1     -16.578   1.033  29.329  0.00  0.00    -0.474 OA
BRANCH   2  30
ATOM     30  C   UNL     1     -15.427   0.335  29.789  0.00  0.00    +0.258 C 
BRANCH  30  31
ATOM     31  C   UNL     1     -14.865   1.054  31.001  0.00  0.00    +0.200 C 
BRANCH  31   3
ATOM      3  O   UNL     1     -13.567   1.545  30.688  0.00  0.00    -0.380 OA
ATOM     32  C   UNL     1     -13.510   2.962  30.780  0.00  0.00    +0.194 C 
ENDBRANCH  31   3
ENDBRANCH  30  31
ENDBRANCH   2  30
ENDBRANCH  29   2
ENDBRANCH  20  25
ENDBRANCH   9  14
BRANCH   4  13
ATOM     13  C   UNL     1     -13.356   6.239  21.510  0.00  0.00    +0.122 C 
BRANCH  13  15
ATOM      5  N   UNL     1     -12.381   9.768  21.131  0.00  0.00    -0.349 N 
ATOM     15  C   UNL     1     -12.819   7.592  21.121  0.00  0.00    -0.008 A 
ATOM     16  C   UNL     1     -12.004   7.887  19.993  0.00  0.00    +0.004 A 
ATOM     17  C   UNL     1     -13.035   8.768  21.801  0.00  0.00    +0.091 A 
ATOM     18  C   UNL     1     -11.744   9.258  20.023  0.00  0.00    +0.049 A 
ATOM     19  C   UNL     1     -11.461   7.116  18.946  0.00  0.00    +0.010 A 
ATOM     21  C   UNL     1     -10.964   9.900  19.054  0.00  0.00    +0.026 A 
ATOM     22  C   UNL     1     -12.373  11.155  21.543  0.00  0.00    +0.149 C 
ATOM     23  C   UNL     1     -10.679   7.744  17.970  0.00  0.00    +0.001 A 
ATOM     24  C   UNL     1     -10.435   9.115  18.026  0.00  0.00    +0.002 A 
ENDBRANCH  13  15
ENDBRANCH   4  13
TORSDOF 8
ENDMDL
MODEL 3
REMARK VINA RESULT:      -6.3     27.761     30.164
REMARK  Name = 45783568
REMARK  10 active torsions:
REMARK  status: ('A' for Active; 'I' for Inactive)
REMARK    1  A    between atoms: O_2  and  C_29
REMARK    2  A    between atoms: O_2  and  C_30
REMARK    3  A    between atoms: O_3  and  C_31
REMARK    4  A    between atoms: O_3  and  C_32
REMARK    5  A    between atoms: N_4  and  C_13
REMARK    6  A    between atoms: N_5  and  C_22
REMARK    7  A    between atoms: C_9  and  C_14
REMARK    8  A    between atoms: C_13  and  C_15
REMARK    9  A    between atoms: C_20  and  C_25
REMARK   10  A    between atoms: C_30  and  C_31
REMARK                            x       y       z     vdW  Elec       q    Type
REMARK                         _______ _______ _______ _____ _____    ______ ____
ROOT
ATOM      4  N   UNL     1      -3.494 -11.780  14.107  0.00  0.00    -0.287 NA
ATOM      9  C   UNL     1      -2.549 -11.742  12.972  0.00  0.00    +0.146 C 
ATOM     10  C   UNL     1      -2.373 -13.215  12.560  0.00  0.00    +0.030 C 
ATOM     11  C   UNL     1      -3.314 -13.082  14.750  0.00  0.00    +0.085 C 
ATOM     12  C   UNL     1      -3.206 -14.009  13.557  0.00  0.00    +0.017 C 
ENDROOT
BRANCH   9  14
ATOM      1  O   UNL     1      -2.169  -9.943  11.363  0.00  0.00    -0.336 OA
ATOM      6  N   UNL     1      -4.200 -10.878  11.226  0.00  0.00    -0.190 NA
ATOM      7  N   UNL     1      -2.839  -9.271  10.332  0.00  0.00    -0.056 NA
ATOM     14  C   UNL     1      -3.041 -10.872  11.835  0.00  0.00    +0.245 A 
ATOM     20  C   UNL     1      -4.029  -9.879  10.313  0.00  0.00    +0.204 A 
BRANCH  20  25
ATOM      8  N   UNL     1      -7.106  -8.290   8.958  0.00  0.00    -0.221 NA
ATOM     25  C   UNL     1      -5.067  -9.514   9.393  0.00  0.00    +0.041 A 
ATOM     26  C   UNL     1      -5.071  -9.998   8.089  0.00  0.00    +0.018 A 
ATOM     27  C   UNL     1      -6.099  -8.671   9.775  0.00  0.00    +0.126 A 
ATOM     28  C   UNL     1      -6.091  -9.628   7.219  0.00  0.00    +0.068 A 
ATOM     29  C   UNL     1      -7.077  -8.780   7.698  0.00  0.00    +0.215 A 
BRANCH  29   2
ATOM      2  O   UNL     1      -8.093  -8.401   6.861  0.00  0.00    -0.474 OA
BRANCH   2  30
ATOM     30  C   UNL     1      -8.412  -7.015   6.827  0.00  0.00    +0.258 C 
BRANCH  30  31
ATOM     31  C   UNL     1      -9.898  -6.856   6.569  0.00  0.00    +0.200 C 
BRANCH  31   3
ATOM      3  O   UNL     1     -10.448  -5.985   7.550  0.00  0.00    -0.380 OA
ATOM     32  C   UNL     1      -9.438  -5.434   8.384  0.00  0.00    +0.194 C 
ENDBRANCH  31   3
ENDBRANCH  30  31
ENDBRANCH   2  30
ENDBRANCH  29   2
ENDBRANCH  20  25
ENDBRANCH   9  14
BRANCH   4  13
ATOM     13  C   UNL     1      -3.313 -10.677  15.042  0.00  0.00    +0.122 C 
BRANCH  13  15
ATOM      5  N   UNL     1      -6.551  -9.826  16.569  0.00  0.00    -0.349 N 
ATOM     15  C   UNL     1      -4.533 -10.463  15.897  0.00  0.00    -0.008 A 
ATOM     16  C   UNL     1      -4.712 -10.893  17.242  0.00  0.00    +0.004 A 
ATOM     17  C   UNL     1      -5.681  -9.809  15.512  0.00  0.00    +0.091 A 
ATOM     18  C   UNL     1      -5.985 -10.481  17.639  0.00  0.00    +0.049 A 
ATOM     19  C   UNL     1      -3.909 -11.597  18.162  0.00  0.00    +0.010 A 
ATOM     21  C   UNL     1      -6.498 -10.739  18.915  0.00  0.00    +0.026 A 
ATOM     22  C   UNL     1      -7.871  -9.235  16.548  0.00  0.00    +0.149 C 
ATOM     23  C   UNL     1      -4.409 -11.862  19.442  0.00  0.00    +0.001 A 
ATOM     24  C   UNL     1      -5.684 -11.439  19.811  0.00  0.00    +0.002 A 
ENDBRANCH  13  15
ENDBRANCH   4  13
TORSDOF 8
ENDMDL
MODEL 4
REMARK VINA RESULT:      -6.2     27.787     30.078
REMARK  Name = 45783568
REMARK  10 active torsions:
REMARK  status: ('A' for Active; 'I' for Inactive)
REMARK    1  A    between atoms: O_2  and  C_29
REMARK    2  A    between atoms: O_2  and  C_30
REMARK    3  A    between atoms: O_3  and  C_31
REMARK    4  A    between atoms: O_3  and  C_32
REMARK    5  A    between atoms: N_4  and  C_13
REMARK    6  A    between atoms: N_5  and  C_22
REMARK    7  A    between atoms: C_9  and  C_14
REMARK    8  A    between atoms: C_13  and  C_15
REMARK    9  A    between atoms: C_20  and  C_25
REMARK   10  A    between atoms: C_30  and  C_31
REMARK                            x       y       z     vdW  Elec       q    Type
REMARK                         _______ _______ _______ _____ _____    ______ ____
ROOT
ATOM      4  N   UNL     1      -3.373 -11.800  14.355  0.00  0.00    -0.287 NA
ATOM      9  C   UNL     1      -2.576 -11.579  13.130  0.00  0.00    +0.146 C 
ATOM     10  C   UNL     1      -2.274 -12.993  12.601  0.00  0.00    +0.030 C 
ATOM     11  C   UNL     1      -2.966 -13.102  14.882  0.00  0.00    +0.085 C 
ATOM     12  C   UNL     1      -2.885 -13.940  13.623  0.00  0.00    +0.017 C 
ENDROOT
BRANCH   9  14
ATOM      1  O   UNL     1      -2.515 -10.046  11.228  0.00  0.00    -0.336 OA
ATOM      6  N   UNL     1      -4.580 -10.513  11.961  0.00  0.00    -0.190 NA
ATOM      7  N   UNL     1      -3.393  -9.328  10.405  0.00  0.00    -0.056 NA
ATOM     14  C   UNL     1      -3.296 -10.717  12.116  0.00  0.00    +0.245 A 
ATOM     20  C   UNL     1      -4.590  -9.654  10.900  0.00  0.00    +0.204 A 
BRANCH  20  25
ATOM      8  N   UNL     1      -6.929  -7.700   8.770  0.00  0.00    -0.221 NA
ATOM     25  C   UNL     1      -5.815  -9.143  10.357  0.00  0.00    +0.041 A 
ATOM     26  C   UNL     1      -7.046  -9.557  10.856  0.00  0.00    +0.018 A 
ATOM     27  C   UNL     1      -5.811  -8.221   9.324  0.00  0.00    +0.126 A 
ATOM     28  C   UNL     1      -8.219  -9.043  10.311  0.00  0.00    +0.068 A 
ATOM     29  C   UNL     1      -8.107  -8.125   9.279  0.00  0.00    +0.215 A 
BRANCH  29   2
ATOM      2  O   UNL     1      -9.247  -7.604   8.727  0.00  0.00    -0.474 OA
BRANCH   2  30
ATOM     30  C   UNL     1      -9.186  -6.252   8.289  0.00  0.00    +0.258 C 
BRANCH  30  31
ATOM     31  C   UNL     1     -10.422  -5.519   8.773  0.00  0.00    +0.200 C 
BRANCH  31   3
ATOM      3  O   UNL     1     -10.083  -4.163   9.037  0.00  0.00    -0.380 OA
ATOM     32  C   UNL     1     -11.242  -3.368   9.246  0.00  0.00    +0.194 C 
ENDBRANCH  31   3
ENDBRANCH  30  31
ENDBRANCH   2  30
ENDBRANCH  29   2
ENDBRANCH  20  25
ENDBRANCH   9  14
BRANCH   4  13
ATOM     13  C   UNL     1      -3.218 -10.737  15.340  0.00  0.00    +0.122 C 
BRANCH  13  15
ATOM      5  N   UNL     1      -6.545  -9.823  16.620  0.00  0.00    -0.349 N 
ATOM     15  C   UNL     1      -4.493 -10.492  16.104  0.00  0.00    -0.008 A 
ATOM     16  C   UNL     1      -4.768 -10.892  17.442  0.00  0.00    +0.004 A 
ATOM     17  C   UNL     1      -5.604  -9.837  15.625  0.00  0.00    +0.091 A 
ATOM     18  C   UNL     1      -6.062 -10.460  17.740  0.00  0.00    +0.049 A 
ATOM     19  C   UNL     1      -4.038 -11.581  18.429  0.00  0.00    +0.010 A 
ATOM     21  C   UNL     1      -6.664 -10.684  18.983  0.00  0.00    +0.026 A 
ATOM     22  C   UNL     1      -7.855  -9.221  16.495  0.00  0.00    +0.149 C 
ATOM     23  C   UNL     1      -4.628 -11.814  19.677  0.00  0.00    +0.001 A 
ATOM     24  C   UNL     1      -5.921 -11.371  19.948  0.00  0.00    +0.002 A 
ENDBRANCH  13  15
ENDBRANCH   4  13
TORSDOF 8
ENDMDL
MODEL 5
REMARK VINA RESULT:      -6.0     27.572     30.459
REMARK  Name = 45783568
REMARK  10 active torsions:
REMARK  status: ('A' for Active; 'I' for Inactive)
REMARK    1  A    between atoms: O_2  and  C_29
REMARK    2  A    between atoms: O_2  and  C_30
REMARK    3  A    between atoms: O_3  and  C_31
REMARK    4  A    between atoms: O_3  and  C_32
REMARK    5  A    between atoms: N_4  and  C_13
REMARK    6  A    between atoms: N_5  and  C_22
REMARK    7  A    between atoms: C_9  and  C_14
REMARK    8  A    between atoms: C_13  and  C_15
REMARK    9  A    between atoms: C_20  and  C_25
REMARK   10  A    between atoms: C_30  and  C_31
REMARK                            x       y       z     vdW  Elec       q    Type
REMARK                         _______ _______ _______ _____ _____    ______ ____
ROOT
ATOM      4  N   UNL     1      -4.416 -11.088  15.034  0.00  0.00    -0.287 NA
ATOM      9  C   UNL     1      -4.921 -11.444  16.376  0.00  0.00    +0.146 C 
ATOM     10  C   UNL     1      -3.751 -11.138  17.328  0.00  0.00    +0.030 C 
ATOM     11  C   UNL     1      -2.965 -11.268  15.078  0.00  0.00    +0.085 C 
ATOM     12  C   UNL     1      -2.616 -10.674  16.427  0.00  0.00    +0.017 C 
ENDROOT
BRANCH   9  14
ATOM      1  O   UNL     1      -6.535 -10.702  18.054  0.00  0.00    -0.336 OA
ATOM      6  N   UNL     1      -7.005 -10.025  15.971  0.00  0.00    -0.190 NA
ATOM      7  N   UNL     1      -7.717  -9.955  18.144  0.00  0.00    -0.056 NA
ATOM     14  C   UNL     1      -6.184 -10.693  16.741  0.00  0.00    +0.245 A 
ATOM     20  C   UNL     1      -7.929  -9.591  16.876  0.00  0.00    +0.204 A 
BRANCH  20  25
ATOM      8  N   UNL     1     -10.537  -8.040  14.727  0.00  0.00    -0.221 NA
ATOM     25  C   UNL     1      -9.053  -8.793  16.480  0.00  0.00    +0.041 A 
ATOM     26  C   UNL     1      -9.740  -8.015  17.406  0.00  0.00    +0.018 A 
ATOM     27  C   UNL     1      -9.487  -8.770  15.165  0.00  0.00    +0.126 A 
ATOM     28  C   UNL     1     -10.826  -7.250  16.994  0.00  0.00    +0.068 A 
ATOM     29  C   UNL     1     -11.181  -7.296  15.655  0.00  0.00    +0.215 A 
BRANCH  29   2
ATOM      2  O   UNL     1     -12.247  -6.551  15.224  0.00  0.00    -0.474 OA
BRANCH   2  30
ATOM     30  C   UNL     1     -12.457  -6.489  13.818  0.00  0.00    +0.258 C 
BRANCH  30  31
ATOM     31  C   UNL     1     -12.786  -5.061  13.429  0.00  0.00    +0.200 C 
BRANCH  31   3
ATOM      3  O   UNL     1     -12.161  -4.762  12.187  0.00  0.00    -0.380 OA
ATOM     32  C   UNL     1     -12.181  -3.368  11.915  0.00  0.00    +0.194 C 
ENDBRANCH  31   3
ENDBRANCH  30  31
ENDBRANCH   2  30
ENDBRANCH  29   2
ENDBRANCH  20  25
ENDBRANCH   9  14
BRANCH   4  13
ATOM     13  C   UNL     1      -5.033 -11.861  13.964  0.00  0.00    +0.122 C 
BRANCH  13  15
ATOM      5  N   UNL     1      -6.741  -9.838  11.408  0.00  0.00    -0.349 N 
ATOM     15  C   UNL     1      -5.468 -10.985  12.819  0.00  0.00    -0.008 A 
ATOM     16  C   UNL     1      -4.620 -10.361  11.860  0.00  0.00    +0.004 A 
ATOM     17  C   UNL     1      -6.766 -10.645  12.514  0.00  0.00    +0.091 A 
ATOM     18  C   UNL     1      -5.445  -9.648  10.988  0.00  0.00    +0.049 A 
ATOM     19  C   UNL     1      -3.228 -10.335  11.652  0.00  0.00    +0.010 A 
ATOM     21  C   UNL     1      -4.943  -8.907   9.912  0.00  0.00    +0.026 A 
ATOM     22  C   UNL     1      -7.919  -9.275  10.784  0.00  0.00    +0.149 C 
ATOM     23  C   UNL     1      -2.711  -9.598  10.580  0.00  0.00    +0.001 A 
ATOM     24  C   UNL     1      -3.558  -8.895   9.725  0.00  0.00    +0.002 A 
ENDBRANCH  13  15
ENDBRANCH   4  13
TORSDOF 8
ENDMDL
MODEL 6
REMARK VINA RESULT:      -6.0     27.842     30.172
REMARK  Name = 45783568
REMARK  10 active torsions:
REMARK  status: ('A' for Active; 'I' for Inactive)
REMARK    1  A    between atoms: O_2  and  C_29
REMARK    2  A    between atoms: O_2  and  C_30
REMARK    3  A    between atoms: O_3  and  C_31
REMARK    4  A    between atoms: O_3  and  C_32
REMARK    5  A    between atoms: N_4  and  C_13
REMARK    6  A    between atoms: N_5  and  C_22
REMARK    7  A    between atoms: C_9  and  C_14
REMARK    8  A    between atoms: C_13  and  C_15
REMARK    9  A    between atoms: C_20  and  C_25
REMARK   10  A    between atoms: C_30  and  C_31
REMARK                            x       y       z     vdW  Elec       q    Type
REMARK                         _______ _______ _______ _____ _____    ______ ____
ROOT
ATOM      4  N   UNL     1      -6.134  -9.640   8.584  0.00  0.00    -0.287 NA
ATOM      9  C   UNL     1      -6.559  -8.557   9.494  0.00  0.00    +0.146 C 
ATOM     10  C   UNL     1      -7.831  -7.977   8.847  0.00  0.00    +0.030 C 
ATOM     11  C   UNL     1      -6.613  -9.270   7.252  0.00  0.00    +0.085 C 
ATOM     12  C   UNL     1      -8.006  -8.755   7.550  0.00  0.00    +0.017 C 
ENDROOT
BRANCH   9  14
ATOM      1  O   UNL     1      -8.052  -9.463  11.203  0.00  0.00    -0.336 OA
ATOM      6  N   UNL     1      -5.954  -9.122  11.910  0.00  0.00    -0.190 NA
ATOM      7  N   UNL     1      -8.024  -9.859  12.547  0.00  0.00    -0.056 NA
ATOM     14  C   UNL     1      -6.793  -9.044  10.908  0.00  0.00    +0.245 A 
ATOM     20  C   UNL     1      -6.754  -9.628  12.892  0.00  0.00    +0.204 A 
BRANCH  20  25
ATOM      8  N   UNL     1      -6.621  -9.900  16.599  0.00  0.00    -0.221 NA
ATOM     25  C   UNL     1      -6.252  -9.892  14.210  0.00  0.00    +0.041 A 
ATOM     26  C   UNL     1      -4.961 -10.374  14.400  0.00  0.00    +0.018 A 
ATOM     27  C   UNL     1      -7.034  -9.673  15.332  0.00  0.00    +0.126 A 
ATOM     28  C   UNL     1      -4.500 -10.621  15.689  0.00  0.00    +0.068 A 
ATOM     29  C   UNL     1      -5.361 -10.369  16.745  0.00  0.00    +0.215 A 
BRANCH  29   2
ATOM      2  O   UNL     1      -4.931 -10.603  18.025  0.00  0.00    -0.474 OA
BRANCH   2  30
ATOM     30  C   UNL     1      -5.919 -10.575  19.048  0.00  0.00    +0.258 C 
BRANCH  30  31
ATOM     31  C   UNL     1      -6.303 -11.998  19.403  0.00  0.00    +0.200 C 
BRANCH  31   3
ATOM      3  O   UNL     1      -7.545 -11.984  20.096  0.00  0.00    -0.380 OA
ATOM     32  C   UNL     1      -8.523 -11.225  19.399  0.00  0.00    +0.194 C 
ENDBRANCH  31   3
ENDBRANCH  30  31
ENDBRANCH   2  30
ENDBRANCH  29   2
ENDBRANCH  20  25
ENDBRANCH   9  14
BRANCH   4  13
ATOM     13  C   UNL     1      -4.696  -9.876   8.604  0.00  0.00    +0.122 C 
BRANCH  13  15
ATOM      5  N   UNL     1      -4.250 -13.139  10.247  0.00  0.00    -0.349 N 
ATOM     15  C   UNL     1      -4.337 -11.068   9.450  0.00  0.00    -0.008 A 
ATOM     16  C   UNL     1      -3.451 -11.080  10.565  0.00  0.00    +0.004 A 
ATOM     17  C   UNL     1      -4.812 -12.348   9.280  0.00  0.00    +0.091 A 
ATOM     18  C   UNL     1      -3.415 -12.391  11.045  0.00  0.00    +0.049 A 
ATOM     19  C   UNL     1      -2.676 -10.098  11.211  0.00  0.00    +0.010 A 
ATOM     21  C   UNL     1      -2.637 -12.769  12.145  0.00  0.00    +0.026 A 
ATOM     22  C   UNL     1      -4.508 -14.555  10.393  0.00  0.00    +0.149 C 
ATOM     23  C   UNL     1      -1.893 -10.463  12.313  0.00  0.00    +0.001 A 
ATOM     24  C   UNL     1      -1.875 -11.779  12.771  0.00  0.00    +0.002 A 
ENDBRANCH  13  15
ENDBRANCH   4  13
TORSDOF 8
ENDMDL
MODEL 7
REMARK VINA RESULT:      -6.0     26.346     30.300
REMARK  Name = 45783568
REMARK  10 active torsions:
REMARK  status: ('A' for Active; 'I' for Inactive)
REMARK    1  A    between atoms: O_2  and  C_29
REMARK    2  A    between atoms: O_2  and  C_30
REMARK    3  A    between atoms: O_3  and  C_31
REMARK    4  A    between atoms: O_3  and  C_32
REMARK    5  A    between atoms: N_4  and  C_13
REMARK    6  A    between atoms: N_5  and  C_22
REMARK    7  A    between atoms: C_9  and  C_14
REMARK    8  A    between atoms: C_13  and  C_15
REMARK    9  A    between atoms: C_20  and  C_25
REMARK   10  A    between atoms: C_30  and  C_31
REMARK                            x       y       z     vdW  Elec       q    Type
REMARK                         _______ _______ _______ _____ _____    ______ ____
ROOT
ATOM      4  N   UNL     1      -3.217 -10.741  14.497  0.00  0.00    -0.287 NA
ATOM      9  C   UNL     1      -3.044 -11.305  15.851  0.00  0.00    +0.146 C 
ATOM     10  C   UNL     1      -1.737 -10.680  16.372  0.00  0.00    +0.030 C 
ATOM     11  C   UNL     1      -1.874 -10.441  14.001  0.00  0.00    +0.085 C 
ATOM     12  C   UNL     1      -1.217  -9.830  15.221  0.00  0.00    +0.017 C 
ENDROOT
BRANCH   9  14
ATOM      1  O   UNL     1      -4.016 -11.164  18.089  0.00  0.00    -0.336 OA
ATOM      6  N   UNL     1      -5.444 -10.662  16.438  0.00  0.00    -0.190 NA
ATOM      7  N   UNL     1      -5.234 -10.857  18.708  0.00  0.00    -0.056 NA
ATOM     14  C   UNL     1      -4.227 -11.024  16.754  0.00  0.00    +0.245 A 
ATOM     20  C   UNL     1      -6.025 -10.572  17.670  0.00  0.00    +0.204 A 
BRANCH  20  25
ATOM      8  N   UNL     1      -9.533 -10.556  18.905  0.00  0.00    -0.221 NA
ATOM     25  C   UNL     1      -7.399 -10.193  17.828  0.00  0.00    +0.041 A 
ATOM     26  C   UNL     1      -7.939  -9.140  17.097  0.00  0.00    +0.018 A 
ATOM     27  C   UNL     1      -8.231 -10.863  18.710  0.00  0.00    +0.126 A 
ATOM     28  C   UNL     1      -9.275  -8.794  17.269  0.00  0.00    +0.068 A 
ATOM     29  C   UNL     1     -10.023  -9.527  18.177  0.00  0.00    +0.215 A 
BRANCH  29   2
ATOM      2  O   UNL     1     -11.342  -9.206  18.364  0.00  0.00    -0.474 OA
BRANCH   2  30
ATOM     30  C   UNL     1     -12.180 -10.228  18.890  0.00  0.00    +0.258 C 
BRANCH  30  31
ATOM     31  C   UNL     1     -12.746  -9.769  20.220  0.00  0.00    +0.200 C 
BRANCH  31   3
ATOM      3  O   UNL     1     -13.896 -10.546  20.529  0.00  0.00    -0.380 OA
ATOM     32  C   UNL     1     -13.641 -11.456  21.590  0.00  0.00    +0.194 C 
ENDBRANCH  31   3
ENDBRANCH  30  31
ENDBRANCH   2  30
ENDBRANCH  29   2
ENDBRANCH  20  25
ENDBRANCH   9  14
BRANCH   4  13
ATOM     13  C   UNL     1      -3.950 -11.622  13.597  0.00  0.00    +0.122 C 
BRANCH  13  15
ATOM      5  N   UNL     1      -6.837  -9.987  12.004  0.00  0.00    -0.349 N 
ATOM     15  C   UNL     1      -4.939 -10.862  12.753  0.00  0.00    -0.008 A 
ATOM     16  C   UNL     1      -4.654 -10.126  11.569  0.00  0.00    +0.004 A 
ATOM     17  C   UNL     1      -6.290 -10.759  12.995  0.00  0.00    +0.091 A 
ATOM     18  C   UNL     1      -5.861  -9.588  11.120  0.00  0.00    +0.049 A 
ATOM     19  C   UNL     1      -3.480  -9.865  10.835  0.00  0.00    +0.010 A 
ATOM     21  C   UNL     1      -5.954  -8.798   9.969  0.00  0.00    +0.026 A 
ATOM     22  C   UNL     1      -8.241  -9.652  11.915  0.00  0.00    +0.149 C 
ATOM     23  C   UNL     1      -3.557  -9.077   9.681  0.00  0.00    +0.001 A 
ATOM     24  C   UNL     1      -4.776  -8.552   9.257  0.00  0.00    +0.002 A 
ENDBRANCH  13  15
ENDBRANCH   4  13
TORSDOF 8
ENDMDL
MODEL 8
REMARK VINA RESULT:      -6.0      2.464      4.853
REMARK  Name = 45783568
REMARK  10 active torsions:
REMARK  status: ('A' for Active; 'I' for Inactive)
REMARK    1  A    between atoms: O_2  and  C_29
REMARK    2  A    between atoms: O_2  and  C_30
REMARK    3  A    between atoms: O_3  and  C_31
REMARK    4  A    between atoms: O_3  and  C_32
REMARK    5  A    between atoms: N_4  and  C_13
REMARK    6  A    between atoms: N_5  and  C_22
REMARK    7  A    between atoms: C_9  and  C_14
REMARK    8  A    between atoms: C_13  and  C_15
REMARK    9  A    between atoms: C_20  and  C_25
REMARK   10  A    between atoms: C_30  and  C_31
REMARK                            x       y       z     vdW  Elec       q    Type
REMARK                         _______ _______ _______ _____ _____    ______ ____
ROOT
ATOM      4  N   UNL     1      13.980   9.089  19.111  0.00  0.00    -0.287 NA
ATOM      9  C   UNL     1      13.976   7.761  19.756  0.00  0.00    +0.146 C 
ATOM     10  C   UNL     1      12.861   6.980  19.037  0.00  0.00    +0.030 C 
ATOM     11  C   UNL     1      12.617   9.319  18.632  0.00  0.00    +0.085 C 
ATOM     12  C   UNL     1      12.256   7.968  18.050  0.00  0.00    +0.017 C 
ENDROOT
BRANCH   9  14
ATOM      1  O   UNL     1      15.517   6.255  18.603  0.00  0.00    -0.336 OA
ATOM      6  N   UNL     1      16.341   7.137  20.490  0.00  0.00    -0.190 NA
ATOM      7  N   UNL     1      16.811   5.737  18.743  0.00  0.00    -0.056 NA
ATOM     14  C   UNL     1      15.320   7.070  19.673  0.00  0.00    +0.245 A 
ATOM     20  C   UNL     1      17.230   6.302  19.878  0.00  0.00    +0.204 A 
BRANCH  20  25
ATOM      8  N   UNL     1      20.236   6.635  22.042  0.00  0.00    -0.221 NA
ATOM     25  C   UNL     1      18.533   6.057  20.427  0.00  0.00    +0.041 A 
ATOM     26  C   UNL     1      19.347   5.052  19.917  0.00  0.00    +0.018 A 
ATOM     27  C   UNL     1      19.020   6.814  21.480  0.00  0.00    +0.126 A 
ATOM     28  C   UNL     1      20.605   4.837  20.469  0.00  0.00    +0.068 A 
ATOM     29  C   UNL     1      21.000   5.649  21.520  0.00  0.00    +0.215 A 
BRANCH  29   2
ATOM      2  O   UNL     1      22.235   5.457  22.080  0.00  0.00    -0.474 OA
BRANCH   2  30
ATOM     30  C   UNL     1      22.991   4.351  21.602  0.00  0.00    +0.258 C 
BRANCH  30  31
ATOM     31  C   UNL     1      24.456   4.736  21.552  0.00  0.00    +0.200 C 
BRANCH  31   3
ATOM      3  O   UNL     1      24.884   4.761  20.196  0.00  0.00    -0.380 OA
ATOM     32  C   UNL     1      24.932   3.454  19.641  0.00  0.00    +0.194 C 
ENDBRANCH  31   3
ENDBRANCH  30  31
ENDBRANCH   2  30
ENDBRANCH  29   2
ENDBRANCH  20  25
ENDBRANCH   9  14
BRANCH   4  13
ATOM     13  C   UNL     1      14.438  10.155  19.992  0.00  0.00    +0.122 C 
BRANCH  13  15
ATOM      5  N   UNL     1      11.743  10.913  22.381  0.00  0.00    -0.349 N 
ATOM     15  C   UNL     1      13.316  10.713  20.827  0.00  0.00    -0.008 A 
ATOM     16  C   UNL     1      12.686  11.979  20.663  0.00  0.00    +0.004 A 
ATOM     17  C   UNL     1      12.714  10.081  21.891  0.00  0.00    +0.091 A 
ATOM     18  C   UNL     1      11.704  12.079  21.650  0.00  0.00    +0.049 A 
ATOM     19  C   UNL     1      12.859  13.051  19.767  0.00  0.00    +0.010 A 
ATOM     21  C   UNL     1      10.883  13.204  21.786  0.00  0.00    +0.026 A 
ATOM     22  C   UNL     1      10.890  10.597  23.506  0.00  0.00    +0.149 C 
ATOM     23  C   UNL     1      12.045  14.183  19.890  0.00  0.00    +0.001 A 
ATOM     24  C   UNL     1      11.073  14.256  20.886  0.00  0.00    +0.002 A 
ENDBRANCH  13  15
ENDBRANCH   4  13
TORSDOF 8
ENDMDL
MODEL 9
REMARK VINA RESULT:      -6.0     26.874     30.732
REMARK  Name = 45783568
REMARK  10 active torsions:
REMARK  status: ('A' for Active; 'I' for Inactive)
REMARK    1  A    between atoms: O_2  and  C_29
REMARK    2  A    between atoms: O_2  and  C_30
REMARK    3  A    between atoms: O_3  and  C_31
REMARK    4  A    between atoms: O_3  and  C_32
REMARK    5  A    between atoms: N_4  and  C_13
REMARK    6  A    between atoms: N_5  and  C_22
REMARK    7  A    between atoms: C_9  and  C_14
REMARK    8  A    between atoms: C_13  and  C_15
REMARK    9  A    between atoms: C_20  and  C_25
REMARK   10  A    between atoms: C_30  and  C_31
REMARK                            x       y       z     vdW  Elec       q    Type
REMARK                         _______ _______ _______ _____ _____    ______ ____
ROOT
ATOM      4  N   UNL     1     -14.654   6.035  21.022  0.00  0.00    -0.287 NA
ATOM      9  C   UNL     1     -15.603   6.291  22.125  0.00  0.00    +0.146 C 
ATOM     10  C   UNL     1     -16.862   6.849  21.437  0.00  0.00    +0.030 C 
ATOM     11  C   UNL     1     -14.992   6.983  19.960  0.00  0.00    +0.085 C 
ATOM     12  C   UNL     1     -16.505   6.928  19.959  0.00  0.00    +0.017 C 
ENDROOT
BRANCH   9  14
ATOM      1  O   UNL     1     -16.120   3.906  22.255  0.00  0.00    -0.336 OA
ATOM      6  N   UNL     1     -15.943   4.913  24.248  0.00  0.00    -0.190 NA
ATOM      7  N   UNL     1     -16.355   2.913  23.215  0.00  0.00    -0.056 NA
ATOM     14  C   UNL     1     -15.886   5.052  22.947  0.00  0.00    +0.245 A 
ATOM     20  C   UNL     1     -16.233   3.584  24.363  0.00  0.00    +0.204 A 
BRANCH  20  25
ATOM      8  N   UNL     1     -16.497   3.171  28.050  0.00  0.00    -0.221 NA
ATOM     25  C   UNL     1     -16.394   2.958  25.644  0.00  0.00    +0.041 A 
ATOM     26  C   UNL     1     -16.594   1.586  25.749  0.00  0.00    +0.018 A 
ATOM     27  C   UNL     1     -16.353   3.699  26.814  0.00  0.00    +0.126 A 
ATOM     28  C   UNL     1     -16.746   1.005  27.004  0.00  0.00    +0.068 A 
ATOM     29  C   UNL     1     -16.689   1.834  28.113  0.00  0.00    +0.215 A 
BRANCH  29   2
ATOM      2  O   UNL     1     -16.835   1.286  29.361  0.00  0.00    -0.474 OA
BRANCH   2  30
ATOM     30  C   UNL     1     -15.781   0.448  29.819  0.00  0.00    +0.258 C 
BRANCH  30  31
ATOM     31  C   UNL     1     -14.642   1.314  30.319  0.00  0.00    +0.200 C 
BRANCH  31   3
ATOM      3  O   UNL     1     -13.444   0.547  30.328  0.00  0.00    -0.380 OA
ATOM     32  C   UNL     1     -13.580  -0.641  29.561  0.00  0.00    +0.194 C 
ENDBRANCH  31   3
ENDBRANCH  30  31
ENDBRANCH   2  30
ENDBRANCH  29   2
ENDBRANCH  20  25
ENDBRANCH   9  14
BRANCH   4  13
ATOM     13  C   UNL     1     -13.259   6.142  21.429  0.00  0.00    +0.122 C 
BRANCH  13  15
ATOM      5  N   UNL     1     -11.374   8.700  19.572  0.00  0.00    -0.349 N 
ATOM     15  C   UNL     1     -12.601   7.371  20.858  0.00  0.00    -0.008 A 
ATOM     16  C   UNL     1     -12.737   8.704  21.337  0.00  0.00    +0.004 A 
ATOM     17  C   UNL     1     -11.757   7.400  19.772  0.00  0.00    +0.091 A 
ATOM     18  C   UNL     1     -11.957   9.517  20.513  0.00  0.00    +0.049 A 
ATOM     19  C   UNL     1     -13.451   9.297  22.396  0.00  0.00    +0.010 A 
ATOM     21  C   UNL     1     -11.856  10.901  20.696  0.00  0.00    +0.026 A 
ATOM     22  C   UNL     1     -10.483   9.133  18.517  0.00  0.00    +0.149 C 
ATOM     23  C   UNL     1     -13.359  10.681  22.591  0.00  0.00    +0.001 A 
ATOM     24  C   UNL     1     -12.573  11.468  21.753  0.00  0.00    +0.002 A 
ENDBRANCH  13  15
ENDBRANCH   4  13
TORSDOF 8
ENDMDL
MODEL 10
REMARK VINA RESULT:      -5.9     27.766     30.360
REMARK  Name = 45783568
REMARK  10 active torsions:
REMARK  status: ('A' for Active; 'I' for Inactive)
REMARK    1  A    between atoms: O_2  and  C_29
REMARK    2  A    between atoms: O_2  and  C_30
REMARK    3  A    between atoms: O_3  and  C_31
REMARK    4  A    between atoms: O_3  and  C_32
REMARK    5  A    between atoms: N_4  and  C_13
REMARK    6  A    between atoms: N_5  and  C_22
REMARK    7  A    between atoms: C_9  and  C_14
REMARK    8  A    between atoms: C_13  and  C_15
REMARK    9  A    between atoms: C_20  and  C_25
REMARK   10  A    between atoms: C_30  and  C_31
REMARK                            x       y       z     vdW  Elec       q    Type
REMARK                         _______ _______ _______ _____ _____    ______ ____
ROOT
ATOM      4  N   UNL     1      -3.435 -11.839  14.071  0.00  0.00    -0.287 NA
ATOM      9  C   UNL     1      -2.466 -11.823  12.957  0.00  0.00    +0.146 C 
ATOM     10  C   UNL     1      -2.274 -13.305  12.584  0.00  0.00    +0.030 C 
ATOM     11  C   UNL     1      -3.264 -13.124  14.748  0.00  0.00    +0.085 C 
ATOM     12  C   UNL     1      -3.126 -14.078  13.580  0.00  0.00    +0.017 C 
ENDROOT
BRANCH   9  14
ATOM      1  O   UNL     1      -2.144  -9.935  11.440  0.00  0.00    -0.336 OA
ATOM      6  N   UNL     1      -4.009 -11.113  11.051  0.00  0.00    -0.190 NA
ATOM      7  N   UNL     1      -2.776  -9.317  10.352  0.00  0.00    -0.056 NA
ATOM     14  C   UNL     1      -2.936 -10.983  11.789  0.00  0.00    +0.245 A 
ATOM     20  C   UNL     1      -3.867 -10.068  10.184  0.00  0.00    +0.204 A 
BRANCH  20  25
ATOM      8  N   UNL     1      -6.772  -8.564   8.415  0.00  0.00    -0.221 NA
ATOM     25  C   UNL     1      -4.835  -9.805   9.159  0.00  0.00    +0.041 A 
ATOM     26  C   UNL     1      -4.804 -10.494   7.951  0.00  0.00    +0.018 A 
ATOM     27  C   UNL     1      -5.831  -8.859   9.339  0.00  0.00    +0.126 A 
ATOM     28  C   UNL     1      -5.755 -10.219   6.975  0.00  0.00    +0.068 A 
ATOM     29  C   UNL     1      -6.710  -9.254   7.254  0.00  0.00    +0.215 A 
BRANCH  29   2
ATOM      2  O   UNL     1      -7.659  -8.965   6.309  0.00  0.00    -0.474 OA
BRANCH   2  30
ATOM     30  C   UNL     1      -7.200  -8.368   5.102  0.00  0.00    +0.258 C 
BRANCH  30  31
ATOM     31  C   UNL     1      -7.934  -8.991   3.931  0.00  0.00    +0.200 C 
BRANCH  31   3
ATOM      3  O   UNL     1      -7.996 -10.400   4.118  0.00  0.00    -0.380 OA
ATOM     32  C   UNL     1      -7.678 -11.099   2.922  0.00  0.00    +0.194 C 
ENDBRANCH  31   3
ENDBRANCH  30  31
ENDBRANCH   2  30
ENDBRANCH  29   2
ENDBRANCH  20  25
ENDBRANCH   9  14
BRANCH   4  13
ATOM     13  C   UNL     1      -3.280 -10.713  14.984  0.00  0.00    +0.122 C 
BRANCH  13  15
ATOM      5  N   UNL     1      -6.549  -9.871  16.449  0.00  0.00    -0.349 N 
ATOM     15  C   UNL     1      -4.514 -10.495  15.819  0.00  0.00    -0.008 A 
ATOM     16  C   UNL     1      -4.703 -10.894  17.172  0.00  0.00    +0.004 A 
ATOM     17  C   UNL     1      -5.666  -9.868  15.402  0.00  0.00    +0.091 A 
ATOM     18  C   UNL     1      -5.987 -10.490  17.542  0.00  0.00    +0.049 A 
ATOM     19  C   UNL     1      -3.901 -11.561  18.118  0.00  0.00    +0.010 A 
ATOM     21  C   UNL     1      -6.512 -10.723  18.818  0.00  0.00    +0.026 A 
ATOM     22  C   UNL     1      -7.877  -9.300  16.397  0.00  0.00    +0.149 C 
ATOM     23  C   UNL     1      -4.413 -11.801  19.399  0.00  0.00    +0.001 A 
ATOM     24  C   UNL     1      -5.699 -11.387  19.741  0.00  0.00    +0.002 A 
ENDBRANCH  13  15
ENDBRANCH   4  13
TORSDOF 8
ENDMDL
