MODEL 1
REMARK VINA RESULT:      -7.0      0.000      0.000
REMARK  Name = 45361055
REMARK  7 active torsions:
REMARK  status: ('A' for Active; 'I' for Inactive)
REMARK    1  A    between atoms: N_4  and  C_19
REMARK    2  A    between atoms: N_5  and  C_18
REMARK    3  A    between atoms: N_8  and  C_24
REMARK    4  A    between atoms: C_14  and  C_17
REMARK    5  A    between atoms: C_17  and  C_20
REMARK    6  A    between atoms: C_18  and  C_21
REMARK    7  A    between atoms: C_20  and  C_22
REMARK                            x       y       z     vdW  Elec       q    Type
REMARK                         _______ _______ _______ _____ _____    ______ ____
ROOT
ATOM      2  O   UNL     1      15.544  10.727  19.263  0.00  0.00    -0.274 OA
ATOM      4  N   UNL     1      16.483   6.972  19.300  0.00  0.00    -0.296 NA
ATOM      5  N   UNL     1      13.573   9.043  18.506  0.00  0.00    -0.284 NA
ATOM      6  N   UNL     1      16.354   9.361  20.911  0.00  0.00    -0.312 N 
ATOM     10  C   UNL     1      15.031   7.209  19.139  0.00  0.00    +0.084 C 
ATOM     11  C   UNL     1      14.449   8.579  19.598  0.00  0.00    +0.161 C 
ATOM     12  C   UNL     1      14.541   7.125  17.681  0.00  0.00    +0.036 C 
ATOM     13  C   UNL     1      13.226   7.874  17.708  0.00  0.00    +0.087 C 
ATOM     14  C   UNL     1      16.954   6.967  20.712  0.00  0.00    +0.074 C 
ATOM     15  C   UNL     1      15.489   9.662  19.876  0.00  0.00    +0.232 C 
ATOM     16  C   UNL     1      16.367   8.084  21.596  0.00  0.00    +0.123 C 
ATOM     19  C   UNL     1      16.888   5.729  18.622  0.00  0.00    +0.105 C 
ATOM     30  H   UNL     1      17.027  10.068  21.191  0.00  0.00    +0.149 HD
ENDROOT
BRANCH  14  17
ATOM     17  C   UNL     1      18.492   7.089  20.769  0.00  0.00    +0.029 C 
BRANCH  17  20
ATOM     20  C   UNL     1      19.003   7.116  22.200  0.00  0.00    +0.098 C 
BRANCH  20  22
ATOM      3  O   UNL     1      20.727   6.107  23.550  0.00  0.00    -0.275 OA
ATOM      8  N   UNL     1      20.697   5.721  21.233  0.00  0.00    -0.285 N 
ATOM     22  C   UNL     1      20.247   6.268  22.432  0.00  0.00    +0.217 C 
ATOM     31  H   UNL     1      20.173   5.943  20.390  0.00  0.00    +0.155 HD
BRANCH   8  24
ATOM     24  C   UNL     1      21.818   4.880  21.035  0.00  0.00    +0.033 A 
ATOM     25  C   UNL     1      22.996   5.401  20.503  0.00  0.00    +0.023 A 
ATOM     26  C   UNL     1      21.745   3.529  21.376  0.00  0.00    +0.023 A 
ATOM     27  C   UNL     1      24.101   4.572  20.308  0.00  0.00    +0.002 A 
ATOM     28  C   UNL     1      22.848   2.700  21.181  0.00  0.00    +0.002 A 
ATOM     29  C   UNL     1      24.027   3.221  20.647  0.00  0.00    +0.000 A 
ENDBRANCH   8  24
ENDBRANCH  20  22
ENDBRANCH  17  20
ENDBRANCH  14  17
BRANCH   5  18
ATOM     18  C   UNL     1      12.392   9.756  18.977  0.00  0.00    +0.143 C 
BRANCH  18  21
ATOM      1  S   UNL     1      10.943   8.414  22.427  0.00  0.00    +0.028 S 
ATOM      7  N   UNL     1      11.113   7.879  19.985  0.00  0.00    -0.145 NA
ATOM      9  N   UNL     1      10.621   7.414  21.123  0.00  0.00    -0.110 NA
ATOM     21  C   UNL     1      11.771   9.085  20.172  0.00  0.00    +0.086 A 
ATOM     23  C   UNL     1      11.791   9.558  21.469  0.00  0.00    +0.093 A 
ENDBRANCH  18  21
ENDBRANCH   5  18
TORSDOF 6
ENDMDL
MODEL 2
REMARK VINA RESULT:      -7.0      3.480      9.375
REMARK  Name = 45361055
REMARK  7 active torsions:
REMARK  status: ('A' for Active; 'I' for Inactive)
REMARK    1  A    between atoms: N_4  and  C_19
REMARK    2  A    between atoms: N_5  and  C_18
REMARK    3  A    between atoms: N_8  and  C_24
REMARK    4  A    between atoms: C_14  and  C_17
REMARK    5  A    between atoms: C_17  and  C_20
REMARK    6  A    between atoms: C_18  and  C_21
REMARK    7  A    between atoms: C_20  and  C_22
REMARK                            x       y       z     vdW  Elec       q    Type
REMARK                         _______ _______ _______ _____ _____    ______ ____
ROOT
ATOM      2  O   UNL     1      20.197   6.296  24.117  0.00  0.00    -0.274 OA
ATOM      4  N   UNL     1      18.269   7.060  20.848  0.00  0.00    -0.296 NA
ATOM      5  N   UNL     1      21.283   5.256  21.874  0.00  0.00    -0.284 NA
ATOM      6  N   UNL     1      19.551   8.260  23.136  0.00  0.00    -0.312 N 
ATOM     10  C   UNL     1      19.612   6.486  20.613  0.00  0.00    +0.084 C 
ATOM     11  C   UNL     1      20.672   6.594  21.748  0.00  0.00    +0.161 C 
ATOM     12  C   UNL     1      19.604   4.973  20.325  0.00  0.00    +0.036 C 
ATOM     13  C   UNL     1      21.026   4.550  20.624  0.00  0.00    +0.087 C 
ATOM     14  C   UNL     1      18.255   8.536  21.045  0.00  0.00    +0.074 C 
ATOM     15  C   UNL     1      20.120   7.002  23.112  0.00  0.00    +0.232 C 
ATOM     16  C   UNL     1      19.372   9.080  21.955  0.00  0.00    +0.123 C 
ATOM     19  C   UNL     1      17.341   6.679  19.770  0.00  0.00    +0.105 C 
ATOM     30  H   UNL     1      19.224   8.619  24.029  0.00  0.00    +0.149 HD
ENDROOT
BRANCH  14  17
ATOM     17  C   UNL     1      16.906   8.988  21.644  0.00  0.00    +0.029 C 
BRANCH  17  20
ATOM     20  C   UNL     1      16.181   9.962  20.730  0.00  0.00    +0.098 C 
BRANCH  20  22
ATOM      3  O   UNL     1      14.060  10.112  19.594  0.00  0.00    -0.275 OA
ATOM      8  N   UNL     1      14.256   8.760  21.504  0.00  0.00    -0.285 N 
ATOM     22  C   UNL     1      14.705   9.643  20.526  0.00  0.00    +0.217 C 
ATOM     31  H   UNL     1      14.928   8.452  22.203  0.00  0.00    +0.155 HD
BRANCH   8  24
ATOM     24  C   UNL     1      12.953   8.227  21.653  0.00  0.00    +0.033 A 
ATOM     25  C   UNL     1      11.938   9.011  22.199  0.00  0.00    +0.023 A 
ATOM     26  C   UNL     1      12.684   6.918  21.252  0.00  0.00    +0.023 A 
ATOM     27  C   UNL     1      10.654   8.487  22.346  0.00  0.00    +0.002 A 
ATOM     28  C   UNL     1      11.401   6.394  21.398  0.00  0.00    +0.002 A 
ATOM     29  C   UNL     1      10.385   7.178  21.946  0.00  0.00    +0.000 A 
ENDBRANCH   8  24
ENDBRANCH  20  22
ENDBRANCH  17  20
ENDBRANCH  14  17
BRANCH   5  18
ATOM     18  C   UNL     1      22.703   5.298  22.198  0.00  0.00    +0.143 C 
BRANCH  18  21
ATOM      1  S   UNL     1      24.302   2.014  23.770  0.00  0.00    +0.028 S 
ATOM      7  N   UNL     1      22.385   3.612  23.996  0.00  0.00    -0.145 NA
ATOM      9  N   UNL     1      22.901   2.519  24.536  0.00  0.00    -0.110 NA
ATOM     21  C   UNL     1      23.148   4.059  22.929  0.00  0.00    +0.086 A 
ATOM     23  C   UNL     1      24.265   3.303  22.638  0.00  0.00    +0.093 A 
ENDBRANCH  18  21
ENDBRANCH   5  18
TORSDOF 6
ENDMDL
MODEL 3
REMARK VINA RESULT:      -6.9      2.078      2.868
REMARK  Name = 45361055
REMARK  7 active torsions:
REMARK  status: ('A' for Active; 'I' for Inactive)
REMARK    1  A    between atoms: N_4  and  C_19
REMARK    2  A    between atoms: N_5  and  C_18
REMARK    3  A    between atoms: N_8  and  C_24
REMARK    4  A    between atoms: C_14  and  C_17
REMARK    5  A    between atoms: C_17  and  C_20
REMARK    6  A    between atoms: C_18  and  C_21
REMARK    7  A    between atoms: C_20  and  C_22
REMARK                            x       y       z     vdW  Elec       q    Type
REMARK                         _______ _______ _______ _____ _____    ______ ____
ROOT
ATOM      2  O   UNL     1      13.272   7.145  22.027  0.00  0.00    -0.274 OA
ATOM      4  N   UNL     1      16.765   8.497  21.050  0.00  0.00    -0.296 NA
ATOM      5  N   UNL     1      13.281   9.607  20.919  0.00  0.00    -0.284 NA
ATOM      6  N   UNL     1      14.921   6.311  20.677  0.00  0.00    -0.312 N 
ATOM     10  C   UNL     1      15.653   9.302  20.500  0.00  0.00    +0.084 C 
ATOM     11  C   UNL     1      14.250   8.638  20.372  0.00  0.00    +0.161 C 
ATOM     12  C   UNL     1      15.334  10.569  21.316  0.00  0.00    +0.036 C 
ATOM     13  C   UNL     1      13.923  10.916  20.892  0.00  0.00    +0.087 C 
ATOM     14  C   UNL     1      17.138   7.316  20.223  0.00  0.00    +0.074 C 
ATOM     15  C   UNL     1      14.089   7.319  21.123  0.00  0.00    +0.232 C 
ATOM     16  C   UNL     1      15.948   6.506  19.673  0.00  0.00    +0.123 C 
ATOM     19  C   UNL     1      17.947   9.339  21.299  0.00  0.00    +0.105 C 
ATOM     30  H   UNL     1      14.817   5.388  21.090  0.00  0.00    +0.149 HD
ENDROOT
BRANCH  14  17
ATOM     17  C   UNL     1      18.023   6.346  21.035  0.00  0.00    +0.029 C 
BRANCH  17  20
ATOM     20  C   UNL     1      19.166   5.792  20.201  0.00  0.00    +0.098 C 
BRANCH  20  22
ATOM      3  O   UNL     1      20.542   5.782  22.181  0.00  0.00    -0.275 OA
ATOM      8  N   UNL     1      21.327   4.753  20.221  0.00  0.00    -0.285 N 
ATOM     22  C   UNL     1      20.419   5.461  21.003  0.00  0.00    +0.217 C 
ATOM     31  H   UNL     1      21.063   4.554  19.259  0.00  0.00    +0.155 HD
BRANCH   8  24
ATOM     24  C   UNL     1      22.600   4.267  20.603  0.00  0.00    +0.033 A 
ATOM     25  C   UNL     1      23.738   5.038  20.372  0.00  0.00    +0.023 A 
ATOM     26  C   UNL     1      22.715   3.018  21.214  0.00  0.00    +0.023 A 
ATOM     27  C   UNL     1      24.994   4.559  20.750  0.00  0.00    +0.002 A 
ATOM     28  C   UNL     1      23.969   2.539  21.591  0.00  0.00    +0.002 A 
ATOM     29  C   UNL     1      25.109   3.309  21.359  0.00  0.00    +0.000 A 
ENDBRANCH   8  24
ENDBRANCH  20  22
ENDBRANCH  17  20
ENDBRANCH  14  17
BRANCH   5  18
ATOM     18  C   UNL     1      12.005   9.608  20.215  0.00  0.00    +0.143 C 
BRANCH  18  21
ATOM      1  S   UNL     1      12.662   8.924  16.354  0.00  0.00    +0.028 S 
ATOM      7  N   UNL     1      11.635   7.936  18.414  0.00  0.00    -0.145 NA
ATOM      9  N   UNL     1      11.844   7.687  17.131  0.00  0.00    -0.110 NA
ATOM     21  C   UNL     1      12.154   9.166  18.783  0.00  0.00    +0.086 A 
ATOM     23  C   UNL     1      12.770   9.880  17.775  0.00  0.00    +0.093 A 
ENDBRANCH  18  21
ENDBRANCH   5  18
TORSDOF 6
ENDMDL
MODEL 4
REMARK VINA RESULT:      -6.7     27.927     30.762
REMARK  Name = 45361055
REMARK  7 active torsions:
REMARK  status: ('A' for Active; 'I' for Inactive)
REMARK    1  A    between atoms: N_4  and  C_19
REMARK    2  A    between atoms: N_5  and  C_18
REMARK    3  A    between atoms: N_8  and  C_24
REMARK    4  A    between atoms: C_14  and  C_17
REMARK    5  A    between atoms: C_17  and  C_20
REMARK    6  A    between atoms: C_18  and  C_21
REMARK    7  A    between atoms: C_20  and  C_22
REMARK                            x       y       z     vdW  Elec       q    Type
REMARK                         _______ _______ _______ _____ _____    ______ ____
ROOT
ATOM      2  O   UNL     1     -10.565  -5.785  15.656  0.00  0.00    -0.274 OA
ATOM      4  N   UNL     1      -9.435  -9.469  15.280  0.00  0.00    -0.296 NA
ATOM      5  N   UNL     1     -12.233  -7.358  14.230  0.00  0.00    -0.284 NA
ATOM      6  N   UNL     1     -10.036  -7.396  17.193  0.00  0.00    -0.312 N 
ATOM     10  C   UNL     1     -10.833  -9.240  14.853  0.00  0.00    +0.084 C 
ATOM     11  C   UNL     1     -11.577  -7.984  15.393  0.00  0.00    +0.161 C 
ATOM     12  C   UNL     1     -11.004  -9.083  13.330  0.00  0.00    +0.036 C 
ATOM     13  C   UNL     1     -12.339  -8.380  13.196  0.00  0.00    +0.087 C 
ATOM     14  C   UNL     1      -9.268  -9.706  16.740  0.00  0.00    +0.074 C 
ATOM     15  C   UNL     1     -10.683  -6.941  16.061  0.00  0.00    +0.232 C 
ATOM     16  C   UNL     1     -10.090  -8.771  17.648  0.00  0.00    +0.123 C 
ATOM     19  C   UNL     1      -8.826 -10.567  14.511  0.00  0.00    +0.105 C 
ATOM     30  H   UNL     1      -9.478  -6.732  17.723  0.00  0.00    +0.149 HD
ENDROOT
BRANCH  14  17
ATOM     17  C   UNL     1      -7.785  -9.561  17.145  0.00  0.00    +0.029 C 
BRANCH  17  20
ATOM     20  C   UNL     1      -7.282 -10.784  17.892  0.00  0.00    +0.098 C 
BRANCH  20  22
ATOM      3  O   UNL     1      -5.487 -12.389  17.766  0.00  0.00    -0.275 OA
ATOM      8  N   UNL     1      -5.395 -10.446  16.451  0.00  0.00    -0.285 N 
ATOM     22  C   UNL     1      -5.948 -11.318  17.385  0.00  0.00    +0.217 C 
ATOM     31  H   UNL     1      -5.917  -9.600  16.234  0.00  0.00    +0.155 HD
BRANCH   8  24
ATOM     24  C   UNL     1      -4.171 -10.589  15.755  0.00  0.00    +0.033 A 
ATOM     25  C   UNL     1      -2.972 -10.664  16.462  0.00  0.00    +0.023 A 
ATOM     26  C   UNL     1      -4.165 -10.658  14.362  0.00  0.00    +0.023 A 
ATOM     27  C   UNL     1      -1.765 -10.805  15.776  0.00  0.00    +0.002 A 
ATOM     28  C   UNL     1      -2.959 -10.800  13.676  0.00  0.00    +0.002 A 
ATOM     29  C   UNL     1      -1.759 -10.874  14.383  0.00  0.00    +0.000 A 
ENDBRANCH   8  24
ENDBRANCH  20  22
ENDBRANCH  17  20
ENDBRANCH  14  17
BRANCH   5  18
ATOM     18  C   UNL     1     -13.527  -6.763  14.546  0.00  0.00    +0.143 C 
BRANCH  18  21
ATOM      1  S   UNL     1     -14.651  -3.504  12.566  0.00  0.00    +0.028 S 
ATOM      7  N   UNL     1     -12.655  -4.665  13.539  0.00  0.00    -0.145 NA
ATOM      9  N   UNL     1     -13.007  -3.572  12.880  0.00  0.00    -0.110 NA
ATOM     21  C   UNL     1     -13.749  -5.475  13.800  0.00  0.00    +0.086 A 
ATOM     23  C   UNL     1     -14.962  -5.005  13.337  0.00  0.00    +0.093 A 
ENDBRANCH  18  21
ENDBRANCH   5  18
TORSDOF 6
ENDMDL
MODEL 5
REMARK VINA RESULT:      -6.7     27.269     30.318
REMARK  Name = 45361055
REMARK  7 active torsions:
REMARK  status: ('A' for Active; 'I' for Inactive)
REMARK    1  A    between atoms: N_4  and  C_19
REMARK    2  A    between atoms: N_5  and  C_18
REMARK    3  A    between atoms: N_8  and  C_24
REMARK    4  A    between atoms: C_14  and  C_17
REMARK    5  A    between atoms: C_17  and  C_20
REMARK    6  A    between atoms: C_18  and  C_21
REMARK    7  A    between atoms: C_20  and  C_22
REMARK                            x       y       z     vdW  Elec       q    Type
REMARK                         _______ _______ _______ _____ _____    ______ ____
ROOT
ATOM      2  O   UNL     1      -5.972  -9.489  13.324  0.00  0.00    -0.274 OA
ATOM      4  N   UNL     1      -3.173 -10.827  15.639  0.00  0.00    -0.296 NA
ATOM      5  N   UNL     1      -3.866 -10.603  12.053  0.00  0.00    -0.284 NA
ATOM      6  N   UNL     1      -5.990 -10.997  15.045  0.00  0.00    -0.312 N 
ATOM     10  C   UNL     1      -3.026 -11.263  14.233  0.00  0.00    +0.084 C 
ATOM     11  C   UNL     1      -4.284 -11.242  13.316  0.00  0.00    +0.161 C 
ATOM     12  C   UNL     1      -2.023 -10.424  13.419  0.00  0.00    +0.036 C 
ATOM     13  C   UNL     1      -2.413 -10.702  11.983  0.00  0.00    +0.087 C 
ATOM     14  C   UNL     1      -4.076 -11.682  16.458  0.00  0.00    +0.074 C 
ATOM     15  C   UNL     1      -5.478 -10.473  13.874  0.00  0.00    +0.232 C 
ATOM     16  C   UNL     1      -5.383 -12.103  15.759  0.00  0.00    +0.123 C 
ATOM     19  C   UNL     1      -1.857 -10.705  16.289  0.00  0.00    +0.105 C 
ATOM     30  H   UNL     1      -6.827 -10.571  15.433  0.00  0.00    +0.149 HD
ENDROOT
BRANCH  14  17
ATOM     17  C   UNL     1      -4.461 -10.961  17.768  0.00  0.00    +0.029 C 
BRANCH  17  20
ATOM     20  C   UNL     1      -4.588 -11.932  18.930  0.00  0.00    +0.098 C 
BRANCH  20  22
ATOM      3  O   UNL     1      -5.821 -11.135  20.842  0.00  0.00    -0.275 OA
ATOM      8  N   UNL     1      -6.949 -12.294  19.139  0.00  0.00    -0.285 N 
ATOM     22  C   UNL     1      -5.842 -11.734  19.772  0.00  0.00    +0.217 C 
ATOM     31  H   UNL     1      -6.797 -12.746  18.240  0.00  0.00    +0.155 HD
BRANCH   8  24
ATOM     24  C   UNL     1      -8.287 -12.315  19.600  0.00  0.00    +0.033 A 
ATOM     25  C   UNL     1      -8.820 -13.484  20.140  0.00  0.00    +0.023 A 
ATOM     26  C   UNL     1      -9.073 -11.165  19.514  0.00  0.00    +0.023 A 
ATOM     27  C   UNL     1     -10.139 -13.505  20.595  0.00  0.00    +0.002 A 
ATOM     28  C   UNL     1     -10.391 -11.186  19.968  0.00  0.00    +0.002 A 
ATOM     29  C   UNL     1     -10.925 -12.356  20.509  0.00  0.00    +0.000 A 
ENDBRANCH   8  24
ENDBRANCH  20  22
ENDBRANCH  17  20
ENDBRANCH  14  17
BRANCH   5  18
ATOM     18  C   UNL     1      -4.512 -11.172  10.876  0.00  0.00    +0.143 C 
BRANCH  18  21
ATOM      1  S   UNL     1      -7.023  -8.892   8.803  0.00  0.00    +0.028 S 
ATOM      7  N   UNL     1      -4.900  -8.833  10.131  0.00  0.00    -0.145 NA
ATOM      9  N   UNL     1      -5.723  -8.055   9.446  0.00  0.00    -0.110 NA
ATOM     21  C   UNL     1      -5.334 -10.149  10.138  0.00  0.00    +0.086 A 
ATOM     23  C   UNL     1      -6.505 -10.394   9.450  0.00  0.00    +0.093 A 
ENDBRANCH  18  21
ENDBRANCH   5  18
TORSDOF 6
ENDMDL
MODEL 6
REMARK VINA RESULT:      -6.7     27.096     30.117
REMARK  Name = 45361055
REMARK  7 active torsions:
REMARK  status: ('A' for Active; 'I' for Inactive)
REMARK    1  A    between atoms: N_4  and  C_19
REMARK    2  A    between atoms: N_5  and  C_18
REMARK    3  A    between atoms: N_8  and  C_24
REMARK    4  A    between atoms: C_14  and  C_17
REMARK    5  A    between atoms: C_17  and  C_20
REMARK    6  A    between atoms: C_18  and  C_21
REMARK    7  A    between atoms: C_20  and  C_22
REMARK                            x       y       z     vdW  Elec       q    Type
REMARK                         _______ _______ _______ _____ _____    ______ ____
ROOT
ATOM      2  O   UNL     1      -5.900  -9.531  13.317  0.00  0.00    -0.274 OA
ATOM      4  N   UNL     1      -3.036 -10.803  15.589  0.00  0.00    -0.296 NA
ATOM      5  N   UNL     1      -3.791 -10.602  12.015  0.00  0.00    -0.284 NA
ATOM      6  N   UNL     1      -5.858 -11.035  15.041  0.00  0.00    -0.312 N 
ATOM     10  C   UNL     1      -2.902 -11.239  14.182  0.00  0.00    +0.084 C 
ATOM     11  C   UNL     1      -4.175 -11.247  13.285  0.00  0.00    +0.161 C 
ATOM     12  C   UNL     1      -1.930 -10.380  13.350  0.00  0.00    +0.036 C 
ATOM     13  C   UNL     1      -2.338 -10.670  11.921  0.00  0.00    +0.087 C 
ATOM     14  C   UNL     1      -3.906 -11.675  16.424  0.00  0.00    +0.074 C 
ATOM     15  C   UNL     1      -5.376 -10.502  13.861  0.00  0.00    +0.232 C 
ATOM     16  C   UNL     1      -5.215 -12.125  15.747  0.00  0.00    +0.123 C 
ATOM     19  C   UNL     1      -1.713 -10.650  16.218  0.00  0.00    +0.105 C 
ATOM     30  H   UNL     1      -6.697 -10.626  15.442  0.00  0.00    +0.149 HD
ENDROOT
BRANCH  14  17
ATOM     17  C   UNL     1      -4.286 -10.959  17.739  0.00  0.00    +0.029 C 
BRANCH  17  20
ATOM     20  C   UNL     1      -5.256 -11.782  18.569  0.00  0.00    +0.098 C 
BRANCH  20  22
ATOM      3  O   UNL     1      -6.507 -10.503  20.185  0.00  0.00    -0.275 OA
ATOM      8  N   UNL     1      -7.446 -10.938  18.076  0.00  0.00    -0.285 N 
ATOM     22  C   UNL     1      -6.468 -11.002  19.065  0.00  0.00    +0.217 C 
ATOM     31  H   UNL     1      -7.248 -11.396  17.190  0.00  0.00    +0.155 HD
BRANCH   8  24
ATOM     24  C   UNL     1      -8.708 -10.303  18.152  0.00  0.00    +0.033 A 
ATOM     25  C   UNL     1      -8.968  -9.173  17.379  0.00  0.00    +0.023 A 
ATOM     26  C   UNL     1      -9.694 -10.809  19.000  0.00  0.00    +0.023 A 
ATOM     27  C   UNL     1     -10.213  -8.546  17.453  0.00  0.00    +0.002 A 
ATOM     28  C   UNL     1     -10.938 -10.183  19.076  0.00  0.00    +0.002 A 
ATOM     29  C   UNL     1     -11.198  -9.052  18.302  0.00  0.00    +0.000 A 
ENDBRANCH   8  24
ENDBRANCH  20  22
ENDBRANCH  17  20
ENDBRANCH  14  17
BRANCH   5  18
ATOM     18  C   UNL     1      -4.443 -11.188  10.849  0.00  0.00    +0.143 C 
BRANCH  18  21
ATOM      1  S   UNL     1      -6.774  -8.900   8.583  0.00  0.00    +0.028 S 
ATOM      7  N   UNL     1      -4.831  -8.831  10.162  0.00  0.00    -0.145 NA
ATOM      9  N   UNL     1      -5.595  -8.051   9.415  0.00  0.00    -0.110 NA
ATOM     21  C   UNL     1      -5.210 -10.160  10.060  0.00  0.00    +0.086 A 
ATOM     23  C   UNL     1      -6.279 -10.412   9.224  0.00  0.00    +0.093 A 
ENDBRANCH  18  21
ENDBRANCH   5  18
TORSDOF 6
ENDMDL
MODEL 7
REMARK VINA RESULT:      -6.6     27.302     29.621
REMARK  Name = 45361055
REMARK  7 active torsions:
REMARK  status: ('A' for Active; 'I' for Inactive)
REMARK    1  A    between atoms: N_4  and  C_19
REMARK    2  A    between atoms: N_5  and  C_18
REMARK    3  A    between atoms: N_8  and  C_24
REMARK    4  A    between atoms: C_14  and  C_17
REMARK    5  A    between atoms: C_17  and  C_20
REMARK    6  A    between atoms: C_18  and  C_21
REMARK    7  A    between atoms: C_20  and  C_22
REMARK                            x       y       z     vdW  Elec       q    Type
REMARK                         _______ _______ _______ _____ _____    ______ ____
ROOT
ATOM      2  O   UNL     1      -6.317 -10.458  12.228  0.00  0.00    -0.274 OA
ATOM      4  N   UNL     1      -2.475 -10.512  11.754  0.00  0.00    -0.296 NA
ATOM      5  N   UNL     1      -5.450  -9.704   9.784  0.00  0.00    -0.284 NA
ATOM      6  N   UNL     1      -4.758 -12.113  12.492  0.00  0.00    -0.312 N 
ATOM     10  C   UNL     1      -3.217 -10.348  10.485  0.00  0.00    +0.084 C 
ATOM     11  C   UNL     1      -4.706 -10.800  10.434  0.00  0.00    +0.161 C 
ATOM     12  C   UNL     1      -3.308  -8.889   9.998  0.00  0.00    +0.036 C 
ATOM     13  C   UNL     1      -4.480  -8.910   9.039  0.00  0.00    +0.087 C 
ATOM     14  C   UNL     1      -2.307 -11.925  12.192  0.00  0.00    +0.074 C 
ATOM     15  C   UNL     1      -5.345 -11.076  11.793  0.00  0.00    +0.232 C 
ATOM     16  C   UNL     1      -3.564 -12.803  12.046  0.00  0.00    +0.123 C 
ATOM     19  C   UNL     1      -1.166  -9.840  11.686  0.00  0.00    +0.105 C 
ATOM     30  H   UNL     1      -5.177 -12.391  13.375  0.00  0.00    +0.149 HD
ENDROOT
BRANCH  14  17
ATOM     17  C   UNL     1      -1.868 -11.984  13.671  0.00  0.00    +0.029 C 
BRANCH  17  20
ATOM     20  C   UNL     1      -2.491 -10.866  14.489  0.00  0.00    +0.098 C 
BRANCH  20  22
ATOM      3  O   UNL     1      -3.872 -12.513  15.581  0.00  0.00    -0.275 OA
ATOM      8  N   UNL     1      -4.140 -10.242  16.114  0.00  0.00    -0.285 N 
ATOM     22  C   UNL     1      -3.583 -11.329  15.445  0.00  0.00    +0.217 C 
ATOM     31  H   UNL     1      -3.774  -9.318  15.895  0.00  0.00    +0.155 HD
BRANCH   8  24
ATOM     24  C   UNL     1      -5.175 -10.261  17.079  0.00  0.00    +0.033 A 
ATOM     25  C   UNL     1      -4.948 -10.824  18.334  0.00  0.00    +0.023 A 
ATOM     26  C   UNL     1      -6.423  -9.715  16.776  0.00  0.00    +0.023 A 
ATOM     27  C   UNL     1      -5.968 -10.844  19.286  0.00  0.00    +0.002 A 
ATOM     28  C   UNL     1      -7.442  -9.735  17.726  0.00  0.00    +0.002 A 
ATOM     29  C   UNL     1      -7.216 -10.299  18.982  0.00  0.00    +0.000 A 
ENDBRANCH   8  24
ENDBRANCH  20  22
ENDBRANCH  17  20
ENDBRANCH  14  17
BRANCH   5  18
ATOM     18  C   UNL     1      -6.542 -10.170   8.938  0.00  0.00    +0.143 C 
BRANCH  18  21
ATOM      1  S   UNL     1      -8.470  -7.361   6.890  0.00  0.00    +0.028 S 
ATOM      7  N   UNL     1      -7.921  -8.121   9.213  0.00  0.00    -0.145 NA
ATOM      9  N   UNL     1      -8.570  -7.176   8.551  0.00  0.00    -0.110 NA
ATOM     21  C   UNL     1      -7.323  -9.026   8.350  0.00  0.00    +0.086 A 
ATOM     23  C   UNL     1      -7.511  -8.778   7.004  0.00  0.00    +0.093 A 
ENDBRANCH  18  21
ENDBRANCH   5  18
TORSDOF 6
ENDMDL
MODEL 8
REMARK VINA RESULT:      -6.5     28.486     31.883
REMARK  Name = 45361055
REMARK  7 active torsions:
REMARK  status: ('A' for Active; 'I' for Inactive)
REMARK    1  A    between atoms: N_4  and  C_19
REMARK    2  A    between atoms: N_5  and  C_18
REMARK    3  A    between atoms: N_8  and  C_24
REMARK    4  A    between atoms: C_14  and  C_17
REMARK    5  A    between atoms: C_17  and  C_20
REMARK    6  A    between atoms: C_18  and  C_21
REMARK    7  A    between atoms: C_20  and  C_22
REMARK                            x       y       z     vdW  Elec       q    Type
REMARK                         _______ _______ _______ _____ _____    ______ ____
ROOT
ATOM      2  O   UNL     1      -6.043  -9.280  16.292  0.00  0.00    -0.274 OA
ATOM      4  N   UNL     1      -9.378 -10.038  18.106  0.00  0.00    -0.296 NA
ATOM      5  N   UNL     1      -6.307 -11.809  17.201  0.00  0.00    -0.284 NA
ATOM      6  N   UNL     1      -8.228  -9.070  15.644  0.00  0.00    -0.312 N 
ATOM     10  C   UNL     1      -8.594 -11.253  17.793  0.00  0.00    +0.084 C 
ATOM     11  C   UNL     1      -7.525 -11.175  16.663  0.00  0.00    +0.161 C 
ATOM     12  C   UNL     1      -7.769 -11.787  18.979  0.00  0.00    +0.036 C 
ATOM     13  C   UNL     1      -6.719 -12.654  18.316  0.00  0.00    +0.087 C 
ATOM     14  C   UNL     1     -10.246  -9.561  16.993  0.00  0.00    +0.074 C 
ATOM     15  C   UNL     1      -7.172  -9.762  16.205  0.00  0.00    +0.232 C 
ATOM     16  C   UNL     1      -9.585  -9.579  15.602  0.00  0.00    +0.123 C 
ATOM     19  C   UNL     1     -10.176 -10.230  19.329  0.00  0.00    +0.105 C 
ATOM     30  H   UNL     1      -8.044  -8.149  15.258  0.00  0.00    +0.149 HD
ENDROOT
BRANCH  14  17
ATOM     17  C   UNL     1     -10.724  -8.118  17.262  0.00  0.00    +0.029 C 
BRANCH  17  20
ATOM     20  C   UNL     1     -11.840  -7.708  16.316  0.00  0.00    +0.098 C 
BRANCH  20  22
ATOM      3  O   UNL     1     -10.382  -6.030  15.383  0.00  0.00    -0.275 OA
ATOM      8  N   UNL     1     -12.390  -6.557  14.286  0.00  0.00    -0.285 N 
ATOM     22  C   UNL     1     -11.433  -6.656  15.292  0.00  0.00    +0.217 C 
ATOM     31  H   UNL     1     -13.204  -7.163  14.351  0.00  0.00    +0.155 HD
BRANCH   8  24
ATOM     24  C   UNL     1     -12.373  -5.699  13.160  0.00  0.00    +0.033 A 
ATOM     25  C   UNL     1     -12.335  -6.236  11.875  0.00  0.00    +0.023 A 
ATOM     26  C   UNL     1     -12.396  -4.315  13.337  0.00  0.00    +0.023 A 
ATOM     27  C   UNL     1     -12.318  -5.391  10.765  0.00  0.00    +0.002 A 
ATOM     28  C   UNL     1     -12.379  -3.470  12.229  0.00  0.00    +0.002 A 
ATOM     29  C   UNL     1     -12.340  -4.007  10.942  0.00  0.00    +0.000 A 
ENDBRANCH   8  24
ENDBRANCH  20  22
ENDBRANCH  17  20
ENDBRANCH  14  17
BRANCH   5  18
ATOM     18  C   UNL     1      -5.552 -12.552  16.200  0.00  0.00    +0.143 C 
BRANCH  18  21
ATOM      1  S   UNL     1      -1.984 -11.194  15.092  0.00  0.00    +0.028 S 
ATOM      7  N   UNL     1      -3.571 -11.302  17.028  0.00  0.00    -0.145 NA
ATOM      9  N   UNL     1      -2.380 -10.840  16.680  0.00  0.00    -0.110 NA
ATOM     21  C   UNL     1      -4.185 -11.963  15.976  0.00  0.00    +0.086 A 
ATOM     23  C   UNL     1      -3.462 -12.015  14.802  0.00  0.00    +0.093 A 
ENDBRANCH  18  21
ENDBRANCH   5  18
TORSDOF 6
ENDMDL
MODEL 9
REMARK VINA RESULT:      -6.3     29.499     33.027
REMARK  Name = 45361055
REMARK  7 active torsions:
REMARK  status: ('A' for Active; 'I' for Inactive)
REMARK    1  A    between atoms: N_4  and  C_19
REMARK    2  A    between atoms: N_5  and  C_18
REMARK    3  A    between atoms: N_8  and  C_24
REMARK    4  A    between atoms: C_14  and  C_17
REMARK    5  A    between atoms: C_17  and  C_20
REMARK    6  A    between atoms: C_18  and  C_21
REMARK    7  A    between atoms: C_20  and  C_22
REMARK                            x       y       z     vdW  Elec       q    Type
REMARK                         _______ _______ _______ _____ _____    ______ ____
ROOT
ATOM      2  O   UNL     1      -6.305 -13.506  16.858  0.00  0.00    -0.274 OA
ATOM      4  N   UNL     1      -8.813 -10.898  18.235  0.00  0.00    -0.296 NA
ATOM      5  N   UNL     1      -5.421 -10.955  16.864  0.00  0.00    -0.284 NA
ATOM      6  N   UNL     1      -7.410 -13.341  18.855  0.00  0.00    -0.312 N 
ATOM     10  C   UNL     1      -7.445 -10.359  18.063  0.00  0.00    +0.084 C 
ATOM     11  C   UNL     1      -6.255 -11.362  18.010  0.00  0.00    +0.161 C 
ATOM     12  C   UNL     1      -7.247  -9.558  16.763  0.00  0.00    +0.036 C 
ATOM     13  C   UNL     1      -5.745  -9.564  16.570  0.00  0.00    +0.087 C 
ATOM     14  C   UNL     1      -9.040 -11.602  19.527  0.00  0.00    +0.074 C 
ATOM     15  C   UNL     1      -6.651 -12.825  17.822  0.00  0.00    +0.232 C 
ATOM     16  C   UNL     1      -7.902 -12.544  19.962  0.00  0.00    +0.123 C 
ATOM     19  C   UNL     1      -9.819  -9.839  18.046  0.00  0.00    +0.105 C 
ATOM     30  H   UNL     1      -7.651 -14.327  18.824  0.00  0.00    +0.149 HD
ENDROOT
BRANCH  14  17
ATOM     17  C   UNL     1     -10.337 -12.437  19.466  0.00  0.00    +0.029 C 
BRANCH  17  20
ATOM     20  C   UNL     1     -10.494 -13.325  20.689  0.00  0.00    +0.098 C 
BRANCH  20  22
ATOM      3  O   UNL     1     -12.529 -14.511  21.202  0.00  0.00    -0.275 OA
ATOM      8  N   UNL     1     -12.391 -12.207  21.638  0.00  0.00    -0.285 N 
ATOM     22  C   UNL     1     -11.927 -13.442  21.193  0.00  0.00    +0.217 C 
ATOM     31  H   UNL     1     -11.755 -11.416  21.574  0.00  0.00    +0.155 HD
BRANCH   8  24
ATOM     24  C   UNL     1     -13.665 -11.907  22.176  0.00  0.00    +0.033 A 
ATOM     25  C   UNL     1     -14.566 -11.133  21.446  0.00  0.00    +0.023 A 
ATOM     26  C   UNL     1     -14.020 -12.388  23.437  0.00  0.00    +0.023 A 
ATOM     27  C   UNL     1     -15.822 -10.838  21.977  0.00  0.00    +0.002 A 
ATOM     28  C   UNL     1     -15.275 -12.093  23.967  0.00  0.00    +0.002 A 
ATOM     29  C   UNL     1     -16.177 -11.318  23.238  0.00  0.00    +0.000 A 
ENDBRANCH   8  24
ENDBRANCH  20  22
ENDBRANCH  17  20
ENDBRANCH  14  17
BRANCH   5  18
ATOM     18  C   UNL     1      -3.993 -11.148  17.091  0.00  0.00    +0.143 C 
BRANCH  18  21
ATOM      1  S   UNL     1      -2.288 -10.773  13.519  0.00  0.00    +0.028 S 
ATOM      7  N   UNL     1      -1.965 -10.272  15.953  0.00  0.00    -0.145 NA
ATOM      9  N   UNL     1      -1.380 -10.136  14.773  0.00  0.00    -0.110 NA
ATOM     21  C   UNL     1      -3.190 -10.912  15.840  0.00  0.00    +0.086 A 
ATOM     23  C   UNL     1      -3.556 -11.276  14.560  0.00  0.00    +0.093 A 
ENDBRANCH  18  21
ENDBRANCH   5  18
TORSDOF 6
ENDMDL
MODEL 10
REMARK VINA RESULT:      -6.3     27.475     29.872
REMARK  Name = 45361055
REMARK  7 active torsions:
REMARK  status: ('A' for Active; 'I' for Inactive)
REMARK    1  A    between atoms: N_4  and  C_19
REMARK    2  A    between atoms: N_5  and  C_18
REMARK    3  A    between atoms: N_8  and  C_24
REMARK    4  A    between atoms: C_14  and  C_17
REMARK    5  A    between atoms: C_17  and  C_20
REMARK    6  A    between atoms: C_18  and  C_21
REMARK    7  A    between atoms: C_20  and  C_22
REMARK                            x       y       z     vdW  Elec       q    Type
REMARK                         _______ _______ _______ _____ _____    ______ ____
ROOT
ATOM      2  O   UNL     1      -5.542  -9.587  16.083  0.00  0.00    -0.274 OA
ATOM      4  N   UNL     1      -3.775 -12.763  14.748  0.00  0.00    -0.296 NA
ATOM      5  N   UNL     1      -6.213 -11.885  17.332  0.00  0.00    -0.284 NA
ATOM      6  N   UNL     1      -3.332 -10.129  15.838  0.00  0.00    -0.312 N 
ATOM     10  C   UNL     1      -4.486 -12.984  16.026  0.00  0.00    +0.084 C 
ATOM     11  C   UNL     1      -4.802 -11.750  16.921  0.00  0.00    +0.161 C 
ATOM     12  C   UNL     1      -5.877 -13.627  15.866  0.00  0.00    +0.036 C 
ATOM     13  C   UNL     1      -6.575 -13.288  17.166  0.00  0.00    +0.087 C 
ATOM     14  C   UNL     1      -2.397 -12.220  14.895  0.00  0.00    +0.074 C 
ATOM     15  C   UNL     1      -4.627 -10.395  16.239  0.00  0.00    +0.232 C 
ATOM     16  C   UNL     1      -2.251 -11.091  15.934  0.00  0.00    +0.123 C 
ATOM     19  C   UNL     1      -3.755 -13.994  13.940  0.00  0.00    +0.105 C 
ATOM     30  H   UNL     1      -3.134  -9.217  15.437  0.00  0.00    +0.149 HD
ENDROOT
BRANCH  14  17
ATOM     17  C   UNL     1      -1.883 -11.677  13.544  0.00  0.00    +0.029 C 
BRANCH  17  20
ATOM     20  C   UNL     1      -2.484 -10.321  13.216  0.00  0.00    +0.098 C 
BRANCH  20  22
ATOM      3  O   UNL     1      -4.804 -10.264  12.561  0.00  0.00    -0.275 OA
ATOM      8  N   UNL     1      -3.145 -10.538  10.921  0.00  0.00    -0.285 N 
ATOM     22  C   UNL     1      -3.632 -10.376  12.215  0.00  0.00    +0.217 C 
ATOM     31  H   UNL     1      -2.137 -10.600  10.803  0.00  0.00    +0.155 HD
BRANCH   8  24
ATOM     24  C   UNL     1      -3.894 -10.631   9.723  0.00  0.00    +0.033 A 
ATOM     25  C   UNL     1      -4.385  -9.476   9.117  0.00  0.00    +0.023 A 
ATOM     26  C   UNL     1      -4.138 -11.879   9.148  0.00  0.00    +0.023 A 
ATOM     27  C   UNL     1      -5.123  -9.568   7.936  0.00  0.00    +0.002 A 
ATOM     28  C   UNL     1      -4.875 -11.971   7.969  0.00  0.00    +0.002 A 
ATOM     29  C   UNL     1      -5.368 -10.815   7.362  0.00  0.00    +0.000 A 
ENDBRANCH   8  24
ENDBRANCH  20  22
ENDBRANCH  17  20
ENDBRANCH  14  17
BRANCH   5  18
ATOM     18  C   UNL     1      -6.469 -11.410  18.686  0.00  0.00    +0.143 C 
BRANCH  18  21
ATOM      1  S   UNL     1     -10.201 -10.041  18.629  0.00  0.00    +0.028 S 
ATOM      7  N   UNL     1      -8.516 -11.198  20.078  0.00  0.00    -0.145 NA
ATOM      9  N   UNL     1      -9.762 -10.750  20.081  0.00  0.00    -0.110 NA
ATOM     21  C   UNL     1      -7.895 -10.962  18.863  0.00  0.00    +0.086 A 
ATOM     23  C   UNL     1      -8.668 -10.323  17.913  0.00  0.00    +0.093 A 
ENDBRANCH  18  21
ENDBRANCH   5  18
TORSDOF 6
ENDMDL
