MODEL 1
REMARK VINA RESULT:      -7.3      0.000      0.000
REMARK  Name = 26744244
REMARK  5 active torsions:
REMARK  status: ('A' for Active; 'I' for Inactive)
REMARK    1  A    between atoms: O_3  and  C_12
REMARK    2  A    between atoms: N_4  and  C_16
REMARK    3  A    between atoms: C_7  and  C_14
REMARK    4  A    between atoms: C_8  and  C_15
REMARK    5  A    between atoms: C_16  and  C_17
REMARK                            x       y       z     vdW  Elec       q    Type
REMARK                         _______ _______ _______ _____ _____    ______ ____
ROOT
ATOM      4  N   UNL     1      12.878   7.985  21.095  0.00  0.00    -0.285 NA
ATOM      8  C   UNL     1      11.536   8.596  20.996  0.00  0.00    +0.149 C 
ATOM     11  C   UNL     1      10.559   7.459  21.349  0.00  0.00    +0.061 C 
ATOM     12  C   UNL     1      11.442   6.239  21.583  0.00  0.00    +0.130 C 
ATOM     13  C   UNL     1      12.706   6.561  20.810  0.00  0.00    +0.116 C 
ENDROOT
BRANCH   8  15
ATOM      2  O   UNL     1      11.476  11.020  21.302  0.00  0.00    -0.336 OA
ATOM      5  N   UNL     1      11.159   9.853  23.186  0.00  0.00    -0.194 NA
ATOM      6  N   UNL     1      11.299  11.965  22.320  0.00  0.00    -0.061 NA
ATOM     14  C   UNL     1      11.117  11.200  23.400  0.00  0.00    +0.175 A 
ATOM     15  C   UNL     1      11.379   9.803  21.897  0.00  0.00    +0.245 A 
BRANCH  14   7
ATOM      7  C   UNL     1      10.878  11.801  24.788  0.00  0.00    +0.060 C 
ATOM      9  C   UNL     1      10.533  13.257  24.894  0.00  0.00    +0.012 C 
ATOM     10  C   UNL     1      11.882  12.771  25.336  0.00  0.00    +0.012 C 
ENDBRANCH  14   7
ENDBRANCH   8  15
BRANCH  12   3
ATOM      3  O   UNL     1      10.815   5.066  21.100  0.00  0.00    -0.390 OA
ATOM     23  H   UNL     1      10.773   5.136  20.131  0.00  0.00    +0.210 HD
ENDBRANCH  12   3
BRANCH   4  16
ATOM     16  C   UNL     1      13.858   8.606  20.212  0.00  0.00    +0.120 C 
BRANCH  16  17
ATOM      1 CL   UNL     1      19.064   5.591  20.168  0.00  0.00    -0.084 Cl
ATOM     17  C   UNL     1      15.160   7.851  20.202  0.00  0.00    -0.033 A 
ATOM     18  C   UNL     1      15.445   6.967  19.161  0.00  0.00    +0.006 A 
ATOM     19  C   UNL     1      16.082   8.036  21.232  0.00  0.00    +0.006 A 
ATOM     20  C   UNL     1      16.652   6.267  19.151  0.00  0.00    +0.020 A 
ATOM     21  C   UNL     1      17.289   7.336  21.222  0.00  0.00    +0.020 A 
ATOM     22  C   UNL     1      17.574   6.452  20.183  0.00  0.00    +0.041 A 
ENDBRANCH  16  17
ENDBRANCH   4  16
TORSDOF 5
ENDMDL
MODEL 2
REMARK VINA RESULT:      -7.2      3.647      6.906
REMARK  Name = 26744244
REMARK  5 active torsions:
REMARK  status: ('A' for Active; 'I' for Inactive)
REMARK    1  A    between atoms: O_3  and  C_12
REMARK    2  A    between atoms: N_4  and  C_16
REMARK    3  A    between atoms: C_7  and  C_14
REMARK    4  A    between atoms: C_8  and  C_15
REMARK    5  A    between atoms: C_16  and  C_17
REMARK                            x       y       z     vdW  Elec       q    Type
REMARK                         _______ _______ _______ _____ _____    ______ ____
ROOT
ATOM      4  N   UNL     1      12.680   8.494  18.668  0.00  0.00    -0.285 NA
ATOM      8  C   UNL     1      13.719   7.523  18.265  0.00  0.00    +0.149 C 
ATOM     11  C   UNL     1      14.060   7.894  16.810  0.00  0.00    +0.061 C 
ATOM     12  C   UNL     1      13.130   9.051  16.469  0.00  0.00    +0.130 C 
ATOM     13  C   UNL     1      11.981   8.883  17.444  0.00  0.00    +0.116 C 
ENDROOT
BRANCH   8  15
ATOM      2  O   UNL     1      15.320   8.776  19.623  0.00  0.00    -0.336 OA
ATOM      5  N   UNL     1      15.667   6.564  19.609  0.00  0.00    -0.194 NA
ATOM      6  N   UNL     1      16.438   8.552  20.435  0.00  0.00    -0.061 NA
ATOM     14  C   UNL     1      16.579   7.225  20.378  0.00  0.00    +0.175 A 
ATOM     15  C   UNL     1      14.928   7.554  19.176  0.00  0.00    +0.245 A 
BRANCH  14   7
ATOM      7  C   UNL     1      17.697   6.495  21.128  0.00  0.00    +0.060 C 
ATOM      9  C   UNL     1      18.992   7.213  21.370  0.00  0.00    +0.012 C 
ATOM     10  C   UNL     1      18.930   6.094  20.373  0.00  0.00    +0.012 C 
ENDBRANCH  14   7
ENDBRANCH   8  15
BRANCH  12   3
ATOM      3  O   UNL     1      12.695   8.966  15.125  0.00  0.00    -0.390 OA
ATOM     23  H   UNL     1      12.225   8.121  15.024  0.00  0.00    +0.210 HD
ENDBRANCH  12   3
BRANCH   4  16
ATOM     16  C   UNL     1      11.767   7.973  19.678  0.00  0.00    +0.120 C 
BRANCH  16  17
ATOM      1 CL   UNL     1      10.797  11.949  24.087  0.00  0.00    -0.084 Cl
ATOM     17  C   UNL     1      11.525   8.967  20.782  0.00  0.00    -0.033 A 
ATOM     18  C   UNL     1      12.020  10.266  20.671  0.00  0.00    +0.006 A 
ATOM     19  C   UNL     1      10.804   8.590  21.915  0.00  0.00    +0.006 A 
ATOM     20  C   UNL     1      11.796  11.188  21.693  0.00  0.00    +0.020 A 
ATOM     21  C   UNL     1      10.580   9.512  22.938  0.00  0.00    +0.020 A 
ATOM     22  C   UNL     1      11.076  10.810  22.827  0.00  0.00    +0.041 A 
ENDBRANCH  16  17
ENDBRANCH   4  16
TORSDOF 5
ENDMDL
MODEL 3
REMARK VINA RESULT:      -7.0      3.287      5.331
REMARK  Name = 26744244
REMARK  5 active torsions:
REMARK  status: ('A' for Active; 'I' for Inactive)
REMARK    1  A    between atoms: O_3  and  C_12
REMARK    2  A    between atoms: N_4  and  C_16
REMARK    3  A    between atoms: C_7  and  C_14
REMARK    4  A    between atoms: C_8  and  C_15
REMARK    5  A    between atoms: C_16  and  C_17
REMARK                            x       y       z     vdW  Elec       q    Type
REMARK                         _______ _______ _______ _____ _____    ______ ____
ROOT
ATOM      4  N   UNL     1      13.349   7.921  20.124  0.00  0.00    -0.285 NA
ATOM      8  C   UNL     1      12.422   7.835  18.977  0.00  0.00    +0.149 C 
ATOM     11  C   UNL     1      11.116   8.479  19.477  0.00  0.00    +0.061 C 
ATOM     12  C   UNL     1      11.391   8.853  20.928  0.00  0.00    +0.130 C 
ATOM     13  C   UNL     1      12.519   7.921  21.327  0.00  0.00    +0.116 C 
ENDROOT
BRANCH   8  15
ATOM      2  O   UNL     1      13.176   7.710  16.655  0.00  0.00    -0.336 OA
ATOM      5  N   UNL     1      13.278   9.764  17.540  0.00  0.00    -0.194 NA
ATOM      6  N   UNL     1      13.675   8.544  15.647  0.00  0.00    -0.061 NA
ATOM     14  C   UNL     1      13.705   9.738  16.245  0.00  0.00    +0.175 A 
ATOM     15  C   UNL     1      12.969   8.507  17.735  0.00  0.00    +0.245 A 
BRANCH  14   7
ATOM      7  C   UNL     1      14.191  10.996  15.519  0.00  0.00    +0.060 C 
ATOM      9  C   UNL     1      15.347  10.881  14.570  0.00  0.00    +0.012 C 
ATOM     10  C   UNL     1      15.526  11.572  15.890  0.00  0.00    +0.012 C 
ENDBRANCH  14   7
ENDBRANCH   8  15
BRANCH  12   3
ATOM      3  O   UNL     1      10.238   8.654  21.724  0.00  0.00    -0.390 OA
ATOM     23  H   UNL     1       9.548   8.281  21.150  0.00  0.00    +0.210 HD
ENDBRANCH  12   3
BRANCH   4  16
ATOM     16  C   UNL     1      14.341   6.854  20.143  0.00  0.00    +0.120 C 
BRANCH  16  17
ATOM      1 CL   UNL     1      19.794   8.888  21.665  0.00  0.00    -0.084 Cl
ATOM     17  C   UNL     1      15.705   7.363  20.525  0.00  0.00    -0.033 A 
ATOM     18  C   UNL     1      16.711   6.464  20.880  0.00  0.00    +0.006 A 
ATOM     19  C   UNL     1      15.964   8.734  20.522  0.00  0.00    +0.006 A 
ATOM     20  C   UNL     1      17.975   6.936  21.234  0.00  0.00    +0.020 A 
ATOM     21  C   UNL     1      17.228   9.206  20.876  0.00  0.00    +0.020 A 
ATOM     22  C   UNL     1      18.233   8.307  21.231  0.00  0.00    +0.041 A 
ENDBRANCH  16  17
ENDBRANCH   4  16
TORSDOF 5
ENDMDL
MODEL 4
REMARK VINA RESULT:      -6.6      4.344      6.971
REMARK  Name = 26744244
REMARK  5 active torsions:
REMARK  status: ('A' for Active; 'I' for Inactive)
REMARK    1  A    between atoms: O_3  and  C_12
REMARK    2  A    between atoms: N_4  and  C_16
REMARK    3  A    between atoms: C_7  and  C_14
REMARK    4  A    between atoms: C_8  and  C_15
REMARK    5  A    between atoms: C_16  and  C_17
REMARK                            x       y       z     vdW  Elec       q    Type
REMARK                         _______ _______ _______ _____ _____    ______ ____
ROOT
ATOM      4  N   UNL     1      12.815   7.740  19.042  0.00  0.00    -0.285 NA
ATOM      8  C   UNL     1      13.939   8.681  18.851  0.00  0.00    +0.149 C 
ATOM     11  C   UNL     1      15.165   7.953  19.432  0.00  0.00    +0.061 C 
ATOM     12  C   UNL     1      14.623   6.633  19.968  0.00  0.00    +0.130 C 
ATOM     13  C   UNL     1      13.154   6.924  20.207  0.00  0.00    +0.116 C 
ENDROOT
BRANCH   8  15
ATOM      2  O   UNL     1      13.714   8.178  16.470  0.00  0.00    -0.336 OA
ATOM      5  N   UNL     1      14.631  10.175  16.900  0.00  0.00    -0.194 NA
ATOM      6  N   UNL     1      13.984   8.759  15.225  0.00  0.00    -0.061 NA
ATOM     14  C   UNL     1      14.523   9.934  15.562  0.00  0.00    +0.175 A 
ATOM     15  C   UNL     1      14.125   9.077  17.402  0.00  0.00    +0.245 A 
BRANCH  14   7
ATOM      7  C   UNL     1      14.989  10.945  14.509  0.00  0.00    +0.060 C 
ATOM      9  C   UNL     1      15.303  12.346  14.944  0.00  0.00    +0.012 C 
ATOM     10  C   UNL     1      14.070  12.070  14.135  0.00  0.00    +0.012 C 
ENDBRANCH  14   7
ENDBRANCH   8  15
BRANCH  12   3
ATOM      3  O   UNL     1      15.287   6.266  21.162  0.00  0.00    -0.390 OA
ATOM     23  H   UNL     1      14.638   6.316  21.884  0.00  0.00    +0.210 HD
ENDBRANCH  12   3
BRANCH   4  16
ATOM     16  C   UNL     1      11.528   8.406  19.196  0.00  0.00    +0.120 C 
BRANCH  16  17
ATOM      1 CL   UNL     1      11.024  11.107  24.549  0.00  0.00    -0.084 Cl
ATOM     17  C   UNL     1      11.403   9.082  20.536  0.00  0.00    -0.033 A 
ATOM     18  C   UNL     1      11.889  10.377  20.712  0.00  0.00    +0.006 A 
ATOM     19  C   UNL     1      10.799   8.412  21.600  0.00  0.00    +0.006 A 
ATOM     20  C   UNL     1      11.773  11.003  21.954  0.00  0.00    +0.020 A 
ATOM     21  C   UNL     1      10.683   9.038  22.842  0.00  0.00    +0.020 A 
ATOM     22  C   UNL     1      11.169  10.332  23.018  0.00  0.00    +0.041 A 
ENDBRANCH  16  17
ENDBRANCH   4  16
TORSDOF 5
ENDMDL
MODEL 5
REMARK VINA RESULT:      -6.4      3.330      6.970
REMARK  Name = 26744244
REMARK  5 active torsions:
REMARK  status: ('A' for Active; 'I' for Inactive)
REMARK    1  A    between atoms: O_3  and  C_12
REMARK    2  A    between atoms: N_4  and  C_16
REMARK    3  A    between atoms: C_7  and  C_14
REMARK    4  A    between atoms: C_8  and  C_15
REMARK    5  A    between atoms: C_16  and  C_17
REMARK                            x       y       z     vdW  Elec       q    Type
REMARK                         _______ _______ _______ _____ _____    ______ ____
ROOT
ATOM      4  N   UNL     1      12.625   9.173  20.642  0.00  0.00    -0.285 NA
ATOM      8  C   UNL     1      13.277   8.199  21.540  0.00  0.00    +0.149 C 
ATOM     11  C   UNL     1      12.202   7.130  21.809  0.00  0.00    +0.061 C 
ATOM     12  C   UNL     1      10.967   7.615  21.058  0.00  0.00    +0.130 C 
ATOM     13  C   UNL     1      11.193   9.109  20.931  0.00  0.00    +0.116 C 
ENDROOT
BRANCH   8  15
ATOM      2  O   UNL     1      14.388   6.602  20.060  0.00  0.00    -0.336 OA
ATOM      5  N   UNL     1      15.790   7.954  21.164  0.00  0.00    -0.194 NA
ATOM      6  N   UNL     1      15.678   6.238  19.656  0.00  0.00    -0.061 NA
ATOM     14  C   UNL     1      16.449   7.080  20.349  0.00  0.00    +0.175 A 
ATOM     15  C   UNL     1      14.544   7.619  20.948  0.00  0.00    +0.245 A 
BRANCH  14   7
ATOM      7  C   UNL     1      17.976   7.063  20.234  0.00  0.00    +0.060 C 
ATOM      9  C   UNL     1      18.674   5.742  20.093  0.00  0.00    +0.012 C 
ATOM     10  C   UNL     1      18.779   6.511  21.376  0.00  0.00    +0.012 C 
ENDBRANCH  14   7
ENDBRANCH   8  15
BRANCH  12   3
ATOM      3  O   UNL     1       9.790   7.322  21.786  0.00  0.00    -0.390 OA
ATOM     23  H   UNL     1       9.471   8.155  22.173  0.00  0.00    +0.210 HD
ENDBRANCH  12   3
BRANCH   4  16
ATOM     16  C   UNL     1      13.152  10.525  20.781  0.00  0.00    +0.120 C 
BRANCH  16  17
ATOM      1 CL   UNL     1      10.423  13.553  25.206  0.00  0.00    -0.084 Cl
ATOM     17  C   UNL     1      12.468  11.282  21.888  0.00  0.00    -0.033 A 
ATOM     18  C   UNL     1      12.841  11.066  23.214  0.00  0.00    +0.006 A 
ATOM     19  C   UNL     1      11.462  12.201  21.587  0.00  0.00    +0.006 A 
ATOM     20  C   UNL     1      12.208  11.767  24.241  0.00  0.00    +0.020 A 
ATOM     21  C   UNL     1      10.829  12.903  22.614  0.00  0.00    +0.020 A 
ATOM     22  C   UNL     1      11.202  12.686  23.939  0.00  0.00    +0.041 A 
ENDBRANCH  16  17
ENDBRANCH   4  16
TORSDOF 5
ENDMDL
MODEL 6
REMARK VINA RESULT:      -6.2     25.203     27.456
REMARK  Name = 26744244
REMARK  5 active torsions:
REMARK  status: ('A' for Active; 'I' for Inactive)
REMARK    1  A    between atoms: O_3  and  C_12
REMARK    2  A    between atoms: N_4  and  C_16
REMARK    3  A    between atoms: C_7  and  C_14
REMARK    4  A    between atoms: C_8  and  C_15
REMARK    5  A    between atoms: C_16  and  C_17
REMARK                            x       y       z     vdW  Elec       q    Type
REMARK                         _______ _______ _______ _____ _____    ______ ____
ROOT
ATOM      4  N   UNL     1      -3.196 -10.634  14.342  0.00  0.00    -0.285 NA
ATOM      8  C   UNL     1      -3.431 -11.293  15.643  0.00  0.00    +0.149 C 
ATOM     11  C   UNL     1      -2.241 -10.867  16.522  0.00  0.00    +0.061 C 
ATOM     12  C   UNL     1      -1.367 -10.009  15.614  0.00  0.00    +0.130 C 
ATOM     13  C   UNL     1      -1.748 -10.467  14.219  0.00  0.00    +0.116 C 
ENDROOT
BRANCH   8  15
ATOM      2  O   UNL     1      -5.330 -11.836  17.084  0.00  0.00    -0.336 OA
ATOM      5  N   UNL     1      -5.479  -9.835  16.090  0.00  0.00    -0.194 NA
ATOM      6  N   UNL     1      -6.540 -11.278  17.513  0.00  0.00    -0.061 NA
ATOM     14  C   UNL     1      -6.556 -10.099  16.885  0.00  0.00    +0.175 A 
ATOM     15  C   UNL     1      -4.768 -10.923  16.250  0.00  0.00    +0.245 A 
BRANCH  14   7
ATOM      7  C   UNL     1      -7.713  -9.108  17.049  0.00  0.00    +0.060 C 
ATOM      9  C   UNL     1      -9.049  -9.627  17.491  0.00  0.00    +0.012 C 
ATOM     10  C   UNL     1      -8.854  -9.167  16.077  0.00  0.00    +0.012 C 
ENDBRANCH  14   7
ENDBRANCH   8  15
BRANCH  12   3
ATOM      3  O   UNL     1       0.004 -10.229  15.883  0.00  0.00    -0.390 OA
ATOM     23  H   UNL     1       0.510  -9.855  15.141  0.00  0.00    +0.210 HD
ENDBRANCH  12   3
BRANCH   4  16
ATOM     16  C   UNL     1      -3.760 -11.367  13.216  0.00  0.00    +0.120 C 
BRANCH  16  17
ATOM      1 CL   UNL     1      -6.296  -7.681   9.194  0.00  0.00    -0.084 Cl
ATOM     17  C   UNL     1      -4.395 -10.445  12.209  0.00  0.00    -0.033 A 
ATOM     18  C   UNL     1      -5.638  -9.872  12.475  0.00  0.00    +0.006 A 
ATOM     19  C   UNL     1      -3.739 -10.164  11.010  0.00  0.00    +0.006 A 
ATOM     20  C   UNL     1      -6.227  -9.018  11.542  0.00  0.00    +0.020 A 
ATOM     21  C   UNL     1      -4.328  -9.310  10.077  0.00  0.00    +0.020 A 
ATOM     22  C   UNL     1      -5.571  -8.737  10.343  0.00  0.00    +0.041 A 
ENDBRANCH  16  17
ENDBRANCH   4  16
TORSDOF 5
ENDMDL
MODEL 7
REMARK VINA RESULT:      -6.1     24.187     26.613
REMARK  Name = 26744244
REMARK  5 active torsions:
REMARK  status: ('A' for Active; 'I' for Inactive)
REMARK    1  A    between atoms: O_3  and  C_12
REMARK    2  A    between atoms: N_4  and  C_16
REMARK    3  A    between atoms: C_7  and  C_14
REMARK    4  A    between atoms: C_8  and  C_15
REMARK    5  A    between atoms: C_16  and  C_17
REMARK                            x       y       z     vdW  Elec       q    Type
REMARK                         _______ _______ _______ _____ _____    ______ ____
ROOT
ATOM      4  N   UNL     1     -11.745   9.794  20.256  0.00  0.00    -0.285 NA
ATOM      8  C   UNL     1     -12.283   8.658  19.478  0.00  0.00    +0.149 C 
ATOM     11  C   UNL     1     -11.165   8.297  18.484  0.00  0.00    +0.061 C 
ATOM     12  C   UNL     1     -10.060   9.313  18.746  0.00  0.00    +0.130 C 
ATOM     13  C   UNL     1     -10.793  10.478  19.382  0.00  0.00    +0.116 C 
ENDROOT
BRANCH   8  15
ATOM      2  O   UNL     1     -11.676   6.742  20.869  0.00  0.00    -0.336 OA
ATOM      5  N   UNL     1     -13.882   7.089  20.702  0.00  0.00    -0.194 NA
ATOM      6  N   UNL     1     -12.286   5.740  21.634  0.00  0.00    -0.061 NA
ATOM     14  C   UNL     1     -13.586   6.012  21.487  0.00  0.00    +0.175 A 
ATOM     15  C   UNL     1     -12.686   7.492  20.356  0.00  0.00    +0.245 A 
BRANCH  14   7
ATOM      7  C   UNL     1     -14.672   5.166  22.157  0.00  0.00    +0.060 C 
ATOM      9  C   UNL     1     -15.677   5.849  23.038  0.00  0.00    +0.012 C 
ATOM     10  C   UNL     1     -14.620   4.975  23.645  0.00  0.00    +0.012 C 
ENDBRANCH  14   7
ENDBRANCH   8  15
BRANCH  12   3
ATOM      3  O   UNL     1      -9.426   9.688  17.538  0.00  0.00    -0.390 OA
ATOM     23  H   UNL     1     -10.040  10.266  17.054  0.00  0.00    +0.210 HD
ENDBRANCH  12   3
BRANCH   4  16
ATOM     16  C   UNL     1     -12.780  10.694  20.750  0.00  0.00    +0.120 C 
BRANCH  16  17
ATOM      1 CL   UNL     1     -13.346  10.392  26.732  0.00  0.00    -0.084 Cl
ATOM     17  C   UNL     1     -12.921  10.617  22.247  0.00  0.00    -0.033 A 
ATOM     18  C   UNL     1     -11.979  11.236  23.068  0.00  0.00    +0.006 A 
ATOM     19  C   UNL     1     -13.995   9.928  22.811  0.00  0.00    +0.006 A 
ATOM     20  C   UNL     1     -12.110  11.165  24.456  0.00  0.00    +0.020 A 
ATOM     21  C   UNL     1     -14.125   9.858  24.199  0.00  0.00    +0.020 A 
ATOM     22  C   UNL     1     -13.183  10.476  25.020  0.00  0.00    +0.041 A 
ENDBRANCH  16  17
ENDBRANCH   4  16
TORSDOF 5
ENDMDL
MODEL 8
REMARK VINA RESULT:      -6.0      3.999      6.936
REMARK  Name = 26744244
REMARK  5 active torsions:
REMARK  status: ('A' for Active; 'I' for Inactive)
REMARK    1  A    between atoms: O_3  and  C_12
REMARK    2  A    between atoms: N_4  and  C_16
REMARK    3  A    between atoms: C_7  and  C_14
REMARK    4  A    between atoms: C_8  and  C_15
REMARK    5  A    between atoms: C_16  and  C_17
REMARK                            x       y       z     vdW  Elec       q    Type
REMARK                         _______ _______ _______ _____ _____    ______ ____
ROOT
ATOM      4  N   UNL     1      12.018   9.062  21.377  0.00  0.00    -0.285 NA
ATOM      8  C   UNL     1      12.878   8.316  20.435  0.00  0.00    +0.149 C 
ATOM     11  C   UNL     1      12.180   6.955  20.257  0.00  0.00    +0.061 C 
ATOM     12  C   UNL     1      10.964   7.013  21.175  0.00  0.00    +0.130 C 
ATOM     13  C   UNL     1      11.345   8.061  22.203  0.00  0.00    +0.116 C 
ENDROOT
BRANCH   8  15
ATOM      2  O   UNL     1      12.095   8.905  18.196  0.00  0.00    -0.336 OA
ATOM      5  N   UNL     1      14.067   9.813  18.742  0.00  0.00    -0.194 NA
ATOM      6  N   UNL     1      12.495   9.662  17.088  0.00  0.00    -0.061 NA
ATOM     14  C   UNL     1      13.666  10.167  17.487  0.00  0.00    +0.175 A 
ATOM     15  C   UNL     1      13.076   9.048  19.124  0.00  0.00    +0.245 A 
BRANCH  14   7
ATOM      7  C   UNL     1      14.502  11.084  16.590  0.00  0.00    +0.060 C 
ATOM      9  C   UNL     1      13.957  11.470  15.246  0.00  0.00    +0.012 C 
ATOM     10  C   UNL     1      15.108  10.513  15.342  0.00  0.00    +0.012 C 
ENDBRANCH  14   7
ENDBRANCH   8  15
BRANCH  12   3
ATOM      3  O   UNL     1      10.726   5.752  21.772  0.00  0.00    -0.390 OA
ATOM     23  H   UNL     1      11.012   5.811  22.699  0.00  0.00    +0.210 HD
ENDBRANCH  12   3
BRANCH   4  16
ATOM     16  C   UNL     1      12.753  10.031  22.181  0.00  0.00    +0.120 C 
BRANCH  16  17
ATOM      1 CL   UNL     1       9.363  14.794  23.601  0.00  0.00    -0.084 Cl
ATOM     17  C   UNL     1      11.904  11.222  22.536  0.00  0.00    -0.033 A 
ATOM     18  C   UNL     1      11.391  11.354  23.826  0.00  0.00    +0.006 A 
ATOM     19  C   UNL     1      11.631  12.196  21.574  0.00  0.00    +0.006 A 
ATOM     20  C   UNL     1      10.604  12.458  24.156  0.00  0.00    +0.020 A 
ATOM     21  C   UNL     1      10.844  13.300  21.904  0.00  0.00    +0.020 A 
ATOM     22  C   UNL     1      10.331  13.431  23.193  0.00  0.00    +0.041 A 
ENDBRANCH  16  17
ENDBRANCH   4  16
TORSDOF 5
ENDMDL
MODEL 9
REMARK VINA RESULT:      -6.0     26.526     27.939
REMARK  Name = 26744244
REMARK  5 active torsions:
REMARK  status: ('A' for Active; 'I' for Inactive)
REMARK    1  A    between atoms: O_3  and  C_12
REMARK    2  A    between atoms: N_4  and  C_16
REMARK    3  A    between atoms: C_7  and  C_14
REMARK    4  A    between atoms: C_8  and  C_15
REMARK    5  A    between atoms: C_16  and  C_17
REMARK                            x       y       z     vdW  Elec       q    Type
REMARK                         _______ _______ _______ _____ _____    ______ ____
ROOT
ATOM      4  N   UNL     1      -3.298 -11.811  14.178  0.00  0.00    -0.285 NA
ATOM      8  C   UNL     1      -2.299 -11.873  13.092  0.00  0.00    +0.149 C 
ATOM     11  C   UNL     1      -2.399 -13.309  12.546  0.00  0.00    +0.061 C 
ATOM     12  C   UNL     1      -3.446 -13.991  13.419  0.00  0.00    +0.130 C 
ATOM     13  C   UNL     1      -3.431 -13.172  14.695  0.00  0.00    +0.116 C 
ENDROOT
BRANCH   8  15
ATOM      2  O   UNL     1      -1.467 -10.054  11.686  0.00  0.00    -0.336 OA
ATOM      5  N   UNL     1      -3.630 -10.540  11.367  0.00  0.00    -0.194 NA
ATOM      6  N   UNL     1      -1.923  -9.173  10.698  0.00  0.00    -0.061 NA
ATOM     14  C   UNL     1      -3.205  -9.522  10.564  0.00  0.00    +0.175 A 
ATOM     15  C   UNL     1      -2.534 -10.824  12.025  0.00  0.00    +0.245 A 
BRANCH  14   7
ATOM      7  C   UNL     1      -4.138  -8.821   9.572  0.00  0.00    +0.060 C 
ATOM      9  C   UNL     1      -5.589  -9.200   9.556  0.00  0.00    +0.012 C 
ATOM     10  C   UNL     1      -4.694  -9.612   8.425  0.00  0.00    +0.012 C 
ENDBRANCH  14   7
ENDBRANCH   8  15
BRANCH  12   3
ATOM      3  O   UNL     1      -3.098 -15.342  13.657  0.00  0.00    -0.390 OA
ATOM     23  H   UNL     1      -3.000 -15.453  14.618  0.00  0.00    +0.210 HD
ENDBRANCH  12   3
BRANCH   4  16
ATOM     16  C   UNL     1      -2.950 -10.859  15.226  0.00  0.00    +0.120 C 
BRANCH  16  17
ATOM      1 CL   UNL     1      -7.202 -10.540  19.471  0.00  0.00    -0.084 Cl
ATOM     17  C   UNL     1      -4.015 -10.780  16.288  0.00  0.00    -0.033 A 
ATOM     18  C   UNL     1      -3.787 -11.337  17.545  0.00  0.00    +0.006 A 
ATOM     19  C   UNL     1      -5.228 -10.149  16.013  0.00  0.00    +0.006 A 
ATOM     20  C   UNL     1      -4.773 -11.264  18.530  0.00  0.00    +0.020 A 
ATOM     21  C   UNL     1      -6.214 -10.076  16.997  0.00  0.00    +0.020 A 
ATOM     22  C   UNL     1      -5.987 -10.633  18.255  0.00  0.00    +0.041 A 
ENDBRANCH  16  17
ENDBRANCH   4  16
TORSDOF 5
ENDMDL
MODEL 10
REMARK VINA RESULT:      -6.0      2.323      2.909
REMARK  Name = 26744244
REMARK  5 active torsions:
REMARK  status: ('A' for Active; 'I' for Inactive)
REMARK    1  A    between atoms: O_3  and  C_12
REMARK    2  A    between atoms: N_4  and  C_16
REMARK    3  A    between atoms: C_7  and  C_14
REMARK    4  A    between atoms: C_8  and  C_15
REMARK    5  A    between atoms: C_16  and  C_17
REMARK                            x       y       z     vdW  Elec       q    Type
REMARK                         _______ _______ _______ _____ _____    ______ ____
ROOT
ATOM      4  N   UNL     1      13.255   7.906  19.247  0.00  0.00    -0.285 NA
ATOM      8  C   UNL     1      14.006   9.178  19.245  0.00  0.00    +0.149 C 
ATOM     11  C   UNL     1      13.929   9.678  17.791  0.00  0.00    +0.061 C 
ATOM     12  C   UNL     1      13.155   8.599  17.043  0.00  0.00    +0.130 C 
ATOM     13  C   UNL     1      13.360   7.361  17.895  0.00  0.00    +0.116 C 
ENDROOT
BRANCH   8  15
ATOM      2  O   UNL     1      14.351  11.046  20.783  0.00  0.00    -0.336 OA
ATOM      5  N   UNL     1      12.230  10.341  20.662  0.00  0.00    -0.194 NA
ATOM      6  N   UNL     1      13.620  11.861  21.656  0.00  0.00    -0.061 NA
ATOM     14  C   UNL     1      12.379  11.384  21.529  0.00  0.00    +0.175 A 
ATOM     15  C   UNL     1      13.458  10.179  20.239  0.00  0.00    +0.245 A 
BRANCH  14   7
ATOM      7  C   UNL     1      11.200  11.973  22.309  0.00  0.00    +0.060 C 
ATOM      9  C   UNL     1      11.475  12.692  23.597  0.00  0.00    +0.012 C 
ATOM     10  C   UNL     1      10.816  11.345  23.617  0.00  0.00    +0.012 C 
ENDBRANCH  14   7
ENDBRANCH   8  15
BRANCH  12   3
ATOM      3  O   UNL     1      13.669   8.428  15.736  0.00  0.00    -0.390 OA
ATOM     23  H   UNL     1      14.323   9.133  15.585  0.00  0.00    +0.210 HD
ENDBRANCH  12   3
BRANCH   4  16
ATOM     16  C   UNL     1      13.724   6.963  20.255  0.00  0.00    +0.120 C 
BRANCH  16  17
ATOM      1 CL   UNL     1      19.731   6.737  20.484  0.00  0.00    -0.084 Cl
ATOM     17  C   UNL     1      15.227   6.905  20.313  0.00  0.00    -0.033 A 
ATOM     18  C   UNL     1      15.937   6.229  19.322  0.00  0.00    +0.006 A 
ATOM     19  C   UNL     1      15.909   7.530  21.358  0.00  0.00    +0.006 A 
ATOM     20  C   UNL     1      17.331   6.176  19.376  0.00  0.00    +0.020 A 
ATOM     21  C   UNL     1      17.302   7.477  21.411  0.00  0.00    +0.020 A 
ATOM     22  C   UNL     1      18.012   6.800  20.421  0.00  0.00    +0.041 A 
ENDBRANCH  16  17
ENDBRANCH   4  16
TORSDOF 5
ENDMDL
