MODEL 1
REMARK VINA RESULT:      -6.9      0.000      0.000
REMARK  Name = 45784182
REMARK  4 active torsions:
REMARK  status: ('A' for Active; 'I' for Inactive)
REMARK    1  A    between atoms: N_2  and  C_8
REMARK    2  A    between atoms: C_4  and  C_9
REMARK    3  A    between atoms: C_8  and  C_10
REMARK    4  A    between atoms: C_17  and  C_22
REMARK                            x       y       z     vdW  Elec       q    Type
REMARK                         _______ _______ _______ _____ _____    ______ ____
ROOT
ATOM      2  N   UNL     1      11.763   8.893  21.376  0.00  0.00    -0.297 NA
ATOM      4  C   UNL     1      13.643   8.349  20.085  0.00  0.00    +0.090 C 
ATOM      5  C   UNL     1      12.507   7.355  19.783  0.00  0.00    +0.029 C 
ATOM      6  C   UNL     1      13.220   9.039  21.388  0.00  0.00    +0.097 C 
ATOM      7  C   UNL     1      11.526   7.517  20.937  0.00  0.00    +0.085 C 
ENDROOT
BRANCH   4   9
ATOM      1  O   UNL     1      15.334   6.845  19.179  0.00  0.00    -0.439 OA
ATOM      3  N   UNL     1      15.958   7.939  21.063  0.00  0.00    -0.213 NA
ATOM      9  C   UNL     1      15.021   7.731  20.165  0.00  0.00    +0.201 A 
ATOM     11  C   UNL     1      16.983   7.124  20.645  0.00  0.00    +0.110 A 
ATOM     12  C   UNL     1      16.604   6.453  19.492  0.00  0.00    +0.155 A 
ATOM     15  C   UNL     1      18.260   6.892  21.177  0.00  0.00    +0.035 A 
ATOM     16  C   UNL     1      17.404   5.549  18.804  0.00  0.00    +0.049 A 
ATOM     17  C   UNL     1      19.096   5.985  20.510  0.00  0.00    -0.048 A 
ATOM     18  C   UNL     1      18.674   5.328  19.346  0.00  0.00    +0.007 A 
ATOM     22  C   UNL     1      20.462   5.716  21.051  0.00  0.00    +0.044 C 
ENDBRANCH   4   9
BRANCH   2   8
ATOM      8  C   UNL     1      11.166   9.170  22.674  0.00  0.00    +0.119 C 
BRANCH   8  10
ATOM     10  C   UNL     1      11.061  10.649  22.938  0.00  0.00    -0.033 A 
ATOM     13  C   UNL     1      11.101  11.551  21.875  0.00  0.00    +0.005 A 
ATOM     14  C   UNL     1      10.925  11.116  24.245  0.00  0.00    +0.005 A 
ATOM     19  C   UNL     1      11.004  12.921  22.119  0.00  0.00    +0.000 A 
ATOM     20  C   UNL     1      10.827  12.485  24.489  0.00  0.00    +0.000 A 
ATOM     21  C   UNL     1      10.867  13.388  23.427  0.00  0.00    +0.000 A 
ENDBRANCH   8  10
ENDBRANCH   2   8
TORSDOF 3
ENDMDL
MODEL 2
REMARK VINA RESULT:      -6.8     17.398     20.356
REMARK  Name = 45784182
REMARK  4 active torsions:
REMARK  status: ('A' for Active; 'I' for Inactive)
REMARK    1  A    between atoms: N_2  and  C_8
REMARK    2  A    between atoms: C_4  and  C_9
REMARK    3  A    between atoms: C_8  and  C_10
REMARK    4  A    between atoms: C_17  and  C_22
REMARK                            x       y       z     vdW  Elec       q    Type
REMARK                         _______ _______ _______ _____ _____    ______ ____
ROOT
ATOM      2  N   UNL     1      11.809   4.553   1.207  0.00  0.00    -0.297 NA
ATOM      4  C   UNL     1      10.338   5.344   2.853  0.00  0.00    +0.090 C 
ATOM      5  C   UNL     1      11.224   6.500   2.357  0.00  0.00    +0.029 C 
ATOM      6  C   UNL     1      11.044   4.074   2.361  0.00  0.00    +0.097 C 
ATOM      7  C   UNL     1      12.387   5.825   1.641  0.00  0.00    +0.085 C 
ENDROOT
BRANCH   4   9
ATOM      1  O   UNL     1       9.665   6.516   4.882  0.00  0.00    -0.439 OA
ATOM      3  N   UNL     1      10.209   4.338   5.189  0.00  0.00    -0.213 NA
ATOM      9  C   UNL     1      10.082   5.336   4.344  0.00  0.00    +0.201 A 
ATOM     11  C   UNL     1       9.848   4.895   6.393  0.00  0.00    +0.110 A 
ATOM     12  C   UNL     1       9.515   6.228   6.208  0.00  0.00    +0.155 A 
ATOM     15  C   UNL     1       9.774   4.349   7.682  0.00  0.00    +0.035 A 
ATOM     16  C   UNL     1       9.103   7.088   7.219  0.00  0.00    +0.049 A 
ATOM     17  C   UNL     1       9.363   5.187   8.729  0.00  0.00    -0.048 A 
ATOM     18  C   UNL     1       9.035   6.529   8.499  0.00  0.00    +0.007 A 
ATOM     22  C   UNL     1       9.274   4.636  10.115  0.00  0.00    +0.044 C 
ENDBRANCH   4   9
BRANCH   2   8
ATOM      8  C   UNL     1      12.823   3.602   0.780  0.00  0.00    +0.119 C 
BRANCH   8  10
ATOM     10  C   UNL     1      12.942   3.546  -0.720  0.00  0.00    -0.033 A 
ATOM     13  C   UNL     1      12.115   2.696  -1.453  0.00  0.00    +0.005 A 
ATOM     14  C   UNL     1      13.881   4.343  -1.375  0.00  0.00    +0.005 A 
ATOM     19  C   UNL     1      12.225   2.644  -2.843  0.00  0.00    +0.000 A 
ATOM     20  C   UNL     1      13.990   4.291  -2.765  0.00  0.00    +0.000 A 
ATOM     21  C   UNL     1      13.163   3.441  -3.498  0.00  0.00    +0.000 A 
ENDBRANCH   8  10
ENDBRANCH   2   8
TORSDOF 3
ENDMDL
MODEL 3
REMARK VINA RESULT:      -6.8     26.324     28.681
REMARK  Name = 45784182
REMARK  4 active torsions:
REMARK  status: ('A' for Active; 'I' for Inactive)
REMARK    1  A    between atoms: N_2  and  C_8
REMARK    2  A    between atoms: C_4  and  C_9
REMARK    3  A    between atoms: C_8  and  C_10
REMARK    4  A    between atoms: C_17  and  C_22
REMARK                            x       y       z     vdW  Elec       q    Type
REMARK                         _______ _______ _______ _____ _____    ______ ____
ROOT
ATOM      2  N   UNL     1      -2.158 -11.035  13.679  0.00  0.00    -0.297 NA
ATOM      4  C   UNL     1      -3.273 -10.183  15.558  0.00  0.00    +0.090 C 
ATOM      5  C   UNL     1      -1.965 -10.863  16.000  0.00  0.00    +0.029 C 
ATOM      6  C   UNL     1      -3.508 -10.686  14.127  0.00  0.00    +0.097 C 
ATOM      7  C   UNL     1      -1.550 -11.727  14.816  0.00  0.00    +0.085 C 
ENDROOT
BRANCH   4   9
ATOM      1  O   UNL     1      -4.258 -11.335  17.467  0.00  0.00    -0.439 OA
ATOM      3  N   UNL     1      -5.647  -9.877  16.427  0.00  0.00    -0.213 NA
ATOM      9  C   UNL     1      -4.454 -10.427  16.470  0.00  0.00    +0.201 A 
ATOM     11  C   UNL     1      -6.304 -10.464  17.481  0.00  0.00    +0.110 A 
ATOM     12  C   UNL     1      -5.457 -11.357  18.120  0.00  0.00    +0.155 A 
ATOM     15  C   UNL     1      -7.610 -10.302  17.967  0.00  0.00    +0.035 A 
ATOM     16  C   UNL     1      -5.803 -12.122  19.227  0.00  0.00    +0.049 A 
ATOM     17  C   UNL     1      -7.997 -11.058  19.083  0.00  0.00    -0.048 A 
ATOM     18  C   UNL     1      -7.109 -11.949  19.699  0.00  0.00    +0.007 A 
ATOM     22  C   UNL     1      -9.380 -10.908  19.624  0.00  0.00    +0.044 C 
ENDBRANCH   4   9
BRANCH   2   8
ATOM      8  C   UNL     1      -2.166 -11.852  12.475  0.00  0.00    +0.119 C 
BRANCH   8  10
ATOM     10  C   UNL     1      -2.856 -11.156  11.332  0.00  0.00    -0.033 A 
ATOM     13  C   UNL     1      -3.790 -11.844  10.558  0.00  0.00    +0.005 A 
ATOM     14  C   UNL     1      -2.560  -9.823  11.046  0.00  0.00    +0.005 A 
ATOM     19  C   UNL     1      -4.430 -11.200   9.499  0.00  0.00    +0.000 A 
ATOM     20  C   UNL     1      -3.200  -9.179   9.987  0.00  0.00    +0.000 A 
ATOM     21  C   UNL     1      -4.134  -9.867   9.213  0.00  0.00    +0.000 A 
ENDBRANCH   8  10
ENDBRANCH   2   8
TORSDOF 3
ENDMDL
MODEL 4
REMARK VINA RESULT:      -6.6     26.223     29.385
REMARK  Name = 45784182
REMARK  4 active torsions:
REMARK  status: ('A' for Active; 'I' for Inactive)
REMARK    1  A    between atoms: N_2  and  C_8
REMARK    2  A    between atoms: C_4  and  C_9
REMARK    3  A    between atoms: C_8  and  C_10
REMARK    4  A    between atoms: C_17  and  C_22
REMARK                            x       y       z     vdW  Elec       q    Type
REMARK                         _______ _______ _______ _____ _____    ______ ____
ROOT
ATOM      2  N   UNL     1     -13.251   7.004  20.879  0.00  0.00    -0.297 NA
ATOM      4  C   UNL     1     -14.857   5.424  21.529  0.00  0.00    +0.090 C 
ATOM      5  C   UNL     1     -15.536   6.788  21.310  0.00  0.00    +0.029 C 
ATOM      6  C   UNL     1     -13.360   5.746  21.620  0.00  0.00    +0.097 C 
ATOM      7  C   UNL     1     -14.398   7.799  21.318  0.00  0.00    +0.085 C 
ENDROOT
BRANCH   4   9
ATOM      1  O   UNL     1     -16.261   3.655  22.446  0.00  0.00    -0.439 OA
ATOM      3  N   UNL     1     -15.059   4.799  23.989  0.00  0.00    -0.213 NA
ATOM      9  C   UNL     1     -15.367   4.645  22.721  0.00  0.00    +0.201 A 
ATOM     11  C   UNL     1     -15.809   3.833  24.616  0.00  0.00    +0.110 A 
ATOM     12  C   UNL     1     -16.546   3.131  23.674  0.00  0.00    +0.155 A 
ATOM     15  C   UNL     1     -15.927   3.482  25.968  0.00  0.00    +0.035 A 
ATOM     16  C   UNL     1     -17.411   2.084  23.966  0.00  0.00    +0.049 A 
ATOM     17  C   UNL     1     -16.791   2.430  26.303  0.00  0.00    -0.048 A 
ATOM     18  C   UNL     1     -17.518   1.746  25.320  0.00  0.00    +0.007 A 
ATOM     22  C   UNL     1     -16.939   2.032  27.735  0.00  0.00    +0.044 C 
ENDBRANCH   4   9
BRANCH   2   8
ATOM      8  C   UNL     1     -11.985   7.681  21.117  0.00  0.00    +0.119 C 
BRANCH   8  10
ATOM     10  C   UNL     1     -11.352   8.152  19.834  0.00  0.00    -0.033 A 
ATOM     13  C   UNL     1     -10.709   9.388  19.787  0.00  0.00    +0.005 A 
ATOM     14  C   UNL     1     -11.411   7.352  18.693  0.00  0.00    +0.005 A 
ATOM     19  C   UNL     1     -10.123   9.825  18.599  0.00  0.00    +0.000 A 
ATOM     20  C   UNL     1     -10.824   7.789  17.505  0.00  0.00    +0.000 A 
ATOM     21  C   UNL     1     -10.181   9.025  17.458  0.00  0.00    +0.000 A 
ENDBRANCH   8  10
ENDBRANCH   2   8
TORSDOF 3
ENDMDL
MODEL 5
REMARK VINA RESULT:      -6.6     27.051     29.516
REMARK  Name = 45784182
REMARK  4 active torsions:
REMARK  status: ('A' for Active; 'I' for Inactive)
REMARK    1  A    between atoms: N_2  and  C_8
REMARK    2  A    between atoms: C_4  and  C_9
REMARK    3  A    between atoms: C_8  and  C_10
REMARK    4  A    between atoms: C_17  and  C_22
REMARK                            x       y       z     vdW  Elec       q    Type
REMARK                         _______ _______ _______ _____ _____    ______ ____
ROOT
ATOM      2  N   UNL     1      -4.265 -10.616  14.679  0.00  0.00    -0.297 NA
ATOM      4  C   UNL     1      -5.601  -9.626  16.332  0.00  0.00    +0.090 C 
ATOM      5  C   UNL     1      -4.459 -10.413  16.997  0.00  0.00    +0.029 C 
ATOM      6  C   UNL     1      -5.633 -10.135  14.885  0.00  0.00    +0.097 C 
ATOM      7  C   UNL     1      -3.931 -11.337  15.907  0.00  0.00    +0.085 C 
ENDROOT
BRANCH   4   9
ATOM      1  O   UNL     1      -7.002 -10.634  18.053  0.00  0.00    -0.439 OA
ATOM      3  N   UNL     1      -8.052  -9.089  16.770  0.00  0.00    -0.213 NA
ATOM      9  C   UNL     1      -6.940  -9.741  17.027  0.00  0.00    +0.201 A 
ATOM     11  C   UNL     1      -8.932  -9.588  17.700  0.00  0.00    +0.110 A 
ATOM     12  C   UNL     1      -8.293 -10.533  18.487  0.00  0.00    +0.155 A 
ATOM     15  C   UNL     1     -10.282  -9.298  17.949  0.00  0.00    +0.035 A 
ATOM     16  C   UNL     1      -8.893 -11.235  19.526  0.00  0.00    +0.049 A 
ATOM     17  C   UNL     1     -10.922  -9.987  18.990  0.00  0.00    -0.048 A 
ATOM     18  C   UNL     1     -10.239 -10.935  19.761  0.00  0.00    +0.007 A 
ATOM     22  C   UNL     1     -12.359  -9.701  19.280  0.00  0.00    +0.044 C 
ENDBRANCH   4   9
BRANCH   2   8
ATOM      8  C   UNL     1      -4.144 -11.454  13.496  0.00  0.00    +0.119 C 
BRANCH   8  10
ATOM     10  C   UNL     1      -3.847 -10.643  12.262  0.00  0.00    -0.033 A 
ATOM     13  C   UNL     1      -2.536 -10.263  11.977  0.00  0.00    +0.005 A 
ATOM     14  C   UNL     1      -4.883 -10.270  11.406  0.00  0.00    +0.005 A 
ATOM     19  C   UNL     1      -2.260  -9.511  10.835  0.00  0.00    +0.000 A 
ATOM     20  C   UNL     1      -4.608  -9.519  10.264  0.00  0.00    +0.000 A 
ATOM     21  C   UNL     1      -3.297  -9.139   9.979  0.00  0.00    +0.000 A 
ENDBRANCH   8  10
ENDBRANCH   2   8
TORSDOF 3
ENDMDL
MODEL 6
REMARK VINA RESULT:      -6.4     14.141     16.963
REMARK  Name = 45784182
REMARK  4 active torsions:
REMARK  status: ('A' for Active; 'I' for Inactive)
REMARK    1  A    between atoms: N_2  and  C_8
REMARK    2  A    between atoms: C_4  and  C_9
REMARK    3  A    between atoms: C_8  and  C_10
REMARK    4  A    between atoms: C_17  and  C_22
REMARK                            x       y       z     vdW  Elec       q    Type
REMARK                         _______ _______ _______ _____ _____    ______ ____
ROOT
ATOM      2  N   UNL     1      16.438   9.194   5.199  0.00  0.00    -0.297 NA
ATOM      4  C   UNL     1      14.459   7.972   4.900  0.00  0.00    +0.090 C 
ATOM      5  C   UNL     1      14.223   9.438   4.498  0.00  0.00    +0.029 C 
ATOM      6  C   UNL     1      15.767   7.994   5.703  0.00  0.00    +0.097 C 
ATOM      7  C   UNL     1      15.385  10.207   5.114  0.00  0.00    +0.085 C 
ENDROOT
BRANCH   4   9
ATOM      1  O   UNL     1      12.295   6.850   4.888  0.00  0.00    -0.439 OA
ATOM      3  N   UNL     1      13.178   7.170   6.950  0.00  0.00    -0.213 NA
ATOM      9  C   UNL     1      13.316   7.329   5.652  0.00  0.00    +0.201 A 
ATOM     11  C   UNL     1      11.965   6.534   7.064  0.00  0.00    +0.110 A 
ATOM     12  C   UNL     1      11.423   6.336   5.804  0.00  0.00    +0.155 A 
ATOM     15  C   UNL     1      11.253   6.089   8.187  0.00  0.00    +0.035 A 
ATOM     16  C   UNL     1      10.203   5.719   5.555  0.00  0.00    +0.049 A 
ATOM     17  C   UNL     1      10.016   5.462   7.977  0.00  0.00    -0.048 A 
ATOM     18  C   UNL     1       9.504   5.281   6.686  0.00  0.00    +0.007 A 
ATOM     22  C   UNL     1       9.233   4.977   9.152  0.00  0.00    +0.044 C 
ENDBRANCH   4   9
BRANCH   2   8
ATOM      8  C   UNL     1      17.541   9.612   6.051  0.00  0.00    +0.119 C 
BRANCH   8  10
ATOM     10  C   UNL     1      18.776   8.784   5.814  0.00  0.00    -0.033 A 
ATOM     13  C   UNL     1      19.704   8.608   6.840  0.00  0.00    +0.005 A 
ATOM     14  C   UNL     1      18.992   8.194   4.569  0.00  0.00    +0.005 A 
ATOM     19  C   UNL     1      20.849   7.841   6.621  0.00  0.00    +0.000 A 
ATOM     20  C   UNL     1      20.136   7.427   4.351  0.00  0.00    +0.000 A 
ATOM     21  C   UNL     1      21.065   7.251   5.376  0.00  0.00    +0.000 A 
ENDBRANCH   8  10
ENDBRANCH   2   8
TORSDOF 3
ENDMDL
MODEL 7
REMARK VINA RESULT:      -6.4     18.224     20.092
REMARK  Name = 45784182
REMARK  4 active torsions:
REMARK  status: ('A' for Active; 'I' for Inactive)
REMARK    1  A    between atoms: N_2  and  C_8
REMARK    2  A    between atoms: C_4  and  C_9
REMARK    3  A    between atoms: C_8  and  C_10
REMARK    4  A    between atoms: C_17  and  C_22
REMARK                            x       y       z     vdW  Elec       q    Type
REMARK                         _______ _______ _______ _____ _____    ______ ____
ROOT
ATOM      2  N   UNL     1      10.728   5.387   4.197  0.00  0.00    -0.297 NA
ATOM      4  C   UNL     1      12.038   4.578   2.428  0.00  0.00    +0.090 C 
ATOM      5  C   UNL     1      12.491   6.003   2.794  0.00  0.00    +0.029 C 
ATOM      6  C   UNL     1      10.665   4.423   3.096  0.00  0.00    +0.097 C 
ATOM      7  C   UNL     1      11.347   6.579   3.618  0.00  0.00    +0.085 C 
ENDROOT
BRANCH   4   9
ATOM      1  O   UNL     1      10.910   4.725   0.272  0.00  0.00    -0.439 OA
ATOM      3  N   UNL     1      12.907   3.656   0.219  0.00  0.00    -0.213 NA
ATOM      9  C   UNL     1      12.009   4.283   0.945  0.00  0.00    +0.201 A 
ATOM     11  C   UNL     1      12.365   3.679  -1.044  0.00  0.00    +0.110 A 
ATOM     12  C   UNL     1      11.143   4.333  -1.014  0.00  0.00    +0.155 A 
ATOM     15  C   UNL     1      12.836   3.174  -2.265  0.00  0.00    +0.035 A 
ATOM     16  C   UNL     1      10.326   4.534  -2.121  0.00  0.00    +0.049 A 
ATOM     17  C   UNL     1      12.039   3.358  -3.404  0.00  0.00    -0.048 A 
ATOM     18  C   UNL     1      10.809   4.025  -3.331  0.00  0.00    +0.007 A 
ATOM     22  C   UNL     1      12.512   2.832  -4.720  0.00  0.00    +0.044 C 
ENDBRANCH   4   9
BRANCH   2   8
ATOM      8  C   UNL     1       9.418   5.664   4.766  0.00  0.00    +0.119 C 
BRANCH   8  10
ATOM     10  C   UNL     1       9.428   5.562   6.269  0.00  0.00    -0.033 A 
ATOM     13  C   UNL     1       9.028   6.650   7.044  0.00  0.00    +0.005 A 
ATOM     14  C   UNL     1       9.836   4.379   6.884  0.00  0.00    +0.005 A 
ATOM     19  C   UNL     1       9.037   6.556   8.436  0.00  0.00    +0.000 A 
ATOM     20  C   UNL     1       9.845   4.285   8.276  0.00  0.00    +0.000 A 
ATOM     21  C   UNL     1       9.446   5.373   9.052  0.00  0.00    +0.000 A 
ENDBRANCH   8  10
ENDBRANCH   2   8
TORSDOF 3
ENDMDL
MODEL 8
REMARK VINA RESULT:      -6.4     30.338     31.840
REMARK  Name = 45784182
REMARK  4 active torsions:
REMARK  status: ('A' for Active; 'I' for Inactive)
REMARK    1  A    between atoms: N_2  and  C_8
REMARK    2  A    between atoms: C_4  and  C_9
REMARK    3  A    between atoms: C_8  and  C_10
REMARK    4  A    between atoms: C_17  and  C_22
REMARK                            x       y       z     vdW  Elec       q    Type
REMARK                         _______ _______ _______ _____ _____    ______ ____
ROOT
ATOM      2  N   UNL     1     -14.379   2.225  31.129  0.00  0.00    -0.297 NA
ATOM      4  C   UNL     1     -15.993   1.521  29.580  0.00  0.00    +0.090 C 
ATOM      5  C   UNL     1     -15.093   0.332  29.962  0.00  0.00    +0.029 C 
ATOM      6  C   UNL     1     -15.224   2.760  30.059  0.00  0.00    +0.097 C 
ATOM      7  C   UNL     1     -13.863   0.961  30.604  0.00  0.00    +0.085 C 
ENDROOT
BRANCH   4   9
ATOM      1  O   UNL     1     -15.942   2.695  27.445  0.00  0.00    -0.439 OA
ATOM      3  N   UNL     1     -17.051   0.719  27.407  0.00  0.00    -0.213 NA
ATOM      9  C   UNL     1     -16.367   1.589  28.117  0.00  0.00    +0.201 A 
ATOM     11  C   UNL     1     -17.086   1.289  26.157  0.00  0.00    +0.110 A 
ATOM     12  C   UNL     1     -16.408   2.499  26.177  0.00  0.00    +0.155 A 
ATOM     15  C   UNL     1     -17.666   0.856  24.956  0.00  0.00    +0.035 A 
ATOM     16  C   UNL     1     -16.252   3.337  25.079  0.00  0.00    +0.049 A 
ATOM     17  C   UNL     1     -17.529   1.675  23.825  0.00  0.00    -0.048 A 
ATOM     18  C   UNL     1     -16.835   2.891  23.889  0.00  0.00    +0.007 A 
ATOM     22  C   UNL     1     -18.135   1.242  22.531  0.00  0.00    +0.044 C 
ENDBRANCH   4   9
BRANCH   2   8
ATOM      8  C   UNL     1     -13.315   3.143  31.506  0.00  0.00    +0.119 C 
BRANCH   8  10
ATOM     10  C   UNL     1     -13.766   4.122  32.558  0.00  0.00    -0.033 A 
ATOM     13  C   UNL     1     -13.651   5.493  32.329  0.00  0.00    +0.005 A 
ATOM     14  C   UNL     1     -14.299   3.657  33.760  0.00  0.00    +0.005 A 
ATOM     19  C   UNL     1     -14.069   6.400  33.304  0.00  0.00    +0.000 A 
ATOM     20  C   UNL     1     -14.717   4.564  34.734  0.00  0.00    +0.000 A 
ATOM     21  C   UNL     1     -14.602   5.935  34.506  0.00  0.00    +0.000 A 
ENDBRANCH   8  10
ENDBRANCH   2   8
TORSDOF 3
ENDMDL
MODEL 9
REMARK VINA RESULT:      -6.3     28.297     30.528
REMARK  Name = 45784182
REMARK  4 active torsions:
REMARK  status: ('A' for Active; 'I' for Inactive)
REMARK    1  A    between atoms: N_2  and  C_8
REMARK    2  A    between atoms: C_4  and  C_9
REMARK    3  A    between atoms: C_8  and  C_10
REMARK    4  A    between atoms: C_17  and  C_22
REMARK                            x       y       z     vdW  Elec       q    Type
REMARK                         _______ _______ _______ _____ _____    ______ ____
ROOT
ATOM      2  N   UNL     1       0.606   2.210  -6.394  0.00  0.00    -0.297 NA
ATOM      4  C   UNL     1       1.522   4.319  -5.934  0.00  0.00    +0.090 C 
ATOM      5  C   UNL     1       1.697   3.997  -7.429  0.00  0.00    +0.029 C 
ATOM      6  C   UNL     1       1.182   2.972  -5.284  0.00  0.00    +0.097 C 
ATOM      7  C   UNL     1       1.475   2.494  -7.536  0.00  0.00    +0.085 C 
ENDROOT
BRANCH   4   9
ATOM      1  O   UNL     1       3.912   4.794  -5.890  0.00  0.00    -0.439 OA
ATOM      3  N   UNL     1       2.726   5.773  -4.225  0.00  0.00    -0.213 NA
ATOM      9  C   UNL     1       2.707   5.003  -5.290  0.00  0.00    +0.201 A 
ATOM     11  C   UNL     1       4.054   6.108  -4.101  0.00  0.00    +0.110 A 
ATOM     12  C   UNL     1       4.782   5.511  -5.118  0.00  0.00    +0.155 A 
ATOM     15  C   UNL     1       4.725   6.906  -3.164  0.00  0.00    +0.035 A 
ATOM     16  C   UNL     1       6.155   5.641  -5.291  0.00  0.00    +0.049 A 
ATOM     17  C   UNL     1       6.112   7.062  -3.305  0.00  0.00    -0.048 A 
ATOM     18  C   UNL     1       6.810   6.441  -4.348  0.00  0.00    +0.007 A 
ATOM     22  C   UNL     1       6.856   7.906  -2.323  0.00  0.00    +0.044 C 
ENDBRANCH   4   9
BRANCH   2   8
ATOM      8  C   UNL     1       0.520   0.787  -6.105  0.00  0.00    +0.119 C 
BRANCH   8  10
ATOM     10  C   UNL     1      -0.767   0.190  -6.611  0.00  0.00    -0.033 A 
ATOM     13  C   UNL     1      -1.595   0.930  -7.454  0.00  0.00    +0.005 A 
ATOM     14  C   UNL     1      -1.131  -1.103  -6.234  0.00  0.00    +0.005 A 
ATOM     19  C   UNL     1      -2.788   0.377  -7.922  0.00  0.00    +0.000 A 
ATOM     20  C   UNL     1      -2.323  -1.656  -6.702  0.00  0.00    +0.000 A 
ATOM     21  C   UNL     1      -3.151  -0.916  -7.545  0.00  0.00    +0.000 A 
ENDBRANCH   8  10
ENDBRANCH   2   8
TORSDOF 3
ENDMDL
MODEL 10
REMARK VINA RESULT:      -6.2     26.796     30.025
REMARK  Name = 45784182
REMARK  4 active torsions:
REMARK  status: ('A' for Active; 'I' for Inactive)
REMARK    1  A    between atoms: N_2  and  C_8
REMARK    2  A    between atoms: C_4  and  C_9
REMARK    3  A    between atoms: C_8  and  C_10
REMARK    4  A    between atoms: C_17  and  C_22
REMARK                            x       y       z     vdW  Elec       q    Type
REMARK                         _______ _______ _______ _____ _____    ______ ____
ROOT
ATOM      2  N   UNL     1      -4.889 -11.615  17.480  0.00  0.00    -0.297 NA
ATOM      4  C   UNL     1      -6.625 -10.549  18.640  0.00  0.00    +0.090 C 
ATOM      5  C   UNL     1      -6.110 -11.740  19.467  0.00  0.00    +0.029 C 
ATOM      6  C   UNL     1      -6.068 -10.785  17.229  0.00  0.00    +0.097 C 
ATOM      7  C   UNL     1      -5.321 -12.591  18.480  0.00  0.00    +0.085 C 
ENDROOT
BRANCH   4   9
ATOM      1  O   UNL     1      -8.767 -10.823  19.770  0.00  0.00    -0.439 OA
ATOM      3  N   UNL     1      -8.894  -9.821  17.741  0.00  0.00    -0.213 NA
ATOM      9  C   UNL     1      -8.126 -10.365  18.658  0.00  0.00    +0.201 A 
ATOM     11  C   UNL     1     -10.153  -9.923  18.282  0.00  0.00    +0.110 A 
ATOM     12  C   UNL     1     -10.079 -10.535  19.524  0.00  0.00    +0.155 A 
ATOM     15  C   UNL     1     -11.407  -9.525  17.795  0.00  0.00    +0.035 A 
ATOM     16  C   UNL     1     -11.170 -10.794  20.345  0.00  0.00    +0.049 A 
ATOM     17  C   UNL     1     -12.532  -9.770  18.596  0.00  0.00    -0.048 A 
ATOM     18  C   UNL     1     -12.413 -10.392  19.845  0.00  0.00    +0.007 A 
ATOM     22  C   UNL     1     -13.882  -9.359  18.105  0.00  0.00    +0.044 C 
ENDBRANCH   4   9
BRANCH   2   8
ATOM      8  C   UNL     1      -4.389 -12.249  16.269  0.00  0.00    +0.119 C 
BRANCH   8  10
ATOM     10  C   UNL     1      -3.305 -11.432  15.616  0.00  0.00    -0.033 A 
ATOM     13  C   UNL     1      -3.352 -11.181  14.245  0.00  0.00    +0.005 A 
ATOM     14  C   UNL     1      -2.255 -10.927  16.382  0.00  0.00    +0.005 A 
ATOM     19  C   UNL     1      -2.348 -10.424  13.640  0.00  0.00    +0.000 A 
ATOM     20  C   UNL     1      -1.252 -10.170  15.777  0.00  0.00    +0.000 A 
ATOM     21  C   UNL     1      -1.298  -9.919  14.406  0.00  0.00    +0.000 A 
ENDBRANCH   8  10
ENDBRANCH   2   8
TORSDOF 3
ENDMDL
