MODEL 1
REMARK VINA RESULT:      -7.4      0.000      0.000
REMARK  Name = 26743976
REMARK  7 active torsions:
REMARK  status: ('A' for Active; 'I' for Inactive)
REMARK    1  A    between atoms: O_1  and  C_10
REMARK    2  A    between atoms: O_3  and  C_15
REMARK    3  A    between atoms: O_3  and  C_24
REMARK    4  A    between atoms: N_4  and  C_12
REMARK    5  A    between atoms: C_8  and  C_13
REMARK    6  A    between atoms: C_12  and  C_14
REMARK    7  A    between atoms: C_17  and  C_20
REMARK                            x       y       z     vdW  Elec       q    Type
REMARK                         _______ _______ _______ _____ _____    ______ ____
ROOT
ATOM      4  N   UNL     1      13.200   8.008  20.539  0.00  0.00    -0.284 NA
ATOM      8  C   UNL     1      11.897   8.668  20.328  0.00  0.00    +0.149 C 
ATOM      9  C   UNL     1      10.856   7.673  20.875  0.00  0.00    +0.061 C 
ATOM     10  C   UNL     1      11.668   6.465  21.329  0.00  0.00    +0.130 C 
ATOM     11  C   UNL     1      12.944   6.569  20.514  0.00  0.00    +0.116 C 
ENDROOT
BRANCH   8  13
ATOM      2  O   UNL     1      12.305  11.078  20.290  0.00  0.00    -0.336 OA
ATOM      5  N   UNL     1      11.338  10.344  22.172  0.00  0.00    -0.190 NA
ATOM      6  N   UNL     1      12.124  12.205  21.101  0.00  0.00    -0.056 NA
ATOM     13  C   UNL     1      11.815  10.025  20.996  0.00  0.00    +0.245 A 
ATOM     17  C   UNL     1      11.549  11.692  22.191  0.00  0.00    +0.204 A 
BRANCH  17  20
ATOM      7  N   UNL     1      10.501  12.616  25.636  0.00  0.00    -0.263 NA
ATOM     20  C   UNL     1      11.172  12.497  23.318  0.00  0.00    +0.041 A 
ATOM     22  C   UNL     1      11.107  13.882  23.219  0.00  0.00    +0.014 A 
ATOM     23  C   UNL     1      10.863  11.918  24.538  0.00  0.00    +0.122 A 
ATOM     25  C   UNL     1      10.739  14.636  24.329  0.00  0.00    +0.020 A 
ATOM     26  C   UNL     1      10.449  13.961  25.503  0.00  0.00    +0.111 A 
ENDBRANCH  17  20
ENDBRANCH   8  13
BRANCH  10   1
ATOM      1  O   UNL     1      10.971   5.264  21.062  0.00  0.00    -0.390 OA
ATOM     27  H   UNL     1      11.176   4.642  21.781  0.00  0.00    +0.210 HD
ENDBRANCH  10   1
BRANCH   4  12
ATOM     12  C   UNL     1      14.208   8.401  19.563  0.00  0.00    +0.124 C 
BRANCH  12  14
ATOM     14  C   UNL     1      15.518   7.699  19.796  0.00  0.00    +0.008 A 
ATOM     15  C   UNL     1      16.381   8.115  20.811  0.00  0.00    +0.124 A 
ATOM     16  C   UNL     1      15.868   6.621  18.983  0.00  0.00    +0.008 A 
ATOM     18  C   UNL     1      17.592   7.454  21.012  0.00  0.00    +0.046 A 
ATOM     19  C   UNL     1      17.080   5.960  19.184  0.00  0.00    +0.001 A 
ATOM     21  C   UNL     1      17.942   6.376  20.199  0.00  0.00    +0.004 A 
BRANCH  15   3
ATOM      3  O   UNL     1      16.055   9.166  21.614  0.00  0.00    -0.495 OA
ATOM     24  C   UNL     1      17.008  10.223  21.717  0.00  0.00    +0.277 C 
ENDBRANCH  15   3
ENDBRANCH  12  14
ENDBRANCH   4  12
TORSDOF 6
ENDMDL
MODEL 2
REMARK VINA RESULT:      -7.3      3.544      6.734
REMARK  Name = 26743976
REMARK  7 active torsions:
REMARK  status: ('A' for Active; 'I' for Inactive)
REMARK    1  A    between atoms: O_1  and  C_10
REMARK    2  A    between atoms: O_3  and  C_15
REMARK    3  A    between atoms: O_3  and  C_24
REMARK    4  A    between atoms: N_4  and  C_12
REMARK    5  A    between atoms: C_8  and  C_13
REMARK    6  A    between atoms: C_12  and  C_14
REMARK    7  A    between atoms: C_17  and  C_20
REMARK                            x       y       z     vdW  Elec       q    Type
REMARK                         _______ _______ _______ _____ _____    ______ ____
ROOT
ATOM      4  N   UNL     1      12.340   8.650  20.037  0.00  0.00    -0.284 NA
ATOM      8  C   UNL     1      13.125   8.194  21.202  0.00  0.00    +0.149 C 
ATOM      9  C   UNL     1      12.203   7.202  21.935  0.00  0.00    +0.061 C 
ATOM     10  C   UNL     1      10.907   7.202  21.133  0.00  0.00    +0.130 C 
ATOM     11  C   UNL     1      10.933   8.540  20.418  0.00  0.00    +0.116 C 
ENDROOT
BRANCH   8  13
ATOM      2  O   UNL     1      14.421   6.681  19.787  0.00  0.00    -0.336 OA
ATOM      5  N   UNL     1      15.642   7.781  21.308  0.00  0.00    -0.190 NA
ATOM      6  N   UNL     1      15.743   6.254  19.608  0.00  0.00    -0.056 NA
ATOM     13  C   UNL     1      14.451   7.578  20.806  0.00  0.00    +0.245 A 
ATOM     17  C   UNL     1      16.402   6.947  20.540  0.00  0.00    +0.204 A 
BRANCH  17  20
ATOM      7  N   UNL     1      19.849   7.707  21.709  0.00  0.00    -0.263 NA
ATOM     20  C   UNL     1      17.820   6.830  20.732  0.00  0.00    +0.041 A 
ATOM     22  C   UNL     1      18.536   5.782  20.164  0.00  0.00    +0.014 A 
ATOM     23  C   UNL     1      18.517   7.758  21.489  0.00  0.00    +0.122 A 
ATOM     25  C   UNL     1      19.909   5.696  20.368  0.00  0.00    +0.020 A 
ATOM     26  C   UNL     1      20.512   6.674  21.142  0.00  0.00    +0.111 A 
ENDBRANCH  17  20
ENDBRANCH   8  13
BRANCH  10   1
ATOM      1  O   UNL     1       9.787   7.086  21.989  0.00  0.00    -0.390 OA
ATOM     27  H   UNL     1       9.251   6.340  21.669  0.00  0.00    +0.210 HD
ENDBRANCH  10   1
BRANCH   4  12
ATOM     12  C   UNL     1      12.687   9.998  19.604  0.00  0.00    +0.124 C 
BRANCH  12  14
ATOM     14  C   UNL     1      13.193  10.018  18.187  0.00  0.00    +0.008 A 
ATOM     15  C   UNL     1      14.400  10.642  17.870  0.00  0.00    +0.124 A 
ATOM     16  C   UNL     1      12.442   9.405  17.185  0.00  0.00    +0.008 A 
ATOM     18  C   UNL     1      14.855  10.654  16.551  0.00  0.00    +0.046 A 
ATOM     19  C   UNL     1      12.896   9.416  15.867  0.00  0.00    +0.001 A 
ATOM     21  C   UNL     1      14.103  10.040  15.549  0.00  0.00    +0.004 A 
BRANCH  15   3
ATOM      3  O   UNL     1      15.147  11.247  18.836  0.00  0.00    -0.495 OA
ATOM     24  C   UNL     1      16.048  12.269  18.414  0.00  0.00    +0.277 C 
ENDBRANCH  15   3
ENDBRANCH  12  14
ENDBRANCH   4  12
TORSDOF 6
ENDMDL
MODEL 3
REMARK VINA RESULT:      -7.0      3.086      7.884
REMARK  Name = 26743976
REMARK  7 active torsions:
REMARK  status: ('A' for Active; 'I' for Inactive)
REMARK    1  A    between atoms: O_1  and  C_10
REMARK    2  A    between atoms: O_3  and  C_15
REMARK    3  A    between atoms: O_3  and  C_24
REMARK    4  A    between atoms: N_4  and  C_12
REMARK    5  A    between atoms: C_8  and  C_13
REMARK    6  A    between atoms: C_12  and  C_14
REMARK    7  A    between atoms: C_17  and  C_20
REMARK                            x       y       z     vdW  Elec       q    Type
REMARK                         _______ _______ _______ _____ _____    ______ ____
ROOT
ATOM      4  N   UNL     1      14.660   8.652  20.032  0.00  0.00    -0.284 NA
ATOM      8  C   UNL     1      14.761   7.340  19.362  0.00  0.00    +0.149 C 
ATOM      9  C   UNL     1      14.376   7.613  17.896  0.00  0.00    +0.061 C 
ATOM     10  C   UNL     1      14.030   9.097  17.851  0.00  0.00    +0.130 C 
ATOM     11  C   UNL     1      13.664   9.420  19.287  0.00  0.00    +0.116 C 
ENDROOT
BRANCH   8  13
ATOM      2  O   UNL     1      16.490   5.815  18.549  0.00  0.00    -0.336 OA
ATOM      5  N   UNL     1      17.052   6.924  20.411  0.00  0.00    -0.190 NA
ATOM      6  N   UNL     1      17.780   5.386  18.884  0.00  0.00    -0.056 NA
ATOM     13  C   UNL     1      16.136   6.719  19.499  0.00  0.00    +0.245 A 
ATOM     17  C   UNL     1      18.042   6.084  19.992  0.00  0.00    +0.204 A 
BRANCH  17  20
ATOM      7  N   UNL     1      20.694   6.699  22.524  0.00  0.00    -0.263 NA
ATOM     20  C   UNL     1      19.283   5.967  20.703  0.00  0.00    +0.041 A 
ATOM     22  C   UNL     1      20.255   5.057  20.305  0.00  0.00    +0.014 A 
ATOM     23  C   UNL     1      19.549   6.759  21.809  0.00  0.00    +0.122 A 
ATOM     25  C   UNL     1      21.447   4.966  21.016  0.00  0.00    +0.020 A 
ATOM     26  C   UNL     1      21.616   5.802  22.108  0.00  0.00    +0.111 A 
ENDBRANCH  17  20
ENDBRANCH   8  13
BRANCH  10   1
ATOM      1  O   UNL     1      12.951   9.334  16.968  0.00  0.00    -0.390 OA
ATOM     27  H   UNL     1      12.637   8.469  16.653  0.00  0.00    +0.210 HD
ENDBRANCH  10   1
BRANCH   4  12
ATOM     12  C   UNL     1      14.328   8.550  21.447  0.00  0.00    +0.124 C 
BRANCH  12  14
ATOM     14  C   UNL     1      12.902   8.120  21.658  0.00  0.00    +0.008 A 
ATOM     15  C   UNL     1      11.953   9.014  22.157  0.00  0.00    +0.124 A 
ATOM     16  C   UNL     1      12.531   6.811  21.350  0.00  0.00    +0.008 A 
ATOM     18  C   UNL     1      10.636   8.598  22.348  0.00  0.00    +0.046 A 
ATOM     19  C   UNL     1      11.213   6.396  21.542  0.00  0.00    +0.001 A 
ATOM     21  C   UNL     1      10.265   7.290  22.040  0.00  0.00    +0.004 A 
BRANCH  15   3
ATOM      3  O   UNL     1      12.298  10.296  22.463  0.00  0.00    -0.495 OA
ATOM     24  C   UNL     1      11.590  11.336  21.789  0.00  0.00    +0.277 C 
ENDBRANCH  15   3
ENDBRANCH  12  14
ENDBRANCH   4  12
TORSDOF 6
ENDMDL
MODEL 4
REMARK VINA RESULT:      -7.0     25.947     28.390
REMARK  Name = 26743976
REMARK  7 active torsions:
REMARK  status: ('A' for Active; 'I' for Inactive)
REMARK    1  A    between atoms: O_1  and  C_10
REMARK    2  A    between atoms: O_3  and  C_15
REMARK    3  A    between atoms: O_3  and  C_24
REMARK    4  A    between atoms: N_4  and  C_12
REMARK    5  A    between atoms: C_8  and  C_13
REMARK    6  A    between atoms: C_12  and  C_14
REMARK    7  A    between atoms: C_17  and  C_20
REMARK                            x       y       z     vdW  Elec       q    Type
REMARK                         _______ _______ _______ _____ _____    ______ ____
ROOT
ATOM      4  N   UNL     1      -3.571 -10.597  14.398  0.00  0.00    -0.284 NA
ATOM      8  C   UNL     1      -3.911 -11.237  15.684  0.00  0.00    +0.149 C 
ATOM      9  C   UNL     1      -2.694 -10.971  16.592  0.00  0.00    +0.061 C 
ATOM     10  C   UNL     1      -1.705 -10.215  15.712  0.00  0.00    +0.130 C 
ATOM     11  C   UNL     1      -2.112 -10.607  14.304  0.00  0.00    +0.116 C 
ENDROOT
BRANCH   8  13
ATOM      2  O   UNL     1      -5.603  -9.482  15.860  0.00  0.00    -0.336 OA
ATOM      5  N   UNL     1      -6.011 -11.277  17.136  0.00  0.00    -0.190 NA
ATOM      6  N   UNL     1      -6.803  -9.218  16.531  0.00  0.00    -0.056 NA
ATOM     13  C   UNL     1      -5.205 -10.714  16.273  0.00  0.00    +0.245 A 
ATOM     17  C   UNL     1      -6.977 -10.321  17.263  0.00  0.00    +0.204 A 
BRANCH  17  20
ATOM      7  N   UNL     1      -9.048 -11.539  20.101  0.00  0.00    -0.263 NA
ATOM     20  C   UNL     1      -8.106 -10.503  18.131  0.00  0.00    +0.041 A 
ATOM     22  C   UNL     1      -9.312  -9.857  17.884  0.00  0.00    +0.014 A 
ATOM     23  C   UNL     1      -8.026 -11.325  19.244  0.00  0.00    +0.122 A 
ATOM     25  C   UNL     1     -10.387 -10.052  18.744  0.00  0.00    +0.020 A 
ATOM     26  C   UNL     1     -10.205 -10.895  19.828  0.00  0.00    +0.111 A 
ENDBRANCH  17  20
ENDBRANCH   8  13
BRANCH  10   1
ATOM      1  O   UNL     1      -0.377 -10.605  16.002  0.00  0.00    -0.390 OA
ATOM     27  H   UNL     1       0.002 -10.978  15.188  0.00  0.00    +0.210 HD
ENDBRANCH  10   1
BRANCH   4  12
ATOM     12  C   UNL     1      -4.198 -11.242  13.252  0.00  0.00    +0.124 C 
BRANCH  12  14
ATOM     14  C   UNL     1      -4.304 -10.312  12.074  0.00  0.00    +0.008 A 
ATOM     15  C   UNL     1      -5.400  -9.461  11.931  0.00  0.00    +0.124 A 
ATOM     16  C   UNL     1      -3.290 -10.308  11.116  0.00  0.00    +0.008 A 
ATOM     18  C   UNL     1      -5.483  -8.607  10.832  0.00  0.00    +0.046 A 
ATOM     19  C   UNL     1      -3.372  -9.453  10.017  0.00  0.00    +0.001 A 
ATOM     21  C   UNL     1      -4.469  -8.602   9.875  0.00  0.00    +0.004 A 
BRANCH  15   3
ATOM      3  O   UNL     1      -6.400  -9.453  12.857  0.00  0.00    -0.495 OA
ATOM     24  C   UNL     1      -7.731  -9.636  12.375  0.00  0.00    +0.277 C 
ENDBRANCH  15   3
ENDBRANCH  12  14
ENDBRANCH   4  12
TORSDOF 6
ENDMDL
MODEL 5
REMARK VINA RESULT:      -6.8     26.468     28.431
REMARK  Name = 26743976
REMARK  7 active torsions:
REMARK  status: ('A' for Active; 'I' for Inactive)
REMARK    1  A    between atoms: O_1  and  C_10
REMARK    2  A    between atoms: O_3  and  C_15
REMARK    3  A    between atoms: O_3  and  C_24
REMARK    4  A    between atoms: N_4  and  C_12
REMARK    5  A    between atoms: C_8  and  C_13
REMARK    6  A    between atoms: C_12  and  C_14
REMARK    7  A    between atoms: C_17  and  C_20
REMARK                            x       y       z     vdW  Elec       q    Type
REMARK                         _______ _______ _______ _____ _____    ______ ____
ROOT
ATOM      4  N   UNL     1      -4.193 -10.588  14.599  0.00  0.00    -0.284 NA
ATOM      8  C   UNL     1      -4.741 -11.154  15.848  0.00  0.00    +0.149 C 
ATOM      9  C   UNL     1      -3.587 -11.063  16.864  0.00  0.00    +0.061 C 
ATOM     10  C   UNL     1      -2.419 -10.475  16.080  0.00  0.00    +0.130 C 
ATOM     11  C   UNL     1      -2.750 -10.818  14.640  0.00  0.00    +0.116 C 
ENDROOT
BRANCH   8  13
ATOM      2  O   UNL     1      -6.128 -10.272  17.657  0.00  0.00    -0.336 OA
ATOM      5  N   UNL     1      -6.976  -9.941  15.611  0.00  0.00    -0.190 NA
ATOM      6  N   UNL     1      -7.339  -9.595  17.843  0.00  0.00    -0.056 NA
ATOM     13  C   UNL     1      -5.990 -10.436  16.315  0.00  0.00    +0.245 A 
ATOM     17  C   UNL     1      -7.779  -9.436  16.592  0.00  0.00    +0.204 A 
BRANCH  17  20
ATOM      7  N   UNL     1     -10.765  -8.309  14.684  0.00  0.00    -0.263 NA
ATOM     20  C   UNL     1      -9.016  -8.775  16.286  0.00  0.00    +0.041 A 
ATOM     22  C   UNL     1      -9.663  -7.990  17.233  0.00  0.00    +0.014 A 
ATOM     23  C   UNL     1      -9.604  -8.902  15.037  0.00  0.00    +0.122 A 
ATOM     25  C   UNL     1     -10.861  -7.363  16.907  0.00  0.00    +0.020 A 
ATOM     26  C   UNL     1     -11.365  -7.554  15.631  0.00  0.00    +0.111 A 
ENDBRANCH  17  20
ENDBRANCH   8  13
BRANCH  10   1
ATOM      1  O   UNL     1      -1.197 -11.056  16.491  0.00  0.00    -0.390 OA
ATOM     27  H   UNL     1      -1.229 -11.999  16.255  0.00  0.00    +0.210 HD
ENDBRANCH  10   1
BRANCH   4  12
ATOM     12  C   UNL     1      -4.803 -11.145  13.400  0.00  0.00    +0.124 C 
BRANCH  12  14
ATOM     14  C   UNL     1      -4.544 -10.289  12.189  0.00  0.00    +0.008 A 
ATOM     15  C   UNL     1      -5.477  -9.339  11.773  0.00  0.00    +0.124 A 
ATOM     16  C   UNL     1      -3.354 -10.455  11.480  0.00  0.00    +0.008 A 
ATOM     18  C   UNL     1      -5.221  -8.555  10.648  0.00  0.00    +0.046 A 
ATOM     19  C   UNL     1      -3.099  -9.671  10.355  0.00  0.00    +0.001 A 
ATOM     21  C   UNL     1      -4.032  -8.721   9.939  0.00  0.00    +0.004 A 
BRANCH  15   3
ATOM      3  O   UNL     1      -6.644  -9.164  12.454  0.00  0.00    -0.495 OA
ATOM     24  C   UNL     1      -7.842  -9.590  11.807  0.00  0.00    +0.277 C 
ENDBRANCH  15   3
ENDBRANCH  12  14
ENDBRANCH   4  12
TORSDOF 6
ENDMDL
MODEL 6
REMARK VINA RESULT:      -6.5     27.444     30.002
REMARK  Name = 26743976
REMARK  7 active torsions:
REMARK  status: ('A' for Active; 'I' for Inactive)
REMARK    1  A    between atoms: O_1  and  C_10
REMARK    2  A    between atoms: O_3  and  C_15
REMARK    3  A    between atoms: O_3  and  C_24
REMARK    4  A    between atoms: N_4  and  C_12
REMARK    5  A    between atoms: C_8  and  C_13
REMARK    6  A    between atoms: C_12  and  C_14
REMARK    7  A    between atoms: C_17  and  C_20
REMARK                            x       y       z     vdW  Elec       q    Type
REMARK                         _______ _______ _______ _____ _____    ______ ____
ROOT
ATOM      4  N   UNL     1     -16.555   5.212  20.712  0.00  0.00    -0.284 NA
ATOM      8  C   UNL     1     -17.765   4.615  21.311  0.00  0.00    +0.149 C 
ATOM      9  C   UNL     1     -18.505   3.955  20.133  0.00  0.00    +0.061 C 
ATOM     10  C   UNL     1     -17.657   4.274  18.907  0.00  0.00    +0.130 C 
ATOM     11  C   UNL     1     -16.888   5.515  19.322  0.00  0.00    +0.116 C 
ENDROOT
BRANCH   8  13
ATOM      2  O   UNL     1     -17.362   2.327  22.071  0.00  0.00    -0.336 OA
ATOM      5  N   UNL     1     -17.232   3.866  23.694  0.00  0.00    -0.190 NA
ATOM      6  N   UNL     1     -17.063   1.629  23.247  0.00  0.00    -0.056 NA
ATOM     13  C   UNL     1     -17.444   3.637  22.423  0.00  0.00    +0.245 A 
ATOM     17  C   UNL     1     -17.002   2.603  24.159  0.00  0.00    +0.204 A 
BRANCH  17  20
ATOM      7  N   UNL     1     -16.611   0.780  27.375  0.00  0.00    -0.263 NA
ATOM     20  C   UNL     1     -16.713   2.351  25.541  0.00  0.00    +0.041 A 
ATOM     22  C   UNL     1     -16.272   3.369  26.379  0.00  0.00    +0.014 A 
ATOM     23  C   UNL     1     -16.865   1.085  26.083  0.00  0.00    +0.122 A 
ATOM     25  C   UNL     1     -15.999   3.094  27.714  0.00  0.00    +0.020 A 
ATOM     26  C   UNL     1     -16.183   1.795  28.159  0.00  0.00    +0.111 A 
ENDBRANCH  17  20
ENDBRANCH   8  13
BRANCH  10   1
ATOM      1  O   UNL     1     -18.475   4.515  17.780  0.00  0.00    -0.390 OA
ATOM     27  H   UNL     1     -17.971   4.250  16.991  0.00  0.00    +0.210 HD
ENDBRANCH  10   1
BRANCH   4  12
ATOM     12  C   UNL     1     -16.079   6.388  21.430  0.00  0.00    +0.124 C 
BRANCH  12  14
ATOM     14  C   UNL     1     -14.625   6.661  21.156  0.00  0.00    +0.008 A 
ATOM     15  C   UNL     1     -13.636   5.791  21.616  0.00  0.00    +0.124 A 
ATOM     16  C   UNL     1     -14.270   7.801  20.435  0.00  0.00    +0.008 A 
ATOM     18  C   UNL     1     -12.293   6.061  21.354  0.00  0.00    +0.046 A 
ATOM     19  C   UNL     1     -12.926   8.070  20.173  0.00  0.00    +0.001 A 
ATOM     21  C   UNL     1     -11.938   7.200  20.633  0.00  0.00    +0.004 A 
BRANCH  15   3
ATOM      3  O   UNL     1     -13.965   4.673  22.322  0.00  0.00    -0.495 OA
ATOM     24  C   UNL     1     -13.858   4.750  23.743  0.00  0.00    +0.277 C 
ENDBRANCH  15   3
ENDBRANCH  12  14
ENDBRANCH   4  12
TORSDOF 6
ENDMDL
MODEL 7
REMARK VINA RESULT:      -6.5     25.697     28.111
REMARK  Name = 26743976
REMARK  7 active torsions:
REMARK  status: ('A' for Active; 'I' for Inactive)
REMARK    1  A    between atoms: O_1  and  C_10
REMARK    2  A    between atoms: O_3  and  C_15
REMARK    3  A    between atoms: O_3  and  C_24
REMARK    4  A    between atoms: N_4  and  C_12
REMARK    5  A    between atoms: C_8  and  C_13
REMARK    6  A    between atoms: C_12  and  C_14
REMARK    7  A    between atoms: C_17  and  C_20
REMARK                            x       y       z     vdW  Elec       q    Type
REMARK                         _______ _______ _______ _____ _____    ______ ____
ROOT
ATOM      4  N   UNL     1      -3.412 -10.688  14.770  0.00  0.00    -0.284 NA
ATOM      8  C   UNL     1      -3.450 -11.356  16.086  0.00  0.00    +0.149 C 
ATOM      9  C   UNL     1      -2.123 -10.966  16.765  0.00  0.00    +0.061 C 
ATOM     10  C   UNL     1      -1.389 -10.116  15.735  0.00  0.00    +0.130 C 
ATOM     11  C   UNL     1      -2.001 -10.550  14.416  0.00  0.00    +0.116 C 
ENDROOT
BRANCH   8  13
ATOM      2  O   UNL     1      -4.526 -11.023  18.255  0.00  0.00    -0.336 OA
ATOM      5  N   UNL     1      -5.846 -10.576  16.502  0.00  0.00    -0.190 NA
ATOM      6  N   UNL     1      -5.759 -10.625  18.787  0.00  0.00    -0.056 NA
ATOM     13  C   UNL     1      -4.663 -10.966  16.905  0.00  0.00    +0.245 A 
ATOM     17  C   UNL     1      -6.483 -10.379  17.692  0.00  0.00    +0.204 A 
BRANCH  17  20
ATOM      7  N   UNL     1     -10.076 -10.228  18.635  0.00  0.00    -0.263 NA
ATOM     20  C   UNL     1      -7.846  -9.934  17.751  0.00  0.00    +0.041 A 
ATOM     22  C   UNL     1      -8.271  -8.826  17.026  0.00  0.00    +0.014 A 
ATOM     23  C   UNL     1      -8.780 -10.594  18.534  0.00  0.00    +0.122 A 
ATOM     25  C   UNL     1      -9.598  -8.418  17.104  0.00  0.00    +0.020 A 
ATOM     26  C   UNL     1     -10.453  -9.146  17.916  0.00  0.00    +0.111 A 
ENDBRANCH  17  20
ENDBRANCH   8  13
BRANCH  10   1
ATOM      1  O   UNL     1       0.002 -10.368  15.777  0.00  0.00    -0.390 OA
ATOM     27  H   UNL     1       0.132 -11.315  15.600  0.00  0.00    +0.210 HD
ENDBRANCH  10   1
BRANCH   4  12
ATOM     12  C   UNL     1      -4.168 -11.396  13.745  0.00  0.00    +0.124 C 
BRANCH  12  14
ATOM     14  C   UNL     1      -4.884 -10.449  12.821  0.00  0.00    +0.008 A 
ATOM     15  C   UNL     1      -4.300 -10.044  11.621  0.00  0.00    +0.124 A 
ATOM     16  C   UNL     1      -6.146  -9.974  13.177  0.00  0.00    +0.008 A 
ATOM     18  C   UNL     1      -4.978  -9.164  10.776  0.00  0.00    +0.046 A 
ATOM     19  C   UNL     1      -6.824  -9.094  12.333  0.00  0.00    +0.001 A 
ATOM     21  C   UNL     1      -6.240  -8.689  11.132  0.00  0.00    +0.004 A 
BRANCH  15   3
ATOM      3  O   UNL     1      -3.068 -10.498  11.257  0.00  0.00    -0.495 OA
ATOM     24  C   UNL     1      -2.104  -9.519  10.873  0.00  0.00    +0.277 C 
ENDBRANCH  15   3
ENDBRANCH  12  14
ENDBRANCH   4  12
TORSDOF 6
ENDMDL
MODEL 8
REMARK VINA RESULT:      -6.3     24.502     27.301
REMARK  Name = 26743976
REMARK  7 active torsions:
REMARK  status: ('A' for Active; 'I' for Inactive)
REMARK    1  A    between atoms: O_1  and  C_10
REMARK    2  A    between atoms: O_3  and  C_15
REMARK    3  A    between atoms: O_3  and  C_24
REMARK    4  A    between atoms: N_4  and  C_12
REMARK    5  A    between atoms: C_8  and  C_13
REMARK    6  A    between atoms: C_12  and  C_14
REMARK    7  A    between atoms: C_17  and  C_20
REMARK                            x       y       z     vdW  Elec       q    Type
REMARK                         _______ _______ _______ _____ _____    ______ ____
ROOT
ATOM      4  N   UNL     1     -11.784   9.882  20.081  0.00  0.00    -0.284 NA
ATOM      8  C   UNL     1     -12.287   8.692  19.366  0.00  0.00    +0.149 C 
ATOM      9  C   UNL     1     -11.158   8.311  18.390  0.00  0.00    +0.061 C 
ATOM     10  C   UNL     1     -10.083   9.371  18.598  0.00  0.00    +0.130 C 
ATOM     11  C   UNL     1     -10.852  10.547  19.173  0.00  0.00    +0.116 C 
ENDROOT
BRANCH   8  13
ATOM      2  O   UNL     1     -11.626   6.846  20.825  0.00  0.00    -0.336 OA
ATOM      5  N   UNL     1     -13.840   7.158  20.691  0.00  0.00    -0.190 NA
ATOM      6  N   UNL     1     -12.208   5.871  21.645  0.00  0.00    -0.056 NA
ATOM     13  C   UNL     1     -12.657   7.561  20.303  0.00  0.00    +0.245 A 
ATOM     17  C   UNL     1     -13.514   6.119  21.513  0.00  0.00    +0.204 A 
BRANCH  17  20
ATOM      7  N   UNL     1     -16.719   4.350  22.162  0.00  0.00    -0.263 NA
ATOM     20  C   UNL     1     -14.519   5.350  22.190  0.00  0.00    +0.041 A 
ATOM     22  C   UNL     1     -14.306   4.865  23.475  0.00  0.00    +0.014 A 
ATOM     23  C   UNL     1     -15.731   5.068  21.582  0.00  0.00    +0.122 A 
ATOM     25  C   UNL     1     -15.298   4.121  24.105  0.00  0.00    +0.020 A 
ATOM     26  C   UNL     1     -16.476   3.894  23.411  0.00  0.00    +0.111 A 
ENDBRANCH  17  20
ENDBRANCH   8  13
BRANCH  10   1
ATOM      1  O   UNL     1      -9.459   9.700  17.373  0.00  0.00    -0.390 OA
ATOM     27  H   UNL     1     -10.088  10.238  16.861  0.00  0.00    +0.210 HD
ENDBRANCH  10   1
BRANCH   4  12
ATOM     12  C   UNL     1     -12.845  10.774  20.528  0.00  0.00    +0.124 C 
BRANCH  12  14
ATOM     14  C   UNL     1     -13.021  10.734  22.022  0.00  0.00    +0.008 A 
ATOM     15  C   UNL     1     -14.214  10.286  22.588  0.00  0.00    +0.124 A 
ATOM     16  C   UNL     1     -11.973  11.151  22.843  0.00  0.00    +0.008 A 
ATOM     18  C   UNL     1     -14.361  10.256  23.975  0.00  0.00    +0.046 A 
ATOM     19  C   UNL     1     -12.120  11.122  24.230  0.00  0.00    +0.001 A 
ATOM     21  C   UNL     1     -13.314  10.674  24.796  0.00  0.00    +0.004 A 
BRANCH  15   3
ATOM      3  O   UNL     1     -15.248   9.875  21.801  0.00  0.00    -0.495 OA
ATOM     24  C   UNL     1     -16.301   9.153  22.438  0.00  0.00    +0.277 C 
ENDBRANCH  15   3
ENDBRANCH  12  14
ENDBRANCH   4  12
TORSDOF 6
ENDMDL
MODEL 9
REMARK VINA RESULT:      -6.3     26.343     28.437
REMARK  Name = 26743976
REMARK  7 active torsions:
REMARK  status: ('A' for Active; 'I' for Inactive)
REMARK    1  A    between atoms: O_1  and  C_10
REMARK    2  A    between atoms: O_3  and  C_15
REMARK    3  A    between atoms: O_3  and  C_24
REMARK    4  A    between atoms: N_4  and  C_12
REMARK    5  A    between atoms: C_8  and  C_13
REMARK    6  A    between atoms: C_12  and  C_14
REMARK    7  A    between atoms: C_17  and  C_20
REMARK                            x       y       z     vdW  Elec       q    Type
REMARK                         _______ _______ _______ _____ _____    ______ ____
ROOT
ATOM      4  N   UNL     1      -3.841 -10.870  14.221  0.00  0.00    -0.284 NA
ATOM      8  C   UNL     1      -4.610 -11.648  15.212  0.00  0.00    +0.149 C 
ATOM      9  C   UNL     1      -3.844 -11.467  16.537  0.00  0.00    +0.061 C 
ATOM     10  C   UNL     1      -2.635 -10.611  16.178  0.00  0.00    +0.130 C 
ATOM     11  C   UNL     1      -2.457 -10.854  14.691  0.00  0.00    +0.116 C 
ENDROOT
BRANCH   8  13
ATOM      2  O   UNL     1      -6.994 -12.119  14.947  0.00  0.00    -0.336 OA
ATOM      5  N   UNL     1      -6.547 -10.054  15.690  0.00  0.00    -0.190 NA
ATOM      6  N   UNL     1      -8.233 -11.488  15.115  0.00  0.00    -0.056 NA
ATOM     13  C   UNL     1      -6.055 -11.205  15.308  0.00  0.00    +0.245 A 
ATOM     17  C   UNL     1      -7.887 -10.276  15.554  0.00  0.00    +0.204 A 
BRANCH  17  20
ATOM      7  N   UNL     1      -9.823  -7.773  17.507  0.00  0.00    -0.263 NA
ATOM     20  C   UNL     1      -8.853  -9.263  15.869  0.00  0.00    +0.041 A 
ATOM     22  C   UNL     1      -9.732  -8.786  14.903  0.00  0.00    +0.014 A 
ATOM     23  C   UNL     1      -8.938  -8.728  17.144  0.00  0.00    +0.122 A 
ATOM     25  C   UNL     1     -10.657  -7.803  15.238  0.00  0.00    +0.020 A 
ATOM     26  C   UNL     1     -10.661  -7.334  16.542  0.00  0.00    +0.111 A 
ENDBRANCH  17  20
ENDBRANCH   8  13
BRANCH  10   1
ATOM      1  O   UNL     1      -1.498 -11.015  16.916  0.00  0.00    -0.390 OA
ATOM     27  H   UNL     1      -1.779 -11.136  17.840  0.00  0.00    +0.210 HD
ENDBRANCH  10   1
BRANCH   4  12
ATOM     12  C   UNL     1      -3.953 -11.396  12.867  0.00  0.00    +0.124 C 
BRANCH  12  14
ATOM     14  C   UNL     1      -4.377 -10.335  11.887  0.00  0.00    +0.008 A 
ATOM     15  C   UNL     1      -3.465  -9.802  10.975  0.00  0.00    +0.124 A 
ATOM     16  C   UNL     1      -5.697  -9.885  11.897  0.00  0.00    +0.008 A 
ATOM     18  C   UNL     1      -3.874  -8.818  10.074  0.00  0.00    +0.046 A 
ATOM     19  C   UNL     1      -6.105  -8.902  10.996  0.00  0.00    +0.001 A 
ATOM     21  C   UNL     1      -5.194  -8.368  10.084  0.00  0.00    +0.004 A 
BRANCH  15   3
ATOM      3  O   UNL     1      -2.172 -10.230  10.951  0.00  0.00    -0.495 OA
ATOM     24  C   UNL     1      -1.169  -9.282  11.314  0.00  0.00    +0.277 C 
ENDBRANCH  15   3
ENDBRANCH  12  14
ENDBRANCH   4  12
TORSDOF 6
ENDMDL
MODEL 10
REMARK VINA RESULT:      -6.2     29.373     30.679
REMARK  Name = 26743976
REMARK  7 active torsions:
REMARK  status: ('A' for Active; 'I' for Inactive)
REMARK    1  A    between atoms: O_1  and  C_10
REMARK    2  A    between atoms: O_3  and  C_15
REMARK    3  A    between atoms: O_3  and  C_24
REMARK    4  A    between atoms: N_4  and  C_12
REMARK    5  A    between atoms: C_8  and  C_13
REMARK    6  A    between atoms: C_12  and  C_14
REMARK    7  A    between atoms: C_17  and  C_20
REMARK                            x       y       z     vdW  Elec       q    Type
REMARK                         _______ _______ _______ _____ _____    ______ ____
ROOT
ATOM      4  N   UNL     1     -15.393   1.506  29.523  0.00  0.00    -0.284 NA
ATOM      8  C   UNL     1     -15.375   1.458  30.999  0.00  0.00    +0.149 C 
ATOM      9  C   UNL     1     -14.111   0.653  31.353  0.00  0.00    +0.061 C 
ATOM     10  C   UNL     1     -13.510   0.253  30.011  0.00  0.00    +0.130 C 
ATOM     11  C   UNL     1     -14.693   0.308  29.062  0.00  0.00    +0.116 C 
ENDROOT
BRANCH   8  13
ATOM      2  O   UNL     1     -16.550   3.532  31.540  0.00  0.00    -0.336 OA
ATOM      5  N   UNL     1     -14.428   3.471  32.253  0.00  0.00    -0.190 NA
ATOM      6  N   UNL     1     -16.319   4.755  32.180  0.00  0.00    -0.056 NA
ATOM     13  C   UNL     1     -15.387   2.836  31.628  0.00  0.00    +0.245 A 
ATOM     17  C   UNL     1     -15.047   4.644  32.573  0.00  0.00    +0.204 A 
BRANCH  17  20
ATOM      7  N   UNL     1     -13.521   6.534  35.387  0.00  0.00    -0.263 NA
ATOM     20  C   UNL     1     -14.365   5.684  33.288  0.00  0.00    +0.041 A 
ATOM     22  C   UNL     1     -13.893   6.815  32.631  0.00  0.00    +0.014 A 
ATOM     23  C   UNL     1     -14.155   5.592  34.655  0.00  0.00    +0.122 A 
ATOM     25  C   UNL     1     -13.235   7.806  33.351  0.00  0.00    +0.020 A 
ATOM     26  C   UNL     1     -13.076   7.619  34.715  0.00  0.00    +0.111 A 
ENDBRANCH  17  20
ENDBRANCH   8  13
BRANCH  10   1
ATOM      1  O   UNL     1     -12.951  -1.044  30.078  0.00  0.00    -0.390 OA
ATOM     27  H   UNL     1     -13.412  -1.524  30.788  0.00  0.00    +0.210 HD
ENDBRANCH  10   1
BRANCH   4  12
ATOM     12  C   UNL     1     -16.736   1.603  28.968  0.00  0.00    +0.124 C 
BRANCH  12  14
ATOM     14  C   UNL     1     -16.723   2.126  27.557  0.00  0.00    +0.008 A 
ATOM     15  C   UNL     1     -16.451   3.469  27.295  0.00  0.00    +0.124 A 
ATOM     16  C   UNL     1     -16.988   1.251  26.504  0.00  0.00    +0.008 A 
ATOM     18  C   UNL     1     -16.444   3.937  25.981  0.00  0.00    +0.046 A 
ATOM     19  C   UNL     1     -16.982   1.719  25.190  0.00  0.00    +0.001 A 
ATOM     21  C   UNL     1     -16.709   3.062  24.928  0.00  0.00    +0.004 A 
BRANCH  15   3
ATOM      3  O   UNL     1     -16.190   4.338  28.312  0.00  0.00    -0.495 OA
ATOM     24  C   UNL     1     -17.121   5.401  28.511  0.00  0.00    +0.277 C 
ENDBRANCH  15   3
ENDBRANCH  12  14
ENDBRANCH   4  12
TORSDOF 6
ENDMDL
