MODEL 1
REMARK VINA RESULT:      -7.6      0.000      0.000
REMARK  Name = 38026953
REMARK  10 active torsions:
REMARK  status: ('A' for Active; 'I' for Inactive)
REMARK    1  A    between atoms: N_6  and  C_16
REMARK    2  A    between atoms: C_8  and  C_12
REMARK    3  A    between atoms: C_9  and  C_16
REMARK    4  A    between atoms: C_11  and  C_15
REMARK    5  A    between atoms: C_12  and  C_17
REMARK    6  A    between atoms: C_12  and  C_18
REMARK    7  A    between atoms: C_13  and  C_19
REMARK    8  A    between atoms: C_15  and  C_20
REMARK    9  A    between atoms: C_25  and  C_27
REMARK   10  A    between atoms: C_26  and  C_28
REMARK                            x       y       z     vdW  Elec       q    Type
REMARK                         _______ _______ _______ _____ _____    ______ ____
ROOT
ATOM      8  C   UNL     1      -3.086 -12.234  12.759  0.00  0.00    +0.000 C 
ATOM      9  C   UNL     1      -2.010 -11.134  12.576  0.00  0.00    +0.032 C 
ATOM     10  C   UNL     1      -3.639 -12.674  11.396  0.00  0.00    +0.012 C 
ATOM     11  C   UNL     1      -4.266 -11.504  10.615  0.00  0.00    +0.023 C 
ATOM     13  C   UNL     1      -3.371 -10.282  10.618  0.00  0.00    -0.073 C 
ATOM     14  C   UNL     1      -2.359 -10.140  11.494  0.00  0.00    -0.022 C 
ATOM     19  C   UNL     1      -3.636  -9.245   9.562  0.00  0.00    +0.039 C 
ENDROOT
BRANCH   8  12
ATOM     12  C   UNL     1      -2.535 -13.448  13.513  0.00  0.00    -0.013 C 
ATOM     17  C   UNL     1      -3.543 -13.933  14.550  0.00  0.00    +0.007 C 
ATOM     18  C   UNL     1      -2.182 -14.565  12.537  0.00  0.00    +0.007 C 
ENDBRANCH   8  12
BRANCH  11  15
ATOM     15  C   UNL     1      -5.660 -11.165  11.153  0.00  0.00    +0.103 C 
BRANCH  15  20
ATOM      2  O   UNL     1      -6.869 -12.521   9.631  0.00  0.00    -0.276 OA
ATOM      4  O   UNL     1      -8.617  -5.759   8.109  0.00  0.00    -0.276 OA
ATOM      5  N   UNL     1      -7.391 -10.257   9.645  0.00  0.00    -0.298 N 
ATOM      7  N   UNL     1      -8.048  -8.010   8.050  0.00  0.00    -0.299 N 
ATOM     20  C   UNL     1      -6.692 -11.384  10.076  0.00  0.00    +0.216 C 
ATOM     21  C   UNL     1      -8.409 -10.384   8.598  0.00  0.00    +0.126 C 
ATOM     22  C   UNL     1      -7.258  -8.906  10.205  0.00  0.00    +0.126 C 
ATOM     23  C   UNL     1      -8.182  -9.360   7.489  0.00  0.00    +0.126 C 
ATOM     24  C   UNL     1      -7.031  -7.882   9.095  0.00  0.00    +0.126 C 
ATOM     26  C   UNL     1      -8.748  -6.883   7.620  0.00  0.00    +0.213 C 
ATOM     28  C   UNL     1      -9.723  -7.086   6.488  0.00  0.00    +0.109 C 
ENDBRANCH  15  20
ENDBRANCH  11  15
BRANCH   9  16
ATOM     16  C   UNL     1      -1.752 -10.389  13.890  0.00  0.00    +0.112 C 
BRANCH  16   6
ATOM      3  O   UNL     1      -1.932 -10.892  16.711  0.00  0.00    -0.270 OA
ATOM      6  N   UNL     1      -2.936 -10.347  14.690  0.00  0.00    -0.311 N 
ATOM     25  C   UNL     1      -2.934 -10.606  16.061  0.00  0.00    +0.244 C 
ATOM     34  H   UNL     1      -3.788 -10.028  14.242  0.00  0.00    +0.149 HD
BRANCH  25  27
ATOM      1  F   UNL     1      -7.572  -9.155  16.234  0.00  0.00    -0.205 F 
ATOM     27  C   UNL     1      -4.251 -10.549  16.746  0.00  0.00    +0.039 A 
ATOM     29  C   UNL     1      -5.314  -9.865  16.157  0.00  0.00    +0.051 A 
ATOM     30  C   UNL     1      -4.424 -11.178  17.979  0.00  0.00    +0.013 A 
ATOM     31  C   UNL     1      -6.551  -9.811  16.799  0.00  0.00    +0.124 A 
ATOM     32  C   UNL     1      -5.661 -11.125  18.622  0.00  0.00    +0.004 A 
ATOM     33  C   UNL     1      -6.724 -10.442  18.032  0.00  0.00    +0.038 A 
ENDBRANCH  25  27
ENDBRANCH  16   6
ENDBRANCH   9  16
TORSDOF 6
ENDMDL
MODEL 2
REMARK VINA RESULT:      -7.1     27.374     30.466
REMARK  Name = 38026953
REMARK  10 active torsions:
REMARK  status: ('A' for Active; 'I' for Inactive)
REMARK    1  A    between atoms: N_6  and  C_16
REMARK    2  A    between atoms: C_8  and  C_12
REMARK    3  A    between atoms: C_9  and  C_16
REMARK    4  A    between atoms: C_11  and  C_15
REMARK    5  A    between atoms: C_12  and  C_17
REMARK    6  A    between atoms: C_12  and  C_18
REMARK    7  A    between atoms: C_13  and  C_19
REMARK    8  A    between atoms: C_15  and  C_20
REMARK    9  A    between atoms: C_25  and  C_27
REMARK   10  A    between atoms: C_26  and  C_28
REMARK                            x       y       z     vdW  Elec       q    Type
REMARK                         _______ _______ _______ _____ _____    ______ ____
ROOT
ATOM      8  C   UNL     1      12.809   9.623  20.679  0.00  0.00    +0.000 C 
ATOM      9  C   UNL     1      11.935   8.501  20.066  0.00  0.00    +0.032 C 
ATOM     10  C   UNL     1      12.744  10.888  19.812  0.00  0.00    +0.012 C 
ATOM     11  C   UNL     1      13.221  10.632  18.370  0.00  0.00    +0.023 C 
ATOM     13  C   UNL     1      12.600   9.379  17.786  0.00  0.00    -0.073 C 
ATOM     14  C   UNL     1      12.018   8.444  18.559  0.00  0.00    -0.022 C 
ATOM     19  C   UNL     1      12.623   9.247  16.289  0.00  0.00    +0.039 C 
ENDROOT
BRANCH   8  12
ATOM     12  C   UNL     1      12.385   9.954  22.114  0.00  0.00    -0.013 C 
ATOM     17  C   UNL     1      13.380  10.918  22.754  0.00  0.00    +0.007 C 
ATOM     18  C   UNL     1      10.977  10.540  22.130  0.00  0.00    +0.007 C 
ENDBRANCH   8  12
BRANCH  11  15
ATOM     15  C   UNL     1      14.751  10.572  18.296  0.00  0.00    +0.103 C 
BRANCH  15  20
ATOM      2  O   UNL     1      15.077  12.919  18.325  0.00  0.00    -0.276 OA
ATOM      4  O   UNL     1      19.600  10.212  23.153  0.00  0.00    -0.276 OA
ATOM      5  N   UNL     1      16.169  11.700  19.973  0.00  0.00    -0.298 N 
ATOM      7  N   UNL     1      18.562  11.423  21.465  0.00  0.00    -0.299 N 
ATOM     20  C   UNL     1      15.341  11.839  18.860  0.00  0.00    +0.216 C 
ATOM     21  C   UNL     1      16.785  12.882  20.580  0.00  0.00    +0.126 C 
ATOM     22  C   UNL     1      16.444  10.440  20.678  0.00  0.00    +0.126 C 
ATOM     23  C   UNL     1      18.288  12.682  20.761  0.00  0.00    +0.126 C 
ATOM     24  C   UNL     1      17.946  10.240  20.859  0.00  0.00    +0.126 C 
ATOM     26  C   UNL     1      19.387  11.283  22.580  0.00  0.00    +0.213 C 
ATOM     28  C   UNL     1      20.043  12.540  23.095  0.00  0.00    +0.109 C 
ENDBRANCH  15  20
ENDBRANCH  11  15
BRANCH   9  16
ATOM     16  C   UNL     1      12.302   7.132  20.649  0.00  0.00    +0.112 C 
BRANCH  16   6
ATOM      3  O   UNL     1      14.646   7.488  22.268  0.00  0.00    -0.270 OA
ATOM      6  N   UNL     1      13.641   6.774  20.301  0.00  0.00    -0.311 N 
ATOM     25  C   UNL     1      14.727   6.983  21.151  0.00  0.00    +0.244 C 
ATOM     34  H   UNL     1      13.775   6.269  19.432  0.00  0.00    +0.149 HD
BRANCH  25  27
ATOM      1  F   UNL     1      17.571   5.361  17.556  0.00  0.00    -0.205 F 
ATOM     27  C   UNL     1      16.059   6.582  20.632  0.00  0.00    +0.039 A 
ATOM     29  C   UNL     1      16.193   6.151  19.312  0.00  0.00    +0.051 A 
ATOM     30  C   UNL     1      17.178   6.633  21.465  0.00  0.00    +0.013 A 
ATOM     31  C   UNL     1      17.444   5.774  18.823  0.00  0.00    +0.124 A 
ATOM     32  C   UNL     1      18.429   6.256  20.976  0.00  0.00    +0.004 A 
ATOM     33  C   UNL     1      18.561   5.826  19.656  0.00  0.00    +0.038 A 
ENDBRANCH  25  27
ENDBRANCH  16   6
ENDBRANCH   9  16
TORSDOF 6
ENDMDL
MODEL 3
REMARK VINA RESULT:      -7.0     27.170     29.655
REMARK  Name = 38026953
REMARK  10 active torsions:
REMARK  status: ('A' for Active; 'I' for Inactive)
REMARK    1  A    between atoms: N_6  and  C_16
REMARK    2  A    between atoms: C_8  and  C_12
REMARK    3  A    between atoms: C_9  and  C_16
REMARK    4  A    between atoms: C_11  and  C_15
REMARK    5  A    between atoms: C_12  and  C_17
REMARK    6  A    between atoms: C_12  and  C_18
REMARK    7  A    between atoms: C_13  and  C_19
REMARK    8  A    between atoms: C_15  and  C_20
REMARK    9  A    between atoms: C_25  and  C_27
REMARK   10  A    between atoms: C_26  and  C_28
REMARK                            x       y       z     vdW  Elec       q    Type
REMARK                         _______ _______ _______ _____ _____    ______ ____
ROOT
ATOM      8  C   UNL     1      13.102   9.278  20.029  0.00  0.00    +0.000 C 
ATOM      9  C   UNL     1      12.214   8.240  19.298  0.00  0.00    +0.032 C 
ATOM     10  C   UNL     1      12.925  10.670  19.404  0.00  0.00    +0.012 C 
ATOM     11  C   UNL     1      13.286  10.687  17.907  0.00  0.00    +0.023 C 
ATOM     13  C   UNL     1      12.657   9.526  17.163  0.00  0.00    -0.073 C 
ATOM     14  C   UNL     1      12.172   8.447  17.803  0.00  0.00    -0.022 C 
ATOM     19  C   UNL     1      12.557   9.654  15.668  0.00  0.00    +0.039 C 
ENDROOT
BRANCH   8  12
ATOM     12  C   UNL     1      12.791   9.339  21.528  0.00  0.00    -0.013 C 
ATOM     17  C   UNL     1      14.045   9.699  22.318  0.00  0.00    +0.007 C 
ATOM     18  C   UNL     1      11.674  10.341  21.799  0.00  0.00    +0.007 C 
ENDBRANCH   8  12
BRANCH  11  15
ATOM     15  C   UNL     1      14.805  10.710  17.705  0.00  0.00    +0.103 C 
BRANCH  15  20
ATOM      2  O   UNL     1      15.156  13.009  18.158  0.00  0.00    -0.276 OA
ATOM      4  O   UNL     1      16.421  12.131  11.178  0.00  0.00    -0.276 OA
ATOM      5  N   UNL     1      15.751  12.267  16.039  0.00  0.00    -0.298 N 
ATOM      7  N   UNL     1      15.765  12.886  13.274  0.00  0.00    -0.299 N 
ATOM     20  C   UNL     1      15.251  12.100  17.329  0.00  0.00    +0.216 C 
ATOM     21  C   UNL     1      16.203  13.587  15.594  0.00  0.00    +0.126 C 
ATOM     22  C   UNL     1      15.947  11.193  15.055  0.00  0.00    +0.126 C 
ATOM     23  C   UNL     1      15.569  13.959  14.256  0.00  0.00    +0.126 C 
ATOM     24  C   UNL     1      15.313  11.565  13.717  0.00  0.00    +0.126 C 
ATOM     26  C   UNL     1      16.266  13.052  11.984  0.00  0.00    +0.213 C 
ATOM     28  C   UNL     1      16.638  14.457  11.580  0.00  0.00    +0.109 C 
ENDBRANCH  15  20
ENDBRANCH  11  15
BRANCH   9  16
ATOM     16  C   UNL     1      12.671   6.809  19.603  0.00  0.00    +0.112 C 
BRANCH  16   6
ATOM      3  O   UNL     1      15.004   6.878  17.930  0.00  0.00    -0.270 OA
ATOM      6  N   UNL     1      14.033   6.793  20.037  0.00  0.00    -0.311 N 
ATOM     25  C   UNL     1      15.112   6.829  19.153  0.00  0.00    +0.244 C 
ATOM     34  H   UNL     1      14.202   6.846  21.036  0.00  0.00    +0.149 HD
BRANCH  25  27
ATOM      1  F   UNL     1      18.420   8.502  22.300  0.00  0.00    -0.205 F 
ATOM     27  C   UNL     1      16.466   6.778  19.761  0.00  0.00    +0.039 A 
ATOM     29  C   UNL     1      16.814   7.681  20.765  0.00  0.00    +0.051 A 
ATOM     30  C   UNL     1      17.390   5.827  19.327  0.00  0.00    +0.013 A 
ATOM     31  C   UNL     1      18.086   7.634  21.336  0.00  0.00    +0.124 A 
ATOM     32  C   UNL     1      18.662   5.779  19.898  0.00  0.00    +0.004 A 
ATOM     33  C   UNL     1      19.010   6.683  20.902  0.00  0.00    +0.038 A 
ENDBRANCH  25  27
ENDBRANCH  16   6
ENDBRANCH   9  16
TORSDOF 6
ENDMDL
MODEL 4
REMARK VINA RESULT:      -7.0     23.791     26.257
REMARK  Name = 38026953
REMARK  10 active torsions:
REMARK  status: ('A' for Active; 'I' for Inactive)
REMARK    1  A    between atoms: N_6  and  C_16
REMARK    2  A    between atoms: C_8  and  C_12
REMARK    3  A    between atoms: C_9  and  C_16
REMARK    4  A    between atoms: C_11  and  C_15
REMARK    5  A    between atoms: C_12  and  C_17
REMARK    6  A    between atoms: C_12  and  C_18
REMARK    7  A    between atoms: C_13  and  C_19
REMARK    8  A    between atoms: C_15  and  C_20
REMARK    9  A    between atoms: C_25  and  C_27
REMARK   10  A    between atoms: C_26  and  C_28
REMARK                            x       y       z     vdW  Elec       q    Type
REMARK                         _______ _______ _______ _____ _____    ______ ____
ROOT
ATOM      8  C   UNL     1       8.911   8.535   4.849  0.00  0.00    +0.000 C 
ATOM      9  C   UNL     1       8.582   9.187   6.215  0.00  0.00    +0.032 C 
ATOM     10  C   UNL     1       8.432   7.077   4.821  0.00  0.00    +0.012 C 
ATOM     11  C   UNL     1       9.077   6.230   5.934  0.00  0.00    +0.023 C 
ATOM     13  C   UNL     1       9.029   6.932   7.275  0.00  0.00    -0.073 C 
ATOM     14  C   UNL     1       8.794   8.253   7.382  0.00  0.00    -0.022 C 
ATOM     19  C   UNL     1       9.214   6.075   8.496  0.00  0.00    +0.039 C 
ENDROOT
BRANCH   8  12
ATOM     12  C   UNL     1       8.286   9.309   3.683  0.00  0.00    -0.013 C 
ATOM     17  C   UNL     1       8.437   8.527   2.382  0.00  0.00    +0.007 C 
ATOM     18  C   UNL     1       6.817   9.605   3.969  0.00  0.00    +0.007 C 
ENDBRANCH   8  12
BRANCH  11  15
ATOM     15  C   UNL     1      10.514   5.841   5.569  0.00  0.00    +0.103 C 
BRANCH  15  20
ATOM      2  O   UNL     1      10.019   3.584   5.043  0.00  0.00    -0.276 OA
ATOM      4  O   UNL     1      13.990   6.069  -0.356  0.00  0.00    -0.276 OA
ATOM      5  N   UNL     1      11.060   4.831   3.383  0.00  0.00    -0.298 N 
ATOM      7  N   UNL     1      13.010   4.805   1.328  0.00  0.00    -0.299 N 
ATOM     20  C   UNL     1      10.504   4.647   4.648  0.00  0.00    +0.216 C 
ATOM     21  C   UNL     1      11.093   3.720   2.429  0.00  0.00    +0.126 C 
ATOM     22  C   UNL     1      11.576   6.102   2.856  0.00  0.00    +0.126 C 
ATOM     23  C   UNL     1      12.494   3.535   1.854  0.00  0.00    +0.126 C 
ATOM     24  C   UNL     1      12.978   5.917   2.281  0.00  0.00    +0.126 C 
ATOM     26  C   UNL     1      13.564   4.990   0.062  0.00  0.00    +0.213 C 
ATOM     28  C   UNL     1      13.627   3.776  -0.830  0.00  0.00    +0.109 C 
ENDBRANCH  15  20
ENDBRANCH  11  15
BRANCH   9  16
ATOM     16  C   UNL     1       9.400  10.465   6.429  0.00  0.00    +0.112 C 
BRANCH  16   6
ATOM      3  O   UNL     1      11.433  10.456   8.457  0.00  0.00    -0.270 OA
ATOM      6  N   UNL     1      10.794  10.214   6.238  0.00  0.00    -0.311 N 
ATOM     25  C   UNL     1      11.717  10.229   7.284  0.00  0.00    +0.244 C 
ATOM     34  H   UNL     1      11.091   9.928   5.311  0.00  0.00    +0.149 HD
BRANCH  25  27
ATOM      1  F   UNL     1      15.291   7.197   5.985  0.00  0.00    -0.205 F 
ATOM     27  C   UNL     1      13.134   9.975   6.917  0.00  0.00    +0.039 A 
ATOM     29  C   UNL     1      13.556   8.680   6.617  0.00  0.00    +0.051 A 
ATOM     30  C   UNL     1      14.044  11.032   6.874  0.00  0.00    +0.013 A 
ATOM     31  C   UNL     1      14.887   8.441   6.273  0.00  0.00    +0.124 A 
ATOM     32  C   UNL     1      15.374  10.794   6.529  0.00  0.00    +0.004 A 
ATOM     33  C   UNL     1      15.795   9.498   6.229  0.00  0.00    +0.038 A 
ENDBRANCH  25  27
ENDBRANCH  16   6
ENDBRANCH   9  16
TORSDOF 6
ENDMDL
MODEL 5
REMARK VINA RESULT:      -6.9      2.737      4.407
REMARK  Name = 38026953
REMARK  10 active torsions:
REMARK  status: ('A' for Active; 'I' for Inactive)
REMARK    1  A    between atoms: N_6  and  C_16
REMARK    2  A    between atoms: C_8  and  C_12
REMARK    3  A    between atoms: C_9  and  C_16
REMARK    4  A    between atoms: C_11  and  C_15
REMARK    5  A    between atoms: C_12  and  C_17
REMARK    6  A    between atoms: C_12  and  C_18
REMARK    7  A    between atoms: C_13  and  C_19
REMARK    8  A    between atoms: C_15  and  C_20
REMARK    9  A    between atoms: C_25  and  C_27
REMARK   10  A    between atoms: C_26  and  C_28
REMARK                            x       y       z     vdW  Elec       q    Type
REMARK                         _______ _______ _______ _____ _____    ______ ____
ROOT
ATOM      8  C   UNL     1      -4.906 -12.190  16.070  0.00  0.00    +0.000 C 
ATOM      9  C   UNL     1      -4.109 -11.623  17.271  0.00  0.00    +0.032 C 
ATOM     10  C   UNL     1      -3.948 -12.662  14.966  0.00  0.00    +0.012 C 
ATOM     11  C   UNL     1      -3.040 -11.527  14.457  0.00  0.00    +0.023 C 
ATOM     13  C   UNL     1      -2.423 -10.745  15.598  0.00  0.00    -0.073 C 
ATOM     14  C   UNL     1      -2.907 -10.810  16.852  0.00  0.00    -0.022 C 
ATOM     19  C   UNL     1      -1.209  -9.918  15.276  0.00  0.00    +0.039 C 
ENDROOT
BRANCH   8  12
ATOM     12  C   UNL     1      -5.823 -13.343  16.490  0.00  0.00    -0.013 C 
ATOM     17  C   UNL     1      -7.118 -13.313  15.684  0.00  0.00    +0.007 C 
ATOM     18  C   UNL     1      -5.110 -14.680  16.317  0.00  0.00    +0.007 C 
ENDBRANCH   8  12
BRANCH  11  15
ATOM     15  C   UNL     1      -3.799 -10.599  13.503  0.00  0.00    +0.103 C 
BRANCH  15  20
ATOM      2  O   UNL     1      -2.167 -11.124  11.867  0.00  0.00    -0.276 OA
ATOM      4  O   UNL     1      -8.035  -9.180   8.280  0.00  0.00    -0.276 OA
ATOM      5  N   UNL     1      -4.319 -10.721  11.092  0.00  0.00    -0.298 N 
ATOM      7  N   UNL     1      -5.870  -9.518   9.049  0.00  0.00    -0.299 N 
ATOM     20  C   UNL     1      -3.348 -10.840  12.085  0.00  0.00    +0.216 C 
ATOM     21  C   UNL     1      -3.961 -10.936   9.688  0.00  0.00    +0.126 C 
ATOM     22  C   UNL     1      -5.746 -10.458  11.323  0.00  0.00    +0.126 C 
ATOM     23  C   UNL     1      -4.444  -9.780   8.817  0.00  0.00    +0.126 C 
ATOM     24  C   UNL     1      -6.229  -9.302  10.453  0.00  0.00    +0.126 C 
ATOM     26  C   UNL     1      -6.842  -9.400   8.057  0.00  0.00    +0.213 C 
ATOM     28  C   UNL     1      -6.375  -9.562   6.632  0.00  0.00    +0.109 C 
ENDBRANCH  15  20
ENDBRANCH  11  15
BRANCH   9  16
ATOM     16  C   UNL     1      -5.006 -10.776  18.180  0.00  0.00    +0.112 C 
BRANCH  16   6
ATOM      3  O   UNL     1      -7.784 -10.592  18.883  0.00  0.00    -0.270 OA
ATOM      6  N   UNL     1      -6.037 -10.138  17.423  0.00  0.00    -0.311 N 
ATOM     25  C   UNL     1      -7.368 -10.094  17.840  0.00  0.00    +0.244 C 
ATOM     34  H   UNL     1      -5.754  -9.625  16.595  0.00  0.00    +0.149 HD
BRANCH  25  27
ATOM      1  F   UNL     1     -10.859  -6.810  17.022  0.00  0.00    -0.205 F 
ATOM     27  C   UNL     1      -8.324  -9.417  16.927  0.00  0.00    +0.039 A 
ATOM     29  C   UNL     1      -9.159  -8.412  17.412  0.00  0.00    +0.051 A 
ATOM     30  C   UNL     1      -8.388  -9.788  15.583  0.00  0.00    +0.013 A 
ATOM     31  C   UNL     1     -10.058  -7.776  16.555  0.00  0.00    +0.124 A 
ATOM     32  C   UNL     1      -9.285  -9.152  14.726  0.00  0.00    +0.004 A 
ATOM     33  C   UNL     1     -10.120  -8.147  15.212  0.00  0.00    +0.038 A 
ENDBRANCH  25  27
ENDBRANCH  16   6
ENDBRANCH   9  16
TORSDOF 6
ENDMDL
MODEL 6
REMARK VINA RESULT:      -6.8     23.477     25.627
REMARK  Name = 38026953
REMARK  10 active torsions:
REMARK  status: ('A' for Active; 'I' for Inactive)
REMARK    1  A    between atoms: N_6  and  C_16
REMARK    2  A    between atoms: C_8  and  C_12
REMARK    3  A    between atoms: C_9  and  C_16
REMARK    4  A    between atoms: C_11  and  C_15
REMARK    5  A    between atoms: C_12  and  C_17
REMARK    6  A    between atoms: C_12  and  C_18
REMARK    7  A    between atoms: C_13  and  C_19
REMARK    8  A    between atoms: C_15  and  C_20
REMARK    9  A    between atoms: C_25  and  C_27
REMARK   10  A    between atoms: C_26  and  C_28
REMARK                            x       y       z     vdW  Elec       q    Type
REMARK                         _______ _______ _______ _____ _____    ______ ____
ROOT
ATOM      8  C   UNL     1       8.992   8.456   5.090  0.00  0.00    +0.000 C 
ATOM      9  C   UNL     1       8.712   9.090   6.475  0.00  0.00    +0.032 C 
ATOM     10  C   UNL     1       8.473   7.011   5.047  0.00  0.00    +0.012 C 
ATOM     11  C   UNL     1       9.121   6.127   6.128  0.00  0.00    +0.023 C 
ATOM     13  C   UNL     1       9.123   6.804   7.483  0.00  0.00    -0.073 C 
ATOM     14  C   UNL     1       8.925   8.128   7.619  0.00  0.00    -0.022 C 
ATOM     19  C   UNL     1       9.312   5.919   8.683  0.00  0.00    +0.039 C 
ENDROOT
BRANCH   8  12
ATOM     12  C   UNL     1       8.361   9.268   3.954  0.00  0.00    -0.013 C 
ATOM     17  C   UNL     1       8.408   8.483   2.647  0.00  0.00    +0.007 C 
ATOM     18  C   UNL     1       6.926   9.648   4.305  0.00  0.00    +0.007 C 
ENDBRANCH   8  12
BRANCH  11  15
ATOM     15  C   UNL     1      10.538   5.707   5.722  0.00  0.00    +0.103 C 
BRANCH  15  20
ATOM      2  O   UNL     1       9.959   3.502   5.076  0.00  0.00    -0.276 OA
ATOM      4  O   UNL     1      13.927   6.167  -0.239  0.00  0.00    -0.276 OA
ATOM      5  N   UNL     1      11.015   4.810   3.473  0.00  0.00    -0.298 N 
ATOM      7  N   UNL     1      12.931   4.839   1.385  0.00  0.00    -0.299 N 
ATOM     20  C   UNL     1      10.473   4.571   4.734  0.00  0.00    +0.216 C 
ATOM     21  C   UNL     1      10.995   3.756   2.455  0.00  0.00    +0.126 C 
ATOM     22  C   UNL     1      11.566   6.091   3.011  0.00  0.00    +0.126 C 
ATOM     23  C   UNL     1      12.381   3.558   1.846  0.00  0.00    +0.126 C 
ATOM     24  C   UNL     1      12.952   5.894   2.401  0.00  0.00    +0.126 C 
ATOM     26  C   UNL     1      13.471   5.080   0.123  0.00  0.00    +0.213 C 
ATOM     28  C   UNL     1      13.479   3.919  -0.839  0.00  0.00    +0.109 C 
ENDBRANCH  15  20
ENDBRANCH  11  15
BRANCH   9  16
ATOM     16  C   UNL     1       9.568  10.342   6.694  0.00  0.00    +0.112 C 
BRANCH  16   6
ATOM      3  O   UNL     1      11.632  10.864   8.620  0.00  0.00    -0.270 OA
ATOM      6  N   UNL     1       9.391  10.854   8.016  0.00  0.00    -0.311 N 
ATOM     25  C   UNL     1      10.453  11.079   8.891  0.00  0.00    +0.244 C 
ATOM     34  H   UNL     1       8.455  11.142   8.280  0.00  0.00    +0.149 HD
BRANCH  25  27
ATOM      1  F   UNL     1      11.744  12.671  13.301  0.00  0.00    -0.205 F 
ATOM     27  C   UNL     1      10.101  11.588  10.241  0.00  0.00    +0.039 A 
ATOM     29  C   UNL     1      11.107  11.897  11.156  0.00  0.00    +0.051 A 
ATOM     30  C   UNL     1       8.761  11.756  10.596  0.00  0.00    +0.013 A 
ATOM     31  C   UNL     1      10.777  12.375  12.424  0.00  0.00    +0.124 A 
ATOM     32  C   UNL     1       8.430  12.234  11.864  0.00  0.00    +0.004 A 
ATOM     33  C   UNL     1       9.438  12.543  12.777  0.00  0.00    +0.038 A 
ENDBRANCH  25  27
ENDBRANCH  16   6
ENDBRANCH   9  16
TORSDOF 6
ENDMDL
MODEL 7
REMARK VINA RESULT:      -6.5     27.477     30.506
REMARK  Name = 38026953
REMARK  10 active torsions:
REMARK  status: ('A' for Active; 'I' for Inactive)
REMARK    1  A    between atoms: N_6  and  C_16
REMARK    2  A    between atoms: C_8  and  C_12
REMARK    3  A    between atoms: C_9  and  C_16
REMARK    4  A    between atoms: C_11  and  C_15
REMARK    5  A    between atoms: C_12  and  C_17
REMARK    6  A    between atoms: C_12  and  C_18
REMARK    7  A    between atoms: C_13  and  C_19
REMARK    8  A    between atoms: C_15  and  C_20
REMARK    9  A    between atoms: C_25  and  C_27
REMARK   10  A    between atoms: C_26  and  C_28
REMARK                            x       y       z     vdW  Elec       q    Type
REMARK                         _______ _______ _______ _____ _____    ______ ____
ROOT
ATOM      8  C   UNL     1      14.898   8.206  20.354  0.00  0.00    +0.000 C 
ATOM      9  C   UNL     1      14.125   7.113  19.574  0.00  0.00    +0.032 C 
ATOM     10  C   UNL     1      14.428   8.255  21.815  0.00  0.00    +0.012 C 
ATOM     11  C   UNL     1      12.920   8.544  21.934  0.00  0.00    +0.023 C 
ATOM     13  C   UNL     1      12.106   7.683  20.991  0.00  0.00    -0.073 C 
ATOM     14  C   UNL     1      12.664   7.040  19.949  0.00  0.00    -0.022 C 
ATOM     19  C   UNL     1      10.641   7.540  21.299  0.00  0.00    +0.039 C 
ENDROOT
BRANCH   8  12
ATOM     12  C   UNL     1      16.412   7.979  20.302  0.00  0.00    -0.013 C 
ATOM     17  C   UNL     1      17.147   9.132  20.979  0.00  0.00    +0.007 C 
ATOM     18  C   UNL     1      16.773   6.650  20.955  0.00  0.00    +0.007 C 
ENDBRANCH   8  12
BRANCH  11  15
ATOM     15  C   UNL     1      12.624  10.032  21.713  0.00  0.00    +0.103 C 
BRANCH  15  20
ATOM      2  O   UNL     1      10.765  10.394  23.137  0.00  0.00    -0.276 OA
ATOM      4  O   UNL     1      16.003  14.598  25.581  0.00  0.00    -0.276 OA
ATOM      5  N   UNL     1      12.770  11.373  23.781  0.00  0.00    -0.298 N 
ATOM      7  N   UNL     1      13.983  13.675  24.902  0.00  0.00    -0.299 N 
ATOM     20  C   UNL     1      11.963  10.611  22.938  0.00  0.00    +0.216 C 
ATOM     21  C   UNL     1      12.204  11.974  24.990  0.00  0.00    +0.126 C 
ATOM     22  C   UNL     1      14.214  11.588  23.613  0.00  0.00    +0.126 C 
ATOM     23  C   UNL     1      12.540  13.460  25.071  0.00  0.00    +0.126 C 
ATOM     24  C   UNL     1      14.551  13.074  23.693  0.00  0.00    +0.126 C 
ATOM     26  C   UNL     1      14.792  14.435  25.746  0.00  0.00    +0.213 C 
ATOM     28  C   UNL     1      14.113  15.081  26.928  0.00  0.00    +0.109 C 
ENDBRANCH  15  20
ENDBRANCH  11  15
BRANCH   9  16
ATOM     16  C   UNL     1      14.254   7.317  18.061  0.00  0.00    +0.112 C 
BRANCH  16   6
ATOM      3  O   UNL     1      13.748   8.489  15.489  0.00  0.00    -0.270 OA
ATOM      6  N   UNL     1      14.283   8.708  17.737  0.00  0.00    -0.311 N 
ATOM     25  C   UNL     1      14.024   9.195  16.456  0.00  0.00    +0.244 C 
ATOM     34  H   UNL     1      14.413   9.360  18.504  0.00  0.00    +0.149 HD
BRANCH  25  27
ATOM      1  F   UNL     1      14.313  13.113  13.590  0.00  0.00    -0.205 F 
ATOM     27  C   UNL     1      14.120  10.666  16.276  0.00  0.00    +0.039 A 
ATOM     29  C   UNL     1      14.172  11.210  14.992  0.00  0.00    +0.051 A 
ATOM     30  C   UNL     1      14.160  11.504  17.390  0.00  0.00    +0.013 A 
ATOM     31  C   UNL     1      14.263  12.591  14.822  0.00  0.00    +0.124 A 
ATOM     32  C   UNL     1      14.251  12.886  17.221  0.00  0.00    +0.004 A 
ATOM     33  C   UNL     1      14.302  13.429  15.937  0.00  0.00    +0.038 A 
ENDBRANCH  25  27
ENDBRANCH  16   6
ENDBRANCH   9  16
TORSDOF 6
ENDMDL
MODEL 8
REMARK VINA RESULT:      -6.5      3.791      6.866
REMARK  Name = 38026953
REMARK  10 active torsions:
REMARK  status: ('A' for Active; 'I' for Inactive)
REMARK    1  A    between atoms: N_6  and  C_16
REMARK    2  A    between atoms: C_8  and  C_12
REMARK    3  A    between atoms: C_9  and  C_16
REMARK    4  A    between atoms: C_11  and  C_15
REMARK    5  A    between atoms: C_12  and  C_17
REMARK    6  A    between atoms: C_12  and  C_18
REMARK    7  A    between atoms: C_13  and  C_19
REMARK    8  A    between atoms: C_15  and  C_20
REMARK    9  A    between atoms: C_25  and  C_27
REMARK   10  A    between atoms: C_26  and  C_28
REMARK                            x       y       z     vdW  Elec       q    Type
REMARK                         _______ _______ _______ _____ _____    ______ ____
ROOT
ATOM      8  C   UNL     1      -7.780 -11.915  17.293  0.00  0.00    +0.000 C 
ATOM      9  C   UNL     1      -7.664 -12.068  18.830  0.00  0.00    +0.032 C 
ATOM     10  C   UNL     1      -6.627 -12.650  16.593  0.00  0.00    +0.012 C 
ATOM     11  C   UNL     1      -5.248 -12.125  17.033  0.00  0.00    +0.023 C 
ATOM     13  C   UNL     1      -5.150 -11.994  18.539  0.00  0.00    -0.073 C 
ATOM     14  C   UNL     1      -6.240 -11.983  19.327  0.00  0.00    -0.022 C 
ATOM     19  C   UNL     1      -3.767 -11.920  19.124  0.00  0.00    +0.039 C 
ENDROOT
BRANCH   8  12
ATOM     12  C   UNL     1      -9.122 -12.435  16.769  0.00  0.00    -0.013 C 
ATOM     17  C   UNL     1      -9.508 -11.712  15.482  0.00  0.00    +0.007 C 
ATOM     18  C   UNL     1      -9.057 -13.942  16.544  0.00  0.00    +0.007 C 
ENDBRANCH   8  12
BRANCH  11  15
ATOM     15  C   UNL     1      -4.916 -10.797  16.343  0.00  0.00    +0.103 C 
BRANCH  15  20
ATOM      2  O   UNL     1      -2.748 -11.295  15.527  0.00  0.00    -0.276 OA
ATOM      4  O   UNL     1      -6.645  -9.429   9.833  0.00  0.00    -0.276 OA
ATOM      5  N   UNL     1      -4.395 -10.921  13.933  0.00  0.00    -0.298 N 
ATOM      7  N   UNL     1      -4.985  -9.736  11.428  0.00  0.00    -0.299 N 
ATOM     20  C   UNL     1      -3.917 -11.029  15.238  0.00  0.00    +0.216 C 
ATOM     21  C   UNL     1      -3.488 -11.128  12.802  0.00  0.00    +0.126 C 
ATOM     22  C   UNL     1      -5.794 -10.681  13.555  0.00  0.00    +0.126 C 
ATOM     23  C   UNL     1      -3.586  -9.977  11.805  0.00  0.00    +0.126 C 
ATOM     24  C   UNL     1      -5.893  -9.529  12.558  0.00  0.00    +0.126 C 
ATOM     26  C   UNL     1      -5.464  -9.631  10.123  0.00  0.00    +0.213 C 
ATOM     28  C   UNL     1      -4.449  -9.783   9.017  0.00  0.00    +0.109 C 
ENDBRANCH  15  20
ENDBRANCH  11  15
BRANCH   9  16
ATOM     16  C   UNL     1      -8.521 -11.025  19.556  0.00  0.00    +0.112 C 
BRANCH  16   6
ATOM      3  O   UNL     1     -11.202 -10.006  19.695  0.00  0.00    -0.270 OA
ATOM      6  N   UNL     1      -9.149 -10.145  18.621  0.00  0.00    -0.311 N 
ATOM     25  C   UNL     1     -10.461  -9.696  18.765  0.00  0.00    +0.244 C 
ATOM     34  H   UNL     1      -8.571  -9.772  17.875  0.00  0.00    +0.149 HD
BRANCH  25  27
ATOM      1  F   UNL     1      -9.813  -6.116  15.538  0.00  0.00    -0.205 F 
ATOM     27  C   UNL     1     -10.977  -8.807  17.693  0.00  0.00    +0.039 A 
ATOM     29  C   UNL     1     -10.136  -7.860  17.107  0.00  0.00    +0.051 A 
ATOM     30  C   UNL     1     -12.303  -8.916  17.273  0.00  0.00    +0.013 A 
ATOM     31  C   UNL     1     -10.620  -7.024  16.101  0.00  0.00    +0.124 A 
ATOM     32  C   UNL     1     -12.787  -8.081  16.266  0.00  0.00    +0.004 A 
ATOM     33  C   UNL     1     -11.946  -7.135  15.680  0.00  0.00    +0.038 A 
ENDBRANCH  25  27
ENDBRANCH  16   6
ENDBRANCH   9  16
TORSDOF 6
ENDMDL
MODEL 9
REMARK VINA RESULT:      -6.4     28.988     31.655
REMARK  Name = 38026953
REMARK  10 active torsions:
REMARK  status: ('A' for Active; 'I' for Inactive)
REMARK    1  A    between atoms: N_6  and  C_16
REMARK    2  A    between atoms: C_8  and  C_12
REMARK    3  A    between atoms: C_9  and  C_16
REMARK    4  A    between atoms: C_11  and  C_15
REMARK    5  A    between atoms: C_12  and  C_17
REMARK    6  A    between atoms: C_12  and  C_18
REMARK    7  A    between atoms: C_13  and  C_19
REMARK    8  A    between atoms: C_15  and  C_20
REMARK    9  A    between atoms: C_25  and  C_27
REMARK   10  A    between atoms: C_26  and  C_28
REMARK                            x       y       z     vdW  Elec       q    Type
REMARK                         _______ _______ _______ _____ _____    ______ ____
ROOT
ATOM      8  C   UNL     1      20.966   5.721  21.967  0.00  0.00    +0.000 C 
ATOM      9  C   UNL     1      21.443   6.921  22.823  0.00  0.00    +0.032 C 
ATOM     10  C   UNL     1      20.345   6.214  20.651  0.00  0.00    +0.012 C 
ATOM     11  C   UNL     1      19.147   7.153  20.888  0.00  0.00    +0.023 C 
ATOM     13  C   UNL     1      19.457   8.210  21.928  0.00  0.00    -0.073 C 
ATOM     14  C   UNL     1      20.496   8.095  22.775  0.00  0.00    -0.022 C 
ATOM     19  C   UNL     1      18.572   9.426  21.942  0.00  0.00    +0.039 C 
ENDROOT
BRANCH   8  12
ATOM     12  C   UNL     1      22.108   4.745  21.668  0.00  0.00    -0.013 C 
ATOM     17  C   UNL     1      21.552   3.398  21.214  0.00  0.00    +0.007 C 
ATOM     18  C   UNL     1      23.043   5.327  20.614  0.00  0.00    +0.007 C 
ENDBRANCH   8  12
BRANCH  11  15
ATOM     15  C   UNL     1      17.891   6.361  21.268  0.00  0.00    +0.103 C 
BRANCH  15  20
ATOM      2  O   UNL     1      17.269   6.188  18.988  0.00  0.00    -0.276 OA
ATOM      4  O   UNL     1      11.560   8.769  22.428  0.00  0.00    -0.276 OA
ATOM      5  N   UNL     1      15.577   6.722  20.487  0.00  0.00    -0.298 N 
ATOM      7  N   UNL     1      13.264   8.300  20.922  0.00  0.00    -0.299 N 
ATOM     20  C   UNL     1      16.891   6.413  20.141  0.00  0.00    +0.216 C 
ATOM     21  C   UNL     1      14.545   6.796  19.450  0.00  0.00    +0.126 C 
ATOM     22  C   UNL     1      15.081   6.922  21.856  0.00  0.00    +0.126 C 
ATOM     23  C   UNL     1      13.759   8.101  19.554  0.00  0.00    +0.126 C 
ATOM     24  C   UNL     1      14.295   8.226  21.960  0.00  0.00    +0.126 C 
ATOM     26  C   UNL     1      11.950   8.607  21.269  0.00  0.00    +0.213 C 
ATOM     28  C   UNL     1      10.965   8.738  20.134  0.00  0.00    +0.109 C 
ENDBRANCH  15  20
ENDBRANCH  11  15
BRANCH   9  16
ATOM     16  C   UNL     1      21.669   6.505  24.280  0.00  0.00    +0.112 C 
BRANCH  16   6
ATOM      3  O   UNL     1      19.928   6.284  26.553  0.00  0.00    -0.270 OA
ATOM      6  N   UNL     1      21.293   7.557  25.172  0.00  0.00    -0.311 N 
ATOM     25  C   UNL     1      20.438   7.362  26.257  0.00  0.00    +0.244 C 
ATOM     34  H   UNL     1      21.746   8.455  25.046  0.00  0.00    +0.149 HD
BRANCH  25  27
ATOM      1  F   UNL     1      19.982  12.181  26.723  0.00  0.00    -0.205 F 
ATOM     27  C   UNL     1      20.122   8.562  27.073  0.00  0.00    +0.039 A 
ATOM     29  C   UNL     1      20.202   9.833  26.504  0.00  0.00    +0.051 A 
ATOM     30  C   UNL     1      19.748   8.419  28.409  0.00  0.00    +0.013 A 
ATOM     31  C   UNL     1      19.906  10.961  27.270  0.00  0.00    +0.124 A 
ATOM     32  C   UNL     1      19.452   9.546  29.176  0.00  0.00    +0.004 A 
ATOM     33  C   UNL     1      19.531  10.817  28.606  0.00  0.00    +0.038 A 
ENDBRANCH  25  27
ENDBRANCH  16   6
ENDBRANCH   9  16
TORSDOF 6
ENDMDL
MODEL 10
REMARK VINA RESULT:      -6.3     25.420     28.932
REMARK  Name = 38026953
REMARK  10 active torsions:
REMARK  status: ('A' for Active; 'I' for Inactive)
REMARK    1  A    between atoms: N_6  and  C_16
REMARK    2  A    between atoms: C_8  and  C_12
REMARK    3  A    between atoms: C_9  and  C_16
REMARK    4  A    between atoms: C_11  and  C_15
REMARK    5  A    between atoms: C_12  and  C_17
REMARK    6  A    between atoms: C_12  and  C_18
REMARK    7  A    between atoms: C_13  and  C_19
REMARK    8  A    between atoms: C_15  and  C_20
REMARK    9  A    between atoms: C_25  and  C_27
REMARK   10  A    between atoms: C_26  and  C_28
REMARK                            x       y       z     vdW  Elec       q    Type
REMARK                         _______ _______ _______ _____ _____    ______ ____
ROOT
ATOM      8  C   UNL     1      17.939  -3.169  23.744  0.00  0.00    +0.000 C 
ATOM      9  C   UNL     1      18.881  -4.198  23.071  0.00  0.00    +0.032 C 
ATOM     10  C   UNL     1      18.755  -2.071  24.442  0.00  0.00    +0.012 C 
ATOM     11  C   UNL     1      19.701  -2.642  25.515  0.00  0.00    +0.023 C 
ATOM     13  C   UNL     1      20.476  -3.838  25.004  0.00  0.00    -0.073 C 
ATOM     14  C   UNL     1      20.102  -4.514  23.902  0.00  0.00    -0.022 C 
ATOM     19  C   UNL     1      21.718  -4.216  25.763  0.00  0.00    +0.039 C 
ENDROOT
BRANCH   8  12
ATOM     12  C   UNL     1      16.974  -2.537  22.735  0.00  0.00    -0.013 C 
ATOM     17  C   UNL     1      15.531  -2.887  23.087  0.00  0.00    +0.007 C 
ATOM     18  C   UNL     1      17.168  -1.025  22.689  0.00  0.00    +0.007 C 
ENDBRANCH   8  12
BRANCH  11  15
ATOM     15  C   UNL     1      18.936  -2.989  26.797  0.00  0.00    +0.103 C 
BRANCH  15  20
ATOM      2  O   UNL     1      20.560  -1.617  27.844  0.00  0.00    -0.276 OA
ATOM      4  O   UNL     1      15.683  -3.116  32.850  0.00  0.00    -0.276 OA
ATOM      5  N   UNL     1      18.647  -2.083  29.075  0.00  0.00    -0.298 N 
ATOM      7  N   UNL     1      17.625  -2.706  31.644  0.00  0.00    -0.299 N 
ATOM     20  C   UNL     1      19.460  -2.167  27.946  0.00  0.00    +0.216 C 
ATOM     21  C   UNL     1      19.084  -1.306  30.237  0.00  0.00    +0.126 C 
ATOM     22  C   UNL     1      17.302  -2.662  29.201  0.00  0.00    +0.126 C 
ATOM     23  C   UNL     1      18.969  -2.127  31.519  0.00  0.00    +0.126 C 
ATOM     24  C   UNL     1      17.186  -3.483  30.483  0.00  0.00    +0.126 C 
ATOM     26  C   UNL     1      16.810  -2.621  32.772  0.00  0.00    +0.213 C 
ATOM     28  C   UNL     1      17.368  -1.865  33.951  0.00  0.00    +0.109 C 
ENDBRANCH  15  20
ENDBRANCH  11  15
BRANCH   9  16
ATOM     16  C   UNL     1      18.137  -5.497  22.743  0.00  0.00    +0.112 C 
BRANCH  16   6
ATOM      3  O   UNL     1      18.879  -7.667  24.471  0.00  0.00    -0.270 OA
ATOM      6  N   UNL     1      17.412  -5.968  23.880  0.00  0.00    -0.311 N 
ATOM     25  C   UNL     1      17.846  -7.034  24.669  0.00  0.00    +0.244 C 
ATOM     34  H   UNL     1      16.595  -5.437  24.162  0.00  0.00    +0.149 HD
BRANCH  25  27
ATOM      1  F   UNL     1      15.522  -5.956  28.802  0.00  0.00    -0.205 F 
ATOM     27  C   UNL     1      16.964  -7.420  25.800  0.00  0.00    +0.039 A 
ATOM     29  C   UNL     1      16.650  -6.488  26.790  0.00  0.00    +0.051 A 
ATOM     30  C   UNL     1      16.451  -8.715  25.875  0.00  0.00    +0.013 A 
ATOM     31  C   UNL     1      15.823  -6.850  27.853  0.00  0.00    +0.124 A 
ATOM     32  C   UNL     1      15.623  -9.078  26.937  0.00  0.00    +0.004 A 
ATOM     33  C   UNL     1      15.309  -8.145  27.926  0.00  0.00    +0.038 A 
ENDBRANCH  25  27
ENDBRANCH  16   6
ENDBRANCH   9  16
TORSDOF 6
ENDMDL
