MODEL 1
REMARK VINA RESULT:      -6.5      0.000      0.000
REMARK  Name = 45783566
REMARK  10 active torsions:
REMARK  status: ('A' for Active; 'I' for Inactive)
REMARK    1  A    between atoms: O_2  and  C_21
REMARK    2  A    between atoms: O_2  and  C_22
REMARK    3  A    between atoms: O_3  and  C_23
REMARK    4  A    between atoms: O_3  and  C_24
REMARK    5  A    between atoms: N_4  and  C_12
REMARK    6  A    between atoms: C_8  and  C_13
REMARK    7  A    between atoms: C_12  and  C_14
REMARK    8  A    between atoms: C_12  and  C_15
REMARK    9  A    between atoms: C_16  and  C_17
REMARK   10  A    between atoms: C_22  and  C_23
REMARK                            x       y       z     vdW  Elec       q    Type
REMARK                         _______ _______ _______ _____ _____    ______ ____
ROOT
ATOM      1  O   UNL     1      14.354   8.515  19.933  0.00  0.00    -0.336 OA
ATOM      5  N   UNL     1      15.144   6.436  19.668  0.00  0.00    -0.190 NA
ATOM      6  N   UNL     1      15.689   8.549  20.353  0.00  0.00    -0.056 NA
ATOM     13  C   UNL     1      14.114   7.234  19.546  0.00  0.00    +0.245 A 
ATOM     16  C   UNL     1      16.087   7.287  20.167  0.00  0.00    +0.204 A 
ENDROOT
BRANCH  16  17
ATOM      7  N   UNL     1      19.416   7.072  21.811  0.00  0.00    -0.221 NA
ATOM     17  C   UNL     1      17.417   6.844  20.469  0.00  0.00    +0.041 A 
ATOM     18  C   UNL     1      18.003   5.803  19.760  0.00  0.00    +0.018 A 
ATOM     19  C   UNL     1      18.159   7.441  21.476  0.00  0.00    +0.126 A 
ATOM     20  C   UNL     1      19.295   5.395  20.074  0.00  0.00    +0.068 A 
ATOM     21  C   UNL     1      19.953   6.055  21.099  0.00  0.00    +0.215 A 
BRANCH  21   2
ATOM      2  O   UNL     1      21.226   5.673  21.428  0.00  0.00    -0.474 OA
BRANCH   2  22
ATOM     22  C   UNL     1      21.658   4.404  20.952  0.00  0.00    +0.258 C 
BRANCH  22  23
ATOM     23  C   UNL     1      22.446   3.707  22.043  0.00  0.00    +0.200 C 
BRANCH  23   3
ATOM      3  O   UNL     1      22.038   4.215  23.307  0.00  0.00    -0.380 OA
ATOM     24  C   UNL     1      22.907   3.786  24.346  0.00  0.00    +0.194 C 
ENDBRANCH  23   3
ENDBRANCH  22  23
ENDBRANCH   2  22
ENDBRANCH  21   2
ENDBRANCH  16  17
BRANCH  13   8
ATOM      4  N   UNL     1      11.595   7.285  19.930  0.00  0.00    -0.289 NA
ATOM      8  C   UNL     1      12.711   6.930  19.038  0.00  0.00    +0.146 C 
ATOM      9  C   UNL     1      12.324   7.676  17.754  0.00  0.00    +0.030 C 
ATOM     10  C   UNL     1      11.273   8.688  19.700  0.00  0.00    +0.085 C 
ATOM     11  C   UNL     1      11.459   8.856  18.199  0.00  0.00    +0.017 C 
BRANCH   4  12
ATOM     12  C   UNL     1      11.747   6.943  21.332  0.00  0.00    +0.051 C 
ATOM     14  C   UNL     1      11.160   5.561  21.606  0.00  0.00    +0.024 C 
ATOM     15  C   UNL     1      11.068   8.005  22.190  0.00  0.00    +0.024 C 
ENDBRANCH   4  12
ENDBRANCH  13   8
TORSDOF 7
ENDMDL
MODEL 2
REMARK VINA RESULT:      -5.7      2.056      9.278
REMARK  Name = 45783566
REMARK  10 active torsions:
REMARK  status: ('A' for Active; 'I' for Inactive)
REMARK    1  A    between atoms: O_2  and  C_21
REMARK    2  A    between atoms: O_2  and  C_22
REMARK    3  A    between atoms: O_3  and  C_23
REMARK    4  A    between atoms: O_3  and  C_24
REMARK    5  A    between atoms: N_4  and  C_12
REMARK    6  A    between atoms: C_8  and  C_13
REMARK    7  A    between atoms: C_12  and  C_14
REMARK    8  A    between atoms: C_12  and  C_15
REMARK    9  A    between atoms: C_16  and  C_17
REMARK   10  A    between atoms: C_22  and  C_23
REMARK                            x       y       z     vdW  Elec       q    Type
REMARK                         _______ _______ _______ _____ _____    ______ ____
ROOT
ATOM      1  O   UNL     1      21.237   5.912  23.490  0.00  0.00    -0.336 OA
ATOM      5  N   UNL     1      21.126   6.155  21.267  0.00  0.00    -0.190 NA
ATOM      6  N   UNL     1      19.899   6.205  23.197  0.00  0.00    -0.056 NA
ATOM     13  C   UNL     1      21.890   5.902  22.299  0.00  0.00    +0.245 A 
ATOM     16  C   UNL     1      19.914   6.334  21.866  0.00  0.00    +0.204 A 
ENDROOT
BRANCH  16  17
ATOM      7  N   UNL     1      16.849   8.105  20.724  0.00  0.00    -0.221 NA
ATOM     17  C   UNL     1      18.736   6.642  21.108  0.00  0.00    +0.041 A 
ATOM     18  C   UNL     1      18.328   5.829  20.058  0.00  0.00    +0.018 A 
ATOM     19  C   UNL     1      17.969   7.759  21.399  0.00  0.00    +0.126 A 
ATOM     20  C   UNL     1      17.182   6.151  19.340  0.00  0.00    +0.068 A 
ATOM     21  C   UNL     1      16.484   7.290  19.709  0.00  0.00    +0.215 A 
BRANCH  21   2
ATOM      2  O   UNL     1      15.351   7.629  19.018  0.00  0.00    -0.474 OA
BRANCH   2  22
ATOM     22  C   UNL     1      14.249   8.097  19.786  0.00  0.00    +0.258 C 
BRANCH  22  23
ATOM     23  C   UNL     1      13.287   6.949  20.023  0.00  0.00    +0.200 C 
BRANCH  23   3
ATOM      3  O   UNL     1      12.075   7.206  19.323  0.00  0.00    -0.380 OA
ATOM     24  C   UNL     1      11.460   8.405  19.772  0.00  0.00    +0.194 C 
ENDBRANCH  23   3
ENDBRANCH  22  23
ENDBRANCH   2  22
ENDBRANCH  21   2
ENDBRANCH  16  17
BRANCH  13   8
ATOM      4  N   UNL     1      23.833   4.380  21.662  0.00  0.00    -0.289 NA
ATOM      8  C   UNL     1      23.382   5.603  22.346  0.00  0.00    +0.146 C 
ATOM      9  C   UNL     1      24.265   6.668  21.680  0.00  0.00    +0.030 C 
ATOM     10  C   UNL     1      24.038   4.709  20.256  0.00  0.00    +0.085 C 
ATOM     11  C   UNL     1      24.620   6.115  20.300  0.00  0.00    +0.017 C 
BRANCH   4  12
ATOM     12  C   UNL     1      23.037   3.185  21.871  0.00  0.00    +0.051 C 
ATOM     14  C   UNL     1      23.194   2.691  23.307  0.00  0.00    +0.024 C 
ATOM     15  C   UNL     1      23.460   2.112  20.874  0.00  0.00    +0.024 C 
ENDBRANCH   4  12
ENDBRANCH  13   8
TORSDOF 7
ENDMDL
MODEL 3
REMARK VINA RESULT:      -5.7     26.372     28.880
REMARK  Name = 45783566
REMARK  10 active torsions:
REMARK  status: ('A' for Active; 'I' for Inactive)
REMARK    1  A    between atoms: O_2  and  C_21
REMARK    2  A    between atoms: O_2  and  C_22
REMARK    3  A    between atoms: O_3  and  C_23
REMARK    4  A    between atoms: O_3  and  C_24
REMARK    5  A    between atoms: N_4  and  C_12
REMARK    6  A    between atoms: C_8  and  C_13
REMARK    7  A    between atoms: C_12  and  C_14
REMARK    8  A    between atoms: C_12  and  C_15
REMARK    9  A    between atoms: C_16  and  C_17
REMARK   10  A    between atoms: C_22  and  C_23
REMARK                            x       y       z     vdW  Elec       q    Type
REMARK                         _______ _______ _______ _____ _____    ______ ____
ROOT
ATOM      1  O   UNL     1      -1.489 -10.392  14.188  0.00  0.00    -0.336 OA
ATOM      5  N   UNL     1      -3.659 -10.919  14.012  0.00  0.00    -0.190 NA
ATOM      6  N   UNL     1      -2.023 -10.279  15.478  0.00  0.00    -0.056 NA
ATOM     13  C   UNL     1      -2.519 -10.773  13.386  0.00  0.00    +0.245 A 
ATOM     16  C   UNL     1      -3.306 -10.606  15.292  0.00  0.00    +0.204 A 
ENDROOT
BRANCH  16  17
ATOM      7  N   UNL     1      -6.408  -9.939  17.232  0.00  0.00    -0.221 NA
ATOM     17  C   UNL     1      -4.259 -10.627  16.364  0.00  0.00    +0.041 A 
ATOM     18  C   UNL     1      -3.998 -11.321  17.540  0.00  0.00    +0.018 A 
ATOM     19  C   UNL     1      -5.468  -9.959  16.260  0.00  0.00    +0.126 A 
ATOM     20  C   UNL     1      -4.940 -11.324  18.563  0.00  0.00    +0.068 A 
ATOM     21  C   UNL     1      -6.119 -10.625  18.361  0.00  0.00    +0.215 A 
BRANCH  21   2
ATOM      2  O   UNL     1      -7.063 -10.612  19.353  0.00  0.00    -0.474 OA
BRANCH   2  22
ATOM     22  C   UNL     1      -7.651 -11.862  19.695  0.00  0.00    +0.258 C 
BRANCH  22  23
ATOM     23  C   UNL     1      -9.155 -11.764  19.528  0.00  0.00    +0.200 C 
BRANCH  23   3
ATOM      3  O   UNL     1      -9.644 -10.706  20.343  0.00  0.00    -0.380 OA
ATOM     24  C   UNL     1     -10.878 -10.199  19.853  0.00  0.00    +0.194 C 
ENDBRANCH  23   3
ENDBRANCH  22  23
ENDBRANCH   2  22
ENDBRANCH  21   2
ENDBRANCH  16  17
BRANCH  13   8
ATOM      4  N   UNL     1      -3.246 -11.574  11.079  0.00  0.00    -0.289 NA
ATOM      8  C   UNL     1      -2.195 -10.967  11.912  0.00  0.00    +0.146 C 
ATOM      9  C   UNL     1      -1.911  -9.667  11.146  0.00  0.00    +0.030 C 
ATOM     10  C   UNL     1      -4.139 -10.505  10.646  0.00  0.00    +0.085 C 
ATOM     11  C   UNL     1      -3.199  -9.335  10.393  0.00  0.00    +0.017 C 
BRANCH   4  12
ATOM     12  C   UNL     1      -3.937 -12.722  11.635  0.00  0.00    +0.051 C 
ATOM     14  C   UNL     1      -3.050 -13.961  11.556  0.00  0.00    +0.024 C 
ATOM     15  C   UNL     1      -5.247 -12.939  10.885  0.00  0.00    +0.024 C 
ENDBRANCH   4  12
ENDBRANCH  13   8
TORSDOF 7
ENDMDL
MODEL 4
REMARK VINA RESULT:      -5.6     16.012     19.360
REMARK  Name = 45783566
REMARK  10 active torsions:
REMARK  status: ('A' for Active; 'I' for Inactive)
REMARK    1  A    between atoms: O_2  and  C_21
REMARK    2  A    between atoms: O_2  and  C_22
REMARK    3  A    between atoms: O_3  and  C_23
REMARK    4  A    between atoms: O_3  and  C_24
REMARK    5  A    between atoms: N_4  and  C_12
REMARK    6  A    between atoms: C_8  and  C_13
REMARK    7  A    between atoms: C_12  and  C_14
REMARK    8  A    between atoms: C_12  and  C_15
REMARK    9  A    between atoms: C_16  and  C_17
REMARK   10  A    between atoms: C_22  and  C_23
REMARK                            x       y       z     vdW  Elec       q    Type
REMARK                         _______ _______ _______ _____ _____    ______ ____
ROOT
ATOM      1  O   UNL     1      12.591   7.405   5.355  0.00  0.00    -0.336 OA
ATOM      5  N   UNL     1      10.863   6.034   4.970  0.00  0.00    -0.190 NA
ATOM      6  N   UNL     1      12.690   7.022   4.011  0.00  0.00    -0.056 NA
ATOM     13  C   UNL     1      11.489   6.779   5.845  0.00  0.00    +0.245 A 
ATOM     16  C   UNL     1      11.635   6.215   3.860  0.00  0.00    +0.204 A 
ENDROOT
BRANCH  16  17
ATOM      7  N   UNL     1      11.915   3.940   0.931  0.00  0.00    -0.221 NA
ATOM     17  C   UNL     1      11.327   5.573   2.615  0.00  0.00    +0.041 A 
ATOM     18  C   UNL     1      10.196   5.925   1.889  0.00  0.00    +0.018 A 
ATOM     19  C   UNL     1      12.148   4.583   2.097  0.00  0.00    +0.126 A 
ATOM     20  C   UNL     1       9.922   5.287   0.684  0.00  0.00    +0.068 A 
ATOM     21  C   UNL     1      10.805   4.310   0.253  0.00  0.00    +0.215 A 
BRANCH  21   2
ATOM      2  O   UNL     1      10.558   3.666  -0.931  0.00  0.00    -0.474 OA
BRANCH   2  22
ATOM     22  C   UNL     1      11.664   3.491  -1.808  0.00  0.00    +0.258 C 
BRANCH  22  23
ATOM     23  C   UNL     1      11.503   2.181  -2.554  0.00  0.00    +0.200 C 
BRANCH  23   3
ATOM      3  O   UNL     1      10.117   1.892  -2.691  0.00  0.00    -0.380 OA
ATOM     24  C   UNL     1       9.603   2.380  -3.923  0.00  0.00    +0.194 C 
ENDBRANCH  23   3
ENDBRANCH  22  23
ENDBRANCH   2  22
ENDBRANCH  21   2
ENDBRANCH  16  17
BRANCH  13   8
ATOM      4  N   UNL     1       9.973   7.865   7.582  0.00  0.00    -0.289 NA
ATOM      8  C   UNL     1      11.158   7.035   7.309  0.00  0.00    +0.146 C 
ATOM      9  C   UNL     1      10.839   5.771   8.119  0.00  0.00    +0.030 C 
ATOM     10  C   UNL     1       8.807   6.990   7.569  0.00  0.00    +0.085 C 
ATOM     11  C   UNL     1       9.314   5.709   8.215  0.00  0.00    +0.017 C 
BRANCH   4  12
ATOM     12  C   UNL     1       9.815   9.061   6.777  0.00  0.00    +0.051 C 
ATOM     14  C   UNL     1       9.772  10.298   7.670  0.00  0.00    +0.024 C 
ATOM     15  C   UNL     1       8.545   8.946   5.941  0.00  0.00    +0.024 C 
ENDBRANCH   4  12
ENDBRANCH  13   8
TORSDOF 7
ENDMDL
MODEL 5
REMARK VINA RESULT:      -5.6     26.854     29.369
REMARK  Name = 45783566
REMARK  10 active torsions:
REMARK  status: ('A' for Active; 'I' for Inactive)
REMARK    1  A    between atoms: O_2  and  C_21
REMARK    2  A    between atoms: O_2  and  C_22
REMARK    3  A    between atoms: O_3  and  C_23
REMARK    4  A    between atoms: O_3  and  C_24
REMARK    5  A    between atoms: N_4  and  C_12
REMARK    6  A    between atoms: C_8  and  C_13
REMARK    7  A    between atoms: C_12  and  C_14
REMARK    8  A    between atoms: C_12  and  C_15
REMARK    9  A    between atoms: C_16  and  C_17
REMARK   10  A    between atoms: C_22  and  C_23
REMARK                            x       y       z     vdW  Elec       q    Type
REMARK                         _______ _______ _______ _____ _____    ______ ____
ROOT
ATOM      1  O   UNL     1      -1.491 -11.033  15.358  0.00  0.00    -0.336 OA
ATOM      5  N   UNL     1      -3.545 -11.858  15.018  0.00  0.00    -0.190 NA
ATOM      6  N   UNL     1      -2.225 -10.739  16.514  0.00  0.00    -0.056 NA
ATOM     13  C   UNL     1      -2.343 -11.692  14.529  0.00  0.00    +0.245 A 
ATOM     16  C   UNL     1      -3.426 -11.257  16.237  0.00  0.00    +0.204 A 
ENDROOT
BRANCH  16  17
ATOM      7  N   UNL     1      -6.878 -10.779  17.536  0.00  0.00    -0.221 NA
ATOM     17  C   UNL     1      -4.526 -11.190  17.155  0.00  0.00    +0.041 A 
ATOM     18  C   UNL     1      -4.346 -11.456  18.507  0.00  0.00    +0.018 A 
ATOM     19  C   UNL     1      -5.800 -10.859  16.723  0.00  0.00    +0.126 A 
ATOM     20  C   UNL     1      -5.430 -11.384  19.375  0.00  0.00    +0.068 A 
ATOM     21  C   UNL     1      -6.664 -11.044  18.845  0.00  0.00    +0.215 A 
BRANCH  21   2
ATOM      2  O   UNL     1      -7.748 -10.965  19.678  0.00  0.00    -0.474 OA
BRANCH   2  22
ATOM     22  C   UNL     1      -9.030 -11.105  19.078  0.00  0.00    +0.258 C 
BRANCH  22  23
ATOM     23  C   UNL     1     -10.097 -10.933  20.141  0.00  0.00    +0.200 C 
BRANCH  23   3
ATOM      3  O   UNL     1     -10.922  -9.827  19.796  0.00  0.00    -0.380 OA
ATOM     24  C   UNL     1     -10.864  -9.550  18.403  0.00  0.00    +0.194 C 
ENDBRANCH  23   3
ENDBRANCH  22  23
ENDBRANCH   2  22
ENDBRANCH  21   2
ENDBRANCH  16  17
BRANCH  13   8
ATOM      4  N   UNL     1      -2.015 -13.527  12.791  0.00  0.00    -0.289 NA
ATOM      8  C   UNL     1      -1.778 -12.128  13.184  0.00  0.00    +0.146 C 
ATOM      9  C   UNL     1      -2.351 -11.372  11.978  0.00  0.00    +0.030 C 
ATOM     10  C   UNL     1      -3.326 -13.592  12.156  0.00  0.00    +0.085 C 
ATOM     11  C   UNL     1      -3.406 -12.293  11.367  0.00  0.00    +0.017 C 
BRANCH   4  12
ATOM     12  C   UNL     1      -1.811 -14.535  13.814  0.00  0.00    +0.051 C 
ATOM     14  C   UNL     1      -0.664 -15.462  13.421  0.00  0.00    +0.024 C 
ATOM     15  C   UNL     1      -3.103 -15.320  14.019  0.00  0.00    +0.024 C 
ENDBRANCH   4  12
ENDBRANCH  13   8
TORSDOF 7
ENDMDL
MODEL 6
REMARK VINA RESULT:      -5.6     25.518     29.348
REMARK  Name = 45783566
REMARK  10 active torsions:
REMARK  status: ('A' for Active; 'I' for Inactive)
REMARK    1  A    between atoms: O_2  and  C_21
REMARK    2  A    between atoms: O_2  and  C_22
REMARK    3  A    between atoms: O_3  and  C_23
REMARK    4  A    between atoms: O_3  and  C_24
REMARK    5  A    between atoms: N_4  and  C_12
REMARK    6  A    between atoms: C_8  and  C_13
REMARK    7  A    between atoms: C_12  and  C_14
REMARK    8  A    between atoms: C_12  and  C_15
REMARK    9  A    between atoms: C_16  and  C_17
REMARK   10  A    between atoms: C_22  and  C_23
REMARK                            x       y       z     vdW  Elec       q    Type
REMARK                         _______ _______ _______ _____ _____    ______ ____
ROOT
ATOM      1  O   UNL     1      -1.401 -10.283  11.866  0.00  0.00    -0.336 OA
ATOM      5  N   UNL     1      -3.447 -11.183  11.718  0.00  0.00    -0.190 NA
ATOM      6  N   UNL     1      -2.094  -9.521  10.917  0.00  0.00    -0.056 NA
ATOM     13  C   UNL     1      -2.269 -11.240  12.287  0.00  0.00    +0.245 A 
ATOM     16  C   UNL     1      -3.292 -10.113  10.886  0.00  0.00    +0.204 A 
ENDROOT
BRANCH  16  17
ATOM      7  N   UNL     1      -6.186  -8.130   9.652  0.00  0.00    -0.221 NA
ATOM     17  C   UNL     1      -4.354  -9.661  10.034  0.00  0.00    +0.041 A 
ATOM     18  C   UNL     1      -4.597 -10.270   8.809  0.00  0.00    +0.018 A 
ATOM     19  C   UNL     1      -5.170  -8.604  10.406  0.00  0.00    +0.126 A 
ATOM     20  C   UNL     1      -5.635  -9.811   8.004  0.00  0.00    +0.068 A 
ATOM     21  C   UNL     1      -6.393  -8.748   8.466  0.00  0.00    +0.215 A 
BRANCH  21   2
ATOM      2  O   UNL     1      -7.420  -8.277   7.693  0.00  0.00    -0.474 OA
BRANCH   2  22
ATOM     22  C   UNL     1      -7.807  -6.923   7.895  0.00  0.00    +0.258 C 
BRANCH  22  23
ATOM     23  C   UNL     1      -9.315  -6.816   7.782  0.00  0.00    +0.200 C 
BRANCH  23   3
ATOM      3  O   UNL     1      -9.830  -6.230   8.972  0.00  0.00    -0.380 OA
ATOM     24  C   UNL     1     -10.093  -4.845   8.799  0.00  0.00    +0.194 C 
ENDBRANCH  23   3
ENDBRANCH  22  23
ENDBRANCH   2  22
ENDBRANCH  21   2
ENDBRANCH  16  17
BRANCH  13   8
ATOM      4  N   UNL     1      -2.277 -12.056  14.701  0.00  0.00    -0.289 NA
ATOM      8  C   UNL     1      -1.750 -12.213  13.336  0.00  0.00    +0.146 C 
ATOM      9  C   UNL     1      -2.074 -13.687  13.052  0.00  0.00    +0.030 C 
ATOM     10  C   UNL     1      -3.535 -12.790  14.778  0.00  0.00    +0.085 C 
ATOM     11  C   UNL     1      -3.277 -14.028  13.930  0.00  0.00    +0.017 C 
BRANCH   4  12
ATOM     12  C   UNL     1      -2.360 -10.702  15.216  0.00  0.00    +0.051 C 
ATOM     14  C   UNL     1      -0.992 -10.239  15.709  0.00  0.00    +0.024 C 
ATOM     15  C   UNL     1      -3.392 -10.647  16.337  0.00  0.00    +0.024 C 
ENDBRANCH   4  12
ENDBRANCH  13   8
TORSDOF 7
ENDMDL
MODEL 7
REMARK VINA RESULT:      -5.5     27.350     29.907
REMARK  Name = 45783566
REMARK  10 active torsions:
REMARK  status: ('A' for Active; 'I' for Inactive)
REMARK    1  A    between atoms: O_2  and  C_21
REMARK    2  A    between atoms: O_2  and  C_22
REMARK    3  A    between atoms: O_3  and  C_23
REMARK    4  A    between atoms: O_3  and  C_24
REMARK    5  A    between atoms: N_4  and  C_12
REMARK    6  A    between atoms: C_8  and  C_13
REMARK    7  A    between atoms: C_12  and  C_14
REMARK    8  A    between atoms: C_12  and  C_15
REMARK    9  A    between atoms: C_16  and  C_17
REMARK   10  A    between atoms: C_22  and  C_23
REMARK                            x       y       z     vdW  Elec       q    Type
REMARK                         _______ _______ _______ _____ _____    ______ ____
ROOT
ATOM      1  O   UNL     1     -11.801  10.326  18.894  0.00  0.00    -0.336 OA
ATOM      5  N   UNL     1     -11.349   8.138  18.753  0.00  0.00    -0.190 NA
ATOM      6  N   UNL     1     -12.666   9.692  19.794  0.00  0.00    -0.056 NA
ATOM     13  C   UNL     1     -11.061   9.340  18.323  0.00  0.00    +0.245 A 
ATOM     16  C   UNL     1     -12.339   8.403  19.653  0.00  0.00    +0.204 A 
ENDROOT
BRANCH  16  17
ATOM      7  N   UNL     1     -15.026   6.248  21.055  0.00  0.00    -0.221 NA
ATOM     17  C   UNL     1     -12.981   7.359  20.397  0.00  0.00    +0.041 A 
ATOM     18  C   UNL     1     -12.241   6.464  21.161  0.00  0.00    +0.018 A 
ATOM     19  C   UNL     1     -14.359   7.209  20.378  0.00  0.00    +0.126 A 
ATOM     20  C   UNL     1     -12.890   5.461  21.872  0.00  0.00    +0.068 A 
ATOM     21  C   UNL     1     -14.272   5.396  21.787  0.00  0.00    +0.215 A 
BRANCH  21   2
ATOM      2  O   UNL     1     -14.936   4.418  22.479  0.00  0.00    -0.474 OA
BRANCH   2  22
ATOM     22  C   UNL     1     -16.330   4.611  22.683  0.00  0.00    +0.258 C 
BRANCH  22  23
ATOM     23  C   UNL     1     -16.939   3.323  23.201  0.00  0.00    +0.200 C 
BRANCH  23   3
ATOM      3  O   UNL     1     -15.972   2.636  23.987  0.00  0.00    -0.380 OA
ATOM     24  C   UNL     1     -16.210   2.814  25.377  0.00  0.00    +0.194 C 
ENDBRANCH  23   3
ENDBRANCH  22  23
ENDBRANCH   2  22
ENDBRANCH  21   2
ENDBRANCH  16  17
BRANCH  13   8
ATOM      4  N   UNL     1     -10.404   9.616  15.876  0.00  0.00    -0.289 NA
ATOM      8  C   UNL     1     -10.030   9.776  17.291  0.00  0.00    +0.146 C 
ATOM      9  C   UNL     1      -9.669  11.266  17.344  0.00  0.00    +0.030 C 
ATOM     10  C   UNL     1     -11.161  10.798  15.481  0.00  0.00    +0.085 C 
ATOM     11  C   UNL     1     -10.464  11.931  16.221  0.00  0.00    +0.017 C 
BRANCH   4  12
ATOM     12  C   UNL     1     -11.040   8.365  15.507  0.00  0.00    +0.051 C 
ATOM     14  C   UNL     1     -10.309   7.728  14.328  0.00  0.00    +0.024 C 
ATOM     15  C   UNL     1     -12.504   8.621  15.168  0.00  0.00    +0.024 C 
ENDBRANCH   4  12
ENDBRANCH  13   8
TORSDOF 7
ENDMDL
MODEL 8
REMARK VINA RESULT:      -5.5      2.022      9.236
REMARK  Name = 45783566
REMARK  10 active torsions:
REMARK  status: ('A' for Active; 'I' for Inactive)
REMARK    1  A    between atoms: O_2  and  C_21
REMARK    2  A    between atoms: O_2  and  C_22
REMARK    3  A    between atoms: O_3  and  C_23
REMARK    4  A    between atoms: O_3  and  C_24
REMARK    5  A    between atoms: N_4  and  C_12
REMARK    6  A    between atoms: C_8  and  C_13
REMARK    7  A    between atoms: C_12  and  C_14
REMARK    8  A    between atoms: C_12  and  C_15
REMARK    9  A    between atoms: C_16  and  C_17
REMARK   10  A    between atoms: C_22  and  C_23
REMARK                            x       y       z     vdW  Elec       q    Type
REMARK                         _______ _______ _______ _____ _____    ______ ____
ROOT
ATOM      1  O   UNL     1      20.846   5.714  22.832  0.00  0.00    -0.336 OA
ATOM      5  N   UNL     1      20.250   5.435  20.691  0.00  0.00    -0.190 NA
ATOM      6  N   UNL     1      19.614   6.364  22.683  0.00  0.00    -0.056 NA
ATOM     13  C   UNL     1      21.147   5.195  21.613  0.00  0.00    +0.245 A 
ATOM     16  C   UNL     1      19.328   6.155  21.394  0.00  0.00    +0.204 A 
ENDROOT
BRANCH  16  17
ATOM      7  N   UNL     1      16.393   8.331  20.701  0.00  0.00    -0.221 NA
ATOM     17  C   UNL     1      18.132   6.653  20.779  0.00  0.00    +0.041 A 
ATOM     18  C   UNL     1      17.549   5.988  19.707  0.00  0.00    +0.018 A 
ATOM     19  C   UNL     1      17.520   7.810  21.235  0.00  0.00    +0.126 A 
ATOM     20  C   UNL     1      16.388   6.493  19.131  0.00  0.00    +0.068 A 
ATOM     21  C   UNL     1      15.854   7.657  19.659  0.00  0.00    +0.215 A 
BRANCH  21   2
ATOM      2  O   UNL     1      14.712   8.175  19.110  0.00  0.00    -0.474 OA
BRANCH   2  22
ATOM     22  C   UNL     1      13.538   8.132  19.913  0.00  0.00    +0.258 C 
BRANCH  22  23
ATOM     23  C   UNL     1      12.726   6.908  19.537  0.00  0.00    +0.200 C 
BRANCH  23   3
ATOM      3  O   UNL     1      11.462   6.973  20.187  0.00  0.00    -0.380 OA
ATOM     24  C   UNL     1      11.472   6.262  21.418  0.00  0.00    +0.194 C 
ENDBRANCH  23   3
ENDBRANCH  22  23
ENDBRANCH   2  22
ENDBRANCH  21   2
ENDBRANCH  16  17
BRANCH  13   8
ATOM      4  N   UNL     1      23.689   5.177  21.807  0.00  0.00    -0.289 NA
ATOM      8  C   UNL     1      22.458   4.427  21.507  0.00  0.00    +0.146 C 
ATOM      9  C   UNL     1      22.580   3.242  22.475  0.00  0.00    +0.030 C 
ATOM     10  C   UNL     1      23.890   5.138  23.251  0.00  0.00    +0.085 C 
ATOM     11  C   UNL     1      23.442   3.735  23.636  0.00  0.00    +0.017 C 
BRANCH   4  12
ATOM     12  C   UNL     1      23.796   6.508  21.239  0.00  0.00    +0.051 C 
ATOM     14  C   UNL     1      24.970   6.573  20.266  0.00  0.00    +0.024 C 
ATOM     15  C   UNL     1      23.959   7.528  22.361  0.00  0.00    +0.024 C 
ENDBRANCH   4  12
ENDBRANCH  13   8
TORSDOF 7
ENDMDL
MODEL 9
REMARK VINA RESULT:      -5.4     16.986     20.153
REMARK  Name = 45783566
REMARK  10 active torsions:
REMARK  status: ('A' for Active; 'I' for Inactive)
REMARK    1  A    between atoms: O_2  and  C_21
REMARK    2  A    between atoms: O_2  and  C_22
REMARK    3  A    between atoms: O_3  and  C_23
REMARK    4  A    between atoms: O_3  and  C_24
REMARK    5  A    between atoms: N_4  and  C_12
REMARK    6  A    between atoms: C_8  and  C_13
REMARK    7  A    between atoms: C_12  and  C_14
REMARK    8  A    between atoms: C_12  and  C_15
REMARK    9  A    between atoms: C_16  and  C_17
REMARK   10  A    between atoms: C_22  and  C_23
REMARK                            x       y       z     vdW  Elec       q    Type
REMARK                         _______ _______ _______ _____ _____    ______ ____
ROOT
ATOM      1  O   UNL     1      12.999   2.991   0.734  0.00  0.00    -0.336 OA
ATOM      5  N   UNL     1      12.355   5.134   0.822  0.00  0.00    -0.190 NA
ATOM      6  N   UNL     1      12.477   3.188   2.018  0.00  0.00    -0.056 NA
ATOM     13  C   UNL     1      12.889   4.186   0.095  0.00  0.00    +0.245 A 
ATOM     16  C   UNL     1      12.119   4.475   1.993  0.00  0.00    +0.204 A 
ENDROOT
BRANCH  16  17
ATOM      7  N   UNL     1      11.393   7.083   4.545  0.00  0.00    -0.221 NA
ATOM     17  C   UNL     1      11.523   5.132   3.121  0.00  0.00    +0.041 A 
ATOM     18  C   UNL     1      10.536   4.508   3.874  0.00  0.00    +0.018 A 
ATOM     19  C   UNL     1      11.913   6.409   3.494  0.00  0.00    +0.126 A 
ATOM     20  C   UNL     1       9.977   5.168   4.962  0.00  0.00    +0.068 A 
ATOM     21  C   UNL     1      10.435   6.443   5.253  0.00  0.00    +0.215 A 
BRANCH  21   2
ATOM      2  O   UNL     1       9.901   7.115   6.321  0.00  0.00    -0.474 OA
BRANCH   2  22
ATOM     22  C   UNL     1      10.491   6.871   7.592  0.00  0.00    +0.258 C 
BRANCH  22  23
ATOM     23  C   UNL     1       9.508   6.102   8.455  0.00  0.00    +0.200 C 
BRANCH  23   3
ATOM      3  O   UNL     1      10.223   5.159   9.244  0.00  0.00    -0.380 OA
ATOM     24  C   UNL     1       9.367   4.496  10.165  0.00  0.00    +0.194 C 
ENDBRANCH  23   3
ENDBRANCH  22  23
ENDBRANCH   2  22
ENDBRANCH  21   2
ENDBRANCH  16  17
BRANCH  13   8
ATOM      4  N   UNL     1      12.373   4.325  -2.397  0.00  0.00    -0.289 NA
ATOM      8  C   UNL     1      13.394   4.238  -1.340  0.00  0.00    +0.146 C 
ATOM      9  C   UNL     1      14.271   5.455  -1.662  0.00  0.00    +0.030 C 
ATOM     10  C   UNL     1      12.030   5.732  -2.565  0.00  0.00    +0.085 C 
ATOM     11  C   UNL     1      13.361   6.448  -2.385  0.00  0.00    +0.017 C 
BRANCH   4  12
ATOM     12  C   UNL     1      11.220   3.455  -2.262  0.00  0.00    +0.051 C 
ATOM     14  C   UNL     1      11.606   2.013  -2.577  0.00  0.00    +0.024 C 
ATOM     15  C   UNL     1      10.109   3.939  -3.189  0.00  0.00    +0.024 C 
ENDBRANCH   4  12
ENDBRANCH  13   8
TORSDOF 7
ENDMDL
MODEL 10
REMARK VINA RESULT:      -5.3     25.660     29.649
REMARK  Name = 45783566
REMARK  10 active torsions:
REMARK  status: ('A' for Active; 'I' for Inactive)
REMARK    1  A    between atoms: O_2  and  C_21
REMARK    2  A    between atoms: O_2  and  C_22
REMARK    3  A    between atoms: O_3  and  C_23
REMARK    4  A    between atoms: O_3  and  C_24
REMARK    5  A    between atoms: N_4  and  C_12
REMARK    6  A    between atoms: C_8  and  C_13
REMARK    7  A    between atoms: C_12  and  C_14
REMARK    8  A    between atoms: C_12  and  C_15
REMARK    9  A    between atoms: C_16  and  C_17
REMARK   10  A    between atoms: C_22  and  C_23
REMARK                            x       y       z     vdW  Elec       q    Type
REMARK                         _______ _______ _______ _____ _____    ______ ____
ROOT
ATOM      1  O   UNL     1      -1.466 -10.291  11.857  0.00  0.00    -0.336 OA
ATOM      5  N   UNL     1      -3.506 -11.211  11.763  0.00  0.00    -0.190 NA
ATOM      6  N   UNL     1      -2.189  -9.542  10.920  0.00  0.00    -0.056 NA
ATOM     13  C   UNL     1      -2.315 -11.253  12.304  0.00  0.00    +0.245 A 
ATOM     16  C   UNL     1      -3.381 -10.145  10.920  0.00  0.00    +0.204 A 
ENDROOT
BRANCH  16  17
ATOM      7  N   UNL     1      -5.491  -9.624   7.902  0.00  0.00    -0.221 NA
ATOM     17  C   UNL     1      -4.467  -9.709  10.091  0.00  0.00    +0.041 A 
ATOM     18  C   UNL     1      -5.521  -8.974  10.621  0.00  0.00    +0.018 A 
ATOM     19  C   UNL     1      -4.499 -10.005   8.738  0.00  0.00    +0.126 A 
ATOM     20  C   UNL     1      -6.561  -8.563   9.793  0.00  0.00    +0.068 A 
ATOM     21  C   UNL     1      -6.500  -8.911   8.453  0.00  0.00    +0.215 A 
BRANCH  21   2
ATOM      2  O   UNL     1      -7.511  -8.518   7.617  0.00  0.00    -0.474 OA
BRANCH   2  22
ATOM     22  C   UNL     1      -7.550  -9.125   6.331  0.00  0.00    +0.258 C 
BRANCH  22  23
ATOM     23  C   UNL     1      -8.171  -8.154   5.344  0.00  0.00    +0.200 C 
BRANCH  23   3
ATOM      3  O   UNL     1      -7.365  -8.104   4.173  0.00  0.00    -0.380 OA
ATOM     24  C   UNL     1      -7.983  -8.780   3.087  0.00  0.00    +0.194 C 
ENDBRANCH  23   3
ENDBRANCH  22  23
ENDBRANCH   2  22
ENDBRANCH  21   2
ENDBRANCH  16  17
BRANCH  13   8
ATOM      4  N   UNL     1      -2.277 -12.068  14.719  0.00  0.00    -0.289 NA
ATOM      8  C   UNL     1      -1.762 -12.214  13.347  0.00  0.00    +0.146 C 
ATOM      9  C   UNL     1      -2.057 -13.694  13.068  0.00  0.00    +0.030 C 
ATOM     10  C   UNL     1      -3.516 -12.829  14.811  0.00  0.00    +0.085 C 
ATOM     11  C   UNL     1      -3.242 -14.062  13.961  0.00  0.00    +0.017 C 
BRANCH   4  12
ATOM     12  C   UNL     1      -2.383 -10.716  15.235  0.00  0.00    +0.051 C 
ATOM     14  C   UNL     1      -1.014 -10.213  15.685  0.00  0.00    +0.024 C 
ATOM     15  C   UNL     1      -3.382 -10.689  16.386  0.00  0.00    +0.024 C 
ENDBRANCH   4  12
ENDBRANCH  13   8
TORSDOF 7
ENDMDL
