MODEL 1
REMARK VINA RESULT:      -7.5      0.000      0.000
REMARK  Name = 75536112
REMARK  7 active torsions:
REMARK  status: ('A' for Active; 'I' for Inactive)
REMARK    1  A    between atoms: O_1  and  C_8
REMARK    2  A    between atoms: O_2  and  C_10
REMARK    3  A    between atoms: N_3  and  C_6
REMARK    4  A    between atoms: N_3  and  C_12
REMARK    5  A    between atoms: C_7  and  C_11
REMARK    6  A    between atoms: C_12  and  C_15
REMARK    7  A    between atoms: C_20  and  C_23
REMARK                            x       y       z     vdW  Elec       q    Type
REMARK                         _______ _______ _______ _____ _____    ______ ____
ROOT
ATOM      6  C   UNL     1      12.822   7.178  19.690  0.00  0.00    +0.093 C 
ATOM      7  C   UNL     1      12.680   8.675  19.331  0.00  0.00    +0.042 C 
ATOM      8  C   UNL     1      12.513   7.149  21.187  0.00  0.00    +0.160 C 
ATOM      9  C   UNL     1      11.704   9.263  20.384  0.00  0.00    +0.043 C 
ATOM     10  C   UNL     1      11.326   8.099  21.302  0.00  0.00    +0.145 C 
ENDROOT
BRANCH   7  11
ATOM      4  N   UNL     1      12.821   9.672  15.674  0.00  0.00    -0.263 NA
ATOM     11  C   UNL     1      12.256   8.906  17.896  0.00  0.00    -0.025 A 
ATOM     13  C   UNL     1      10.971   8.589  17.469  0.00  0.00    +0.007 A 
ATOM     14  C   UNL     1      13.136   9.440  16.968  0.00  0.00    +0.114 A 
ATOM     16  C   UNL     1      10.611   8.814  16.144  0.00  0.00    +0.020 A 
ATOM     17  C   UNL     1      11.563   9.352  15.295  0.00  0.00    +0.111 A 
ENDBRANCH   7  11
BRANCH   8   1
ATOM      1  O   UNL     1      12.194   5.843  21.629  0.00  0.00    -0.388 OA
ATOM     25  H   UNL     1      12.916   5.549  22.210  0.00  0.00    +0.210 HD
ENDBRANCH   8   1
BRANCH  10   2
ATOM      2  O   UNL     1      10.144   7.472  20.811  0.00  0.00    -0.389 OA
ATOM     26  H   UNL     1       9.483   7.497  21.523  0.00  0.00    +0.210 HD
ENDBRANCH  10   2
BRANCH   6   3
ATOM      3  N   UNL     1      14.158   6.668  19.403  0.00  0.00    -0.306 NA
ATOM     24  H   UNL     1      14.273   5.762  19.859  0.00  0.00    +0.123 HD
BRANCH   3  12
ATOM     12  C   UNL     1      15.180   7.577  19.901  0.00  0.00    +0.116 C 
BRANCH  12  15
ATOM     15  C   UNL     1      16.523   6.906  20.008  0.00  0.00    -0.032 A 
ATOM     18  C   UNL     1      17.368   7.202  21.078  0.00  0.00    +0.023 A 
ATOM     19  C   UNL     1      16.921   5.987  19.038  0.00  0.00    +0.005 A 
ATOM     20  C   UNL     1      18.613   6.579  21.177  0.00  0.00    +0.052 A 
ATOM     21  C   UNL     1      18.166   5.363  19.137  0.00  0.00    +0.002 A 
ATOM     22  C   UNL     1      19.011   5.660  20.206  0.00  0.00    +0.019 A 
BRANCH  20  23
ATOM      5  N   UNL     1      20.182   7.127  23.162  0.00  0.00    -0.191 NA
ATOM     23  C   UNL     1      19.478   6.881  22.272  0.00  0.00    +0.099 C 
ENDBRANCH  20  23
ENDBRANCH  12  15
ENDBRANCH   3  12
ENDBRANCH   6   3
TORSDOF 7
ENDMDL
MODEL 2
REMARK VINA RESULT:      -7.1      2.656      3.290
REMARK  Name = 75536112
REMARK  7 active torsions:
REMARK  status: ('A' for Active; 'I' for Inactive)
REMARK    1  A    between atoms: O_1  and  C_8
REMARK    2  A    between atoms: O_2  and  C_10
REMARK    3  A    between atoms: N_3  and  C_6
REMARK    4  A    between atoms: N_3  and  C_12
REMARK    5  A    between atoms: C_7  and  C_11
REMARK    6  A    between atoms: C_12  and  C_15
REMARK    7  A    between atoms: C_20  and  C_23
REMARK                            x       y       z     vdW  Elec       q    Type
REMARK                         _______ _______ _______ _____ _____    ______ ____
ROOT
ATOM      6  C   UNL     1      12.908   7.198  21.012  0.00  0.00    +0.093 C 
ATOM      7  C   UNL     1      12.847   8.392  21.990  0.00  0.00    +0.042 C 
ATOM      8  C   UNL     1      11.694   6.359  21.409  0.00  0.00    +0.160 C 
ATOM      9  C   UNL     1      11.352   8.527  22.386  0.00  0.00    +0.043 C 
ATOM     10  C   UNL     1      10.617   7.416  21.633  0.00  0.00    +0.145 C 
ENDROOT
BRANCH   7  11
ATOM      4  N   UNL     1      14.659  11.720  21.804  0.00  0.00    -0.263 NA
ATOM     11  C   UNL     1      13.454   9.659  21.425  0.00  0.00    -0.025 A 
ATOM     13  C   UNL     1      13.382   9.942  20.065  0.00  0.00    +0.007 A 
ATOM     14  C   UNL     1      14.097  10.572  22.245  0.00  0.00    +0.114 A 
ATOM     16  C   UNL     1      13.949  11.114  19.575  0.00  0.00    +0.020 A 
ATOM     17  C   UNL     1      14.569  11.961  20.477  0.00  0.00    +0.111 A 
ENDBRANCH   7  11
BRANCH   8   1
ATOM      1  O   UNL     1      11.336   5.443  20.392  0.00  0.00    -0.388 OA
ATOM     25  H   UNL     1      10.809   4.740  20.807  0.00  0.00    +0.210 HD
ENDBRANCH   8   1
BRANCH  10   2
ATOM      2  O   UNL     1      10.152   7.918  20.383  0.00  0.00    -0.389 OA
ATOM     26  H   UNL     1      10.104   8.886  20.456  0.00  0.00    +0.210 HD
ENDBRANCH  10   2
BRANCH   6   3
ATOM      3  N   UNL     1      14.152   6.445  21.141  0.00  0.00    -0.306 NA
ATOM     24  H   UNL     1      14.632   6.742  21.991  0.00  0.00    +0.123 HD
BRANCH   3  12
ATOM     12  C   UNL     1      15.025   6.684  20.001  0.00  0.00    +0.116 C 
BRANCH  12  15
ATOM     15  C   UNL     1      16.418   7.059  20.431  0.00  0.00    -0.032 A 
ATOM     18  C   UNL     1      17.465   6.151  20.276  0.00  0.00    +0.023 A 
ATOM     19  C   UNL     1      16.661   8.316  20.983  0.00  0.00    +0.005 A 
ATOM     20  C   UNL     1      18.756   6.499  20.673  0.00  0.00    +0.052 A 
ATOM     21  C   UNL     1      17.953   8.666  21.380  0.00  0.00    +0.002 A 
ATOM     22  C   UNL     1      18.999   7.757  21.225  0.00  0.00    +0.019 A 
BRANCH  20  23
ATOM      5  N   UNL     1      20.701   4.813  20.385  0.00  0.00    -0.191 NA
ATOM     23  C   UNL     1      19.829   5.570  20.514  0.00  0.00    +0.099 C 
ENDBRANCH  20  23
ENDBRANCH  12  15
ENDBRANCH   3  12
ENDBRANCH   6   3
TORSDOF 7
ENDMDL
MODEL 3
REMARK VINA RESULT:      -6.7      2.776      6.344
REMARK  Name = 75536112
REMARK  7 active torsions:
REMARK  status: ('A' for Active; 'I' for Inactive)
REMARK    1  A    between atoms: O_1  and  C_8
REMARK    2  A    between atoms: O_2  and  C_10
REMARK    3  A    between atoms: N_3  and  C_6
REMARK    4  A    between atoms: N_3  and  C_12
REMARK    5  A    between atoms: C_7  and  C_11
REMARK    6  A    between atoms: C_12  and  C_15
REMARK    7  A    between atoms: C_20  and  C_23
REMARK                            x       y       z     vdW  Elec       q    Type
REMARK                         _______ _______ _______ _____ _____    ______ ____
ROOT
ATOM      6  C   UNL     1      12.758   7.759  18.521  0.00  0.00    +0.093 C 
ATOM      7  C   UNL     1      13.968   8.666  18.841  0.00  0.00    +0.042 C 
ATOM      8  C   UNL     1      11.989   8.560  17.471  0.00  0.00    +0.160 C 
ATOM      9  C   UNL     1      14.185   9.530  17.569  0.00  0.00    +0.043 C 
ATOM     10  C   UNL     1      13.104   9.096  16.577  0.00  0.00    +0.145 C 
ENDROOT
BRANCH   7  11
ATOM      4  N   UNL     1      16.588   5.932  19.059  0.00  0.00    -0.263 NA
ATOM     11  C   UNL     1      15.193   7.894  19.281  0.00  0.00    -0.025 A 
ATOM     13  C   UNL     1      16.035   8.390  20.271  0.00  0.00    +0.007 A 
ATOM     14  C   UNL     1      15.511   6.671  18.711  0.00  0.00    +0.114 A 
ATOM     16  C   UNL     1      17.153   7.657  20.655  0.00  0.00    +0.020 A 
ATOM     17  C   UNL     1      17.383   6.446  20.024  0.00  0.00    +0.111 A 
ENDBRANCH   7  11
BRANCH   8   1
ATOM      1  O   UNL     1      11.080   7.747  16.756  0.00  0.00    -0.388 OA
ATOM     25  H   UNL     1      10.540   8.334  16.200  0.00  0.00    +0.210 HD
ENDBRANCH   8   1
BRANCH  10   2
ATOM      2  O   UNL     1      13.612   8.055  15.747  0.00  0.00    -0.389 OA
ATOM     26  H   UNL     1      13.836   7.305  16.323  0.00  0.00    +0.210 HD
ENDBRANCH  10   2
BRANCH   6   3
ATOM      3  N   UNL     1      11.944   7.493  19.702  0.00  0.00    -0.306 NA
ATOM     24  H   UNL     1      11.494   6.583  19.598  0.00  0.00    +0.123 HD
BRANCH   3  12
ATOM     12  C   UNL     1      10.913   8.509  19.862  0.00  0.00    +0.116 C 
BRANCH  12  15
ATOM     15  C   UNL     1      11.195   9.415  21.030  0.00  0.00    -0.032 A 
ATOM     18  C   UNL     1      11.965  10.564  20.853  0.00  0.00    +0.023 A 
ATOM     19  C   UNL     1      10.685   9.104  22.291  0.00  0.00    +0.005 A 
ATOM     20  C   UNL     1      12.226  11.404  21.936  0.00  0.00    +0.052 A 
ATOM     21  C   UNL     1      10.945   9.945  23.375  0.00  0.00    +0.002 A 
ATOM     22  C   UNL     1      11.715  11.093  23.197  0.00  0.00    +0.019 A 
BRANCH  20  23
ATOM      5  N   UNL     1      13.654  13.539  21.607  0.00  0.00    -0.191 NA
ATOM     23  C   UNL     1      13.013  12.581  21.755  0.00  0.00    +0.099 C 
ENDBRANCH  20  23
ENDBRANCH  12  15
ENDBRANCH   3  12
ENDBRANCH   6   3
TORSDOF 7
ENDMDL
MODEL 4
REMARK VINA RESULT:      -6.7      3.291      5.344
REMARK  Name = 75536112
REMARK  7 active torsions:
REMARK  status: ('A' for Active; 'I' for Inactive)
REMARK    1  A    between atoms: O_1  and  C_8
REMARK    2  A    between atoms: O_2  and  C_10
REMARK    3  A    between atoms: N_3  and  C_6
REMARK    4  A    between atoms: N_3  and  C_12
REMARK    5  A    between atoms: C_7  and  C_11
REMARK    6  A    between atoms: C_12  and  C_15
REMARK    7  A    between atoms: C_20  and  C_23
REMARK                            x       y       z     vdW  Elec       q    Type
REMARK                         _______ _______ _______ _____ _____    ______ ____
ROOT
ATOM      6  C   UNL     1      13.584  11.340  21.762  0.00  0.00    +0.093 C 
ATOM      7  C   UNL     1      12.151  10.887  21.402  0.00  0.00    +0.042 C 
ATOM      8  C   UNL     1      13.349  12.522  22.701  0.00  0.00    +0.160 C 
ATOM      9  C   UNL     1      11.262  11.338  22.591  0.00  0.00    +0.043 C 
ATOM     10  C   UNL     1      12.203  12.030  23.580  0.00  0.00    +0.145 C 
ENDROOT
BRANCH   7  11
ATOM      4  N   UNL     1      11.351   7.666  19.564  0.00  0.00    -0.263 NA
ATOM     11  C   UNL     1      12.055   9.409  21.083  0.00  0.00    -0.025 A 
ATOM     13  C   UNL     1      12.553   8.453  21.961  0.00  0.00    +0.007 A 
ATOM     14  C   UNL     1      11.468   8.968  19.908  0.00  0.00    +0.114 A 
ATOM     16  C   UNL     1      12.450   7.104  21.641  0.00  0.00    +0.020 A 
ATOM     17  C   UNL     1      11.846   6.766  20.442  0.00  0.00    +0.111 A 
ENDBRANCH   7  11
BRANCH   8   1
ATOM      1  O   UNL     1      14.505  12.827  23.458  0.00  0.00    -0.388 OA
ATOM     25  H   UNL     1      14.322  12.580  24.380  0.00  0.00    +0.210 HD
ENDBRANCH   8   1
BRANCH  10   2
ATOM      2  O   UNL     1      12.682  11.076  24.525  0.00  0.00    -0.389 OA
ATOM     26  H   UNL     1      13.653  11.089  24.485  0.00  0.00    +0.210 HD
ENDBRANCH  10   2
BRANCH   6   3
ATOM      3  N   UNL     1      14.350  11.729  20.583  0.00  0.00    -0.306 NA
ATOM     24  H   UNL     1      13.764  11.619  19.755  0.00  0.00    +0.123 HD
BRANCH   3  12
ATOM     12  C   UNL     1      15.533  10.894  20.434  0.00  0.00    +0.116 C 
BRANCH  12  15
ATOM     15  C   UNL     1      15.252   9.663  19.615  0.00  0.00    -0.032 A 
ATOM     18  C   UNL     1      14.597   9.775  18.388  0.00  0.00    +0.023 A 
ATOM     19  C   UNL     1      15.646   8.410  20.083  0.00  0.00    +0.005 A 
ATOM     20  C   UNL     1      14.337   8.634  17.628  0.00  0.00    +0.052 A 
ATOM     21  C   UNL     1      15.387   7.268  19.323  0.00  0.00    +0.002 A 
ATOM     22  C   UNL     1      14.732   7.381  18.097  0.00  0.00    +0.019 A 
BRANCH  20  23
ATOM      5  N   UNL     1      13.124   8.842  15.351  0.00  0.00    -0.191 NA
ATOM     23  C   UNL     1      13.668   8.748  16.372  0.00  0.00    +0.099 C 
ENDBRANCH  20  23
ENDBRANCH  12  15
ENDBRANCH   3  12
ENDBRANCH   6   3
TORSDOF 7
ENDMDL
MODEL 5
REMARK VINA RESULT:      -6.5      2.983      5.346
REMARK  Name = 75536112
REMARK  7 active torsions:
REMARK  status: ('A' for Active; 'I' for Inactive)
REMARK    1  A    between atoms: O_1  and  C_8
REMARK    2  A    between atoms: O_2  and  C_10
REMARK    3  A    between atoms: N_3  and  C_6
REMARK    4  A    between atoms: N_3  and  C_12
REMARK    5  A    between atoms: C_7  and  C_11
REMARK    6  A    between atoms: C_12  and  C_15
REMARK    7  A    between atoms: C_20  and  C_23
REMARK                            x       y       z     vdW  Elec       q    Type
REMARK                         _______ _______ _______ _____ _____    ______ ____
ROOT
ATOM      6  C   UNL     1      11.967   9.373  22.008  0.00  0.00    +0.093 C 
ATOM      7  C   UNL     1      13.238  10.177  22.365  0.00  0.00    +0.042 C 
ATOM      8  C   UNL     1      10.977   9.783  23.098  0.00  0.00    +0.160 C 
ATOM      9  C   UNL     1      12.735  11.420  23.149  0.00  0.00    +0.043 C 
ATOM     10  C   UNL     1      11.212  11.285  23.216  0.00  0.00    +0.145 C 
ENDROOT
BRANCH   7  11
ATOM      4  N   UNL     1      16.259  10.465  20.090  0.00  0.00    -0.263 NA
ATOM     11  C   UNL     1      14.092  10.509  21.160  0.00  0.00    -0.025 A 
ATOM     13  C   UNL     1      13.547  11.139  20.047  0.00  0.00    +0.007 A 
ATOM     14  C   UNL     1      15.442  10.196  21.133  0.00  0.00    +0.114 A 
ATOM     16  C   UNL     1      14.357  11.431  18.955  0.00  0.00    +0.020 A 
ATOM     17  C   UNL     1      15.694  11.077  19.026  0.00  0.00    +0.111 A 
ENDBRANCH   7  11
BRANCH   8   1
ATOM      1  O   UNL     1       9.644   9.480  22.734  0.00  0.00    -0.388 OA
ATOM     25  H   UNL     1       9.326   8.793  23.345  0.00  0.00    +0.210 HD
ENDBRANCH   8   1
BRANCH  10   2
ATOM      2  O   UNL     1      10.627  11.963  22.107  0.00  0.00    -0.389 OA
ATOM     26  H   UNL     1      10.402  12.862  22.400  0.00  0.00    +0.210 HD
ENDBRANCH  10   2
BRANCH   6   3
ATOM      3  N   UNL     1      12.209   7.935  22.009  0.00  0.00    -0.306 NA
ATOM     24  H   UNL     1      13.213   7.766  22.077  0.00  0.00    +0.123 HD
BRANCH   3  12
ATOM     12  C   UNL     1      11.714   7.323  20.784  0.00  0.00    +0.116 C 
BRANCH  12  15
ATOM     15  C   UNL     1      12.670   7.512  19.637  0.00  0.00    -0.032 A 
ATOM     18  C   UNL     1      12.238   8.126  18.461  0.00  0.00    +0.023 A 
ATOM     19  C   UNL     1      13.989   7.072  19.751  0.00  0.00    +0.005 A 
ATOM     20  C   UNL     1      13.126   8.301  17.399  0.00  0.00    +0.052 A 
ATOM     21  C   UNL     1      14.877   7.248  18.689  0.00  0.00    +0.002 A 
ATOM     22  C   UNL     1      14.445   7.862  17.513  0.00  0.00    +0.019 A 
BRANCH  20  23
ATOM      5  N   UNL     1      12.325   9.442  15.216  0.00  0.00    -0.191 NA
ATOM     23  C   UNL     1      12.684   8.931  16.195  0.00  0.00    +0.099 C 
ENDBRANCH  20  23
ENDBRANCH  12  15
ENDBRANCH   3  12
ENDBRANCH   6   3
TORSDOF 7
ENDMDL
MODEL 6
REMARK VINA RESULT:      -6.4     25.330     27.235
REMARK  Name = 75536112
REMARK  7 active torsions:
REMARK  status: ('A' for Active; 'I' for Inactive)
REMARK    1  A    between atoms: O_1  and  C_8
REMARK    2  A    between atoms: O_2  and  C_10
REMARK    3  A    between atoms: N_3  and  C_6
REMARK    4  A    between atoms: N_3  and  C_12
REMARK    5  A    between atoms: C_7  and  C_11
REMARK    6  A    between atoms: C_12  and  C_15
REMARK    7  A    between atoms: C_20  and  C_23
REMARK                            x       y       z     vdW  Elec       q    Type
REMARK                         _______ _______ _______ _____ _____    ______ ____
ROOT
ATOM      6  C   UNL     1      -4.013 -11.152  16.728  0.00  0.00    +0.093 C 
ATOM      7  C   UNL     1      -5.399 -10.671  16.240  0.00  0.00    +0.042 C 
ATOM      8  C   UNL     1      -4.195 -11.263  18.241  0.00  0.00    +0.160 C 
ATOM      9  C   UNL     1      -6.408 -11.162  17.312  0.00  0.00    +0.043 C 
ATOM     10  C   UNL     1      -5.577 -11.897  18.366  0.00  0.00    +0.145 C 
ENDROOT
BRANCH   7  11
ATOM      4  N   UNL     1      -6.302 -10.531  12.559  0.00  0.00    -0.263 NA
ATOM     11  C   UNL     1      -5.724 -11.119  14.831  0.00  0.00    -0.025 A 
ATOM     13  C   UNL     1      -5.751 -12.469  14.497  0.00  0.00    +0.007 A 
ATOM     14  C   UNL     1      -6.004 -10.198  13.835  0.00  0.00    +0.114 A 
ATOM     16  C   UNL     1      -6.054 -12.850  13.194  0.00  0.00    +0.020 A 
ATOM     17  C   UNL     1      -6.319 -11.852  12.272  0.00  0.00    +0.111 A 
ENDBRANCH   7  11
BRANCH   8   1
ATOM      1  O   UNL     1      -3.189 -12.062  18.832  0.00  0.00    -0.388 OA
ATOM     25  H   UNL     1      -2.594 -12.353  18.120  0.00  0.00    +0.210 HD
ENDBRANCH   8   1
BRANCH  10   2
ATOM      2  O   UNL     1      -5.514 -13.283  18.039  0.00  0.00    -0.389 OA
ATOM     26  H   UNL     1      -4.661 -13.620  18.362  0.00  0.00    +0.210 HD
ENDBRANCH  10   2
BRANCH   6   3
ATOM      3  N   UNL     1      -2.951 -10.215  16.378  0.00  0.00    -0.306 NA
ATOM     24  H   UNL     1      -3.309  -9.548  15.694  0.00  0.00    +0.123 HD
BRANCH   3  12
ATOM     12  C   UNL     1      -1.812 -10.912  15.800  0.00  0.00    +0.116 C 
BRANCH  12  15
ATOM     15  C   UNL     1      -2.102 -11.404  14.407  0.00  0.00    -0.032 A 
ATOM     18  C   UNL     1      -2.380 -10.492  13.389  0.00  0.00    +0.023 A 
ATOM     19  C   UNL     1      -2.091 -12.771  14.135  0.00  0.00    +0.005 A 
ATOM     20  C   UNL     1      -2.649 -10.948  12.098  0.00  0.00    +0.052 A 
ATOM     21  C   UNL     1      -2.358 -13.228  12.844  0.00  0.00    +0.002 A 
ATOM     22  C   UNL     1      -2.638 -12.316  11.826  0.00  0.00    +0.019 A 
BRANCH  20  23
ATOM      5  N   UNL     1      -3.165  -9.255  10.207  0.00  0.00    -0.191 NA
ATOM     23  C   UNL     1      -2.933 -10.015  11.055  0.00  0.00    +0.099 C 
ENDBRANCH  20  23
ENDBRANCH  12  15
ENDBRANCH   3  12
ENDBRANCH   6   3
TORSDOF 7
ENDMDL
MODEL 7
REMARK VINA RESULT:      -6.3     13.248     15.984
REMARK  Name = 75536112
REMARK  7 active torsions:
REMARK  status: ('A' for Active; 'I' for Inactive)
REMARK    1  A    between atoms: O_1  and  C_8
REMARK    2  A    between atoms: O_2  and  C_10
REMARK    3  A    between atoms: N_3  and  C_6
REMARK    4  A    between atoms: N_3  and  C_12
REMARK    5  A    between atoms: C_7  and  C_11
REMARK    6  A    between atoms: C_12  and  C_15
REMARK    7  A    between atoms: C_20  and  C_23
REMARK                            x       y       z     vdW  Elec       q    Type
REMARK                         _______ _______ _______ _____ _____    ______ ____
ROOT
ATOM      6  C   UNL     1      12.442   6.072   3.091  0.00  0.00    +0.093 C 
ATOM      7  C   UNL     1      12.578   7.608   3.199  0.00  0.00    +0.042 C 
ATOM      8  C   UNL     1      13.492   5.702   2.044  0.00  0.00    +0.160 C 
ATOM      9  C   UNL     1      14.037   7.925   2.772  0.00  0.00    +0.043 C 
ATOM     10  C   UNL     1      14.678   6.577   2.436  0.00  0.00    +0.145 C 
ENDROOT
BRANCH   7  11
ATOM      4  N   UNL     1      10.987   9.771   5.878  0.00  0.00    -0.263 NA
ATOM     11  C   UNL     1      12.201   8.147   4.563  0.00  0.00    -0.025 A 
ATOM     13  C   UNL     1      12.687   7.557   5.725  0.00  0.00    +0.007 A 
ATOM     14  C   UNL     1      11.362   9.241   4.692  0.00  0.00    +0.114 A 
ATOM     16  C   UNL     1      12.324   8.075   6.964  0.00  0.00    +0.020 A 
ATOM     17  C   UNL     1      11.480   9.172   6.986  0.00  0.00    +0.111 A 
ENDBRANCH   7  11
BRANCH   8   1
ATOM      1  O   UNL     1      13.811   4.324   2.089  0.00  0.00    -0.388 OA
ATOM     25  H   UNL     1      14.603   4.227   2.643  0.00  0.00    +0.210 HD
ENDBRANCH   8   1
BRANCH  10   2
ATOM      2  O   UNL     1      15.316   6.052   3.597  0.00  0.00    -0.389 OA
ATOM     26  H   UNL     1      15.996   5.425   3.298  0.00  0.00    +0.210 HD
ENDBRANCH  10   2
BRANCH   6   3
ATOM      3  N   UNL     1      11.102   5.667   2.681  0.00  0.00    -0.306 NA
ATOM     24  H   UNL     1      10.498   6.490   2.660  0.00  0.00    +0.123 HD
BRANCH   3  12
ATOM     12  C   UNL     1      10.543   4.700   3.615  0.00  0.00    +0.116 C 
BRANCH  12  15
ATOM     15  C   UNL     1       9.885   5.371   4.791  0.00  0.00    -0.032 A 
ATOM     18  C   UNL     1      10.140   4.919   6.085  0.00  0.00    +0.023 A 
ATOM     19  C   UNL     1       9.022   6.447   4.586  0.00  0.00    +0.005 A 
ATOM     20  C   UNL     1       9.532   5.542   7.176  0.00  0.00    +0.052 A 
ATOM     21  C   UNL     1       8.413   7.071   5.675  0.00  0.00    +0.002 A 
ATOM     22  C   UNL     1       8.668   6.618   6.970  0.00  0.00    +0.019 A 
BRANCH  20  23
ATOM      5  N   UNL     1      10.005   4.703   9.579  0.00  0.00    -0.191 NA
ATOM     23  C   UNL     1       9.793   5.079   8.501  0.00  0.00    +0.099 C 
ENDBRANCH  20  23
ENDBRANCH  12  15
ENDBRANCH   3  12
ENDBRANCH   6   3
TORSDOF 7
ENDMDL
MODEL 8
REMARK VINA RESULT:      -6.3      3.688      6.526
REMARK  Name = 75536112
REMARK  7 active torsions:
REMARK  status: ('A' for Active; 'I' for Inactive)
REMARK    1  A    between atoms: O_1  and  C_8
REMARK    2  A    between atoms: O_2  and  C_10
REMARK    3  A    between atoms: N_3  and  C_6
REMARK    4  A    between atoms: N_3  and  C_12
REMARK    5  A    between atoms: C_7  and  C_11
REMARK    6  A    between atoms: C_12  and  C_15
REMARK    7  A    between atoms: C_20  and  C_23
REMARK                            x       y       z     vdW  Elec       q    Type
REMARK                         _______ _______ _______ _____ _____    ______ ____
ROOT
ATOM      6  C   UNL     1      13.135   8.141  20.691  0.00  0.00    +0.093 C 
ATOM      7  C   UNL     1      14.237   8.626  19.721  0.00  0.00    +0.042 C 
ATOM      8  C   UNL     1      11.846   8.597  20.010  0.00  0.00    +0.160 C 
ATOM      9  C   UNL     1      13.557   8.702  18.328  0.00  0.00    +0.043 C 
ATOM     10  C   UNL     1      12.106   8.267  18.544  0.00  0.00    +0.145 C 
ENDROOT
BRANCH   7  11
ATOM      4  N   UNL     1      16.678   5.828  18.945  0.00  0.00    -0.263 NA
ATOM     11  C   UNL     1      15.483   7.766  19.756  0.00  0.00    -0.025 A 
ATOM     13  C   UNL     1      16.552   8.088  20.586  0.00  0.00    +0.007 A 
ATOM     14  C   UNL     1      15.595   6.637  18.962  0.00  0.00    +0.114 A 
ATOM     16  C   UNL     1      17.683   7.279  20.596  0.00  0.00    +0.020 A 
ATOM     17  C   UNL     1      17.696   6.171  19.765  0.00  0.00    +0.111 A 
ENDBRANCH   7  11
BRANCH   8   1
ATOM      1  O   UNL     1      10.716   7.913  20.517  0.00  0.00    -0.388 OA
ATOM     25  H   UNL     1      10.470   7.236  19.864  0.00  0.00    +0.210 HD
ENDBRANCH   8   1
BRANCH  10   2
ATOM      2  O   UNL     1      11.995   6.862  18.329  0.00  0.00    -0.389 OA
ATOM     26  H   UNL     1      12.873   6.473  18.480  0.00  0.00    +0.210 HD
ENDBRANCH  10   2
BRANCH   6   3
ATOM      3  N   UNL     1      13.280   8.721  22.022  0.00  0.00    -0.306 NA
ATOM     24  H   UNL     1      12.445   8.512  22.568  0.00  0.00    +0.123 HD
BRANCH   3  12
ATOM     12  C   UNL     1      13.440  10.166  21.943  0.00  0.00    +0.116 C 
BRANCH  12  15
ATOM     15  C   UNL     1      12.711  10.872  23.055  0.00  0.00    -0.032 A 
ATOM     18  C   UNL     1      13.429  11.523  24.058  0.00  0.00    +0.023 A 
ATOM     19  C   UNL     1      11.317  10.875  23.081  0.00  0.00    +0.005 A 
ATOM     20  C   UNL     1      12.752  12.178  25.088  0.00  0.00    +0.052 A 
ATOM     21  C   UNL     1      10.639  11.531  24.110  0.00  0.00    +0.002 A 
ATOM     22  C   UNL     1      11.357  12.181  25.114  0.00  0.00    +0.019 A 
BRANCH  20  23
ATOM      5  N   UNL     1      14.085  13.387  26.950  0.00  0.00    -0.191 NA
ATOM     23  C   UNL     1      13.487  12.845  26.115  0.00  0.00    +0.099 C 
ENDBRANCH  20  23
ENDBRANCH  12  15
ENDBRANCH   3  12
ENDBRANCH   6   3
TORSDOF 7
ENDMDL
MODEL 9
REMARK VINA RESULT:      -6.3      2.929      6.509
REMARK  Name = 75536112
REMARK  7 active torsions:
REMARK  status: ('A' for Active; 'I' for Inactive)
REMARK    1  A    between atoms: O_1  and  C_8
REMARK    2  A    between atoms: O_2  and  C_10
REMARK    3  A    between atoms: N_3  and  C_6
REMARK    4  A    between atoms: N_3  and  C_12
REMARK    5  A    between atoms: C_7  and  C_11
REMARK    6  A    between atoms: C_12  and  C_15
REMARK    7  A    between atoms: C_20  and  C_23
REMARK                            x       y       z     vdW  Elec       q    Type
REMARK                         _______ _______ _______ _____ _____    ______ ____
ROOT
ATOM      6  C   UNL     1      16.520   7.979  20.697  0.00  0.00    +0.093 C 
ATOM      7  C   UNL     1      16.428   9.489  20.380  0.00  0.00    +0.042 C 
ATOM      8  C   UNL     1      18.021   7.698  20.620  0.00  0.00    +0.160 C 
ATOM      9  C   UNL     1      17.800  10.084  20.795  0.00  0.00    +0.043 C 
ATOM     10  C   UNL     1      18.624   8.908  21.326  0.00  0.00    +0.145 C 
ENDROOT
BRANCH   7  11
ATOM      4  N   UNL     1      14.047  10.749  23.051  0.00  0.00    -0.263 NA
ATOM     11  C   UNL     1      15.239  10.163  21.031  0.00  0.00    -0.025 A 
ATOM     13  C   UNL     1      14.268  10.799  20.265  0.00  0.00    +0.007 A 
ATOM     14  C   UNL     1      15.084  10.166  22.408  0.00  0.00    +0.114 A 
ATOM     16  C   UNL     1      13.187  11.410  20.891  0.00  0.00    +0.020 A 
ATOM     17  C   UNL     1      13.123  11.357  22.274  0.00  0.00    +0.111 A 
ENDBRANCH   7  11
BRANCH   8   1
ATOM      1  O   UNL     1      18.359   6.484  21.263  0.00  0.00    -0.388 OA
ATOM     25  H   UNL     1      19.318   6.498  21.423  0.00  0.00    +0.210 HD
ENDBRANCH   8   1
BRANCH  10   2
ATOM      2  O   UNL     1      18.441   8.798  22.735  0.00  0.00    -0.389 OA
ATOM     26  H   UNL     1      18.383   9.700  23.093  0.00  0.00    +0.210 HD
ENDBRANCH  10   2
BRANCH   6   3
ATOM      3  N   UNL     1      15.769   7.171  19.742  0.00  0.00    -0.306 NA
ATOM     24  H   UNL     1      15.425   7.774  18.994  0.00  0.00    +0.123 HD
BRANCH   3  12
ATOM     12  C   UNL     1      14.632   6.529  20.386  0.00  0.00    +0.116 C 
BRANCH  12  15
ATOM     15  C   UNL     1      13.342   7.249  20.093  0.00  0.00    -0.032 A 
ATOM     18  C   UNL     1      13.013   7.585  18.781  0.00  0.00    +0.023 A 
ATOM     19  C   UNL     1      12.476   7.578  21.136  0.00  0.00    +0.005 A 
ATOM     20  C   UNL     1      11.817   8.251  18.509  0.00  0.00    +0.052 A 
ATOM     21  C   UNL     1      11.280   8.243  20.866  0.00  0.00    +0.002 A 
ATOM     22  C   UNL     1      10.951   8.580  19.553  0.00  0.00    +0.019 A 
BRANCH  20  23
ATOM      5  N   UNL     1      11.204   8.876  16.073  0.00  0.00    -0.191 NA
ATOM     23  C   UNL     1      11.479   8.595  17.165  0.00  0.00    +0.099 C 
ENDBRANCH  20  23
ENDBRANCH  12  15
ENDBRANCH   3  12
ENDBRANCH   6   3
TORSDOF 7
ENDMDL
MODEL 10
REMARK VINA RESULT:      -6.2     25.584     27.847
REMARK  Name = 75536112
REMARK  7 active torsions:
REMARK  status: ('A' for Active; 'I' for Inactive)
REMARK    1  A    between atoms: O_1  and  C_8
REMARK    2  A    between atoms: O_2  and  C_10
REMARK    3  A    between atoms: N_3  and  C_6
REMARK    4  A    between atoms: N_3  and  C_12
REMARK    5  A    between atoms: C_7  and  C_11
REMARK    6  A    between atoms: C_12  and  C_15
REMARK    7  A    between atoms: C_20  and  C_23
REMARK                            x       y       z     vdW  Elec       q    Type
REMARK                         _______ _______ _______ _____ _____    ______ ____
ROOT
ATOM      6  C   UNL     1      -3.121 -10.875  14.689  0.00  0.00    +0.093 C 
ATOM      7  C   UNL     1      -4.596 -10.415  14.676  0.00  0.00    +0.042 C 
ATOM      8  C   UNL     1      -2.668 -10.553  16.112  0.00  0.00    +0.160 C 
ATOM      9  C   UNL     1      -5.069 -10.500  16.153  0.00  0.00    +0.043 C 
ATOM     10  C   UNL     1      -3.862 -10.996  16.952  0.00  0.00    +0.145 C 
ENDROOT
BRANCH   7  11
ATOM      4  N   UNL     1      -6.263 -13.336  12.921  0.00  0.00    -0.263 NA
ATOM     11  C   UNL     1      -5.457 -11.196  13.705  0.00  0.00    -0.025 A 
ATOM     13  C   UNL     1      -6.211 -10.547  12.734  0.00  0.00    +0.007 A 
ATOM     14  C   UNL     1      -5.516 -12.580  13.757  0.00  0.00    +0.114 A 
ATOM     16  C   UNL     1      -6.991 -11.292  11.856  0.00  0.00    +0.020 A 
ATOM     17  C   UNL     1      -6.982 -12.670  11.990  0.00  0.00    +0.111 A 
ENDBRANCH   7  11
BRANCH   8   1
ATOM      1  O   UNL     1      -1.487 -11.253  16.456  0.00  0.00    -0.388 OA
ATOM     25  H   UNL     1      -1.626 -11.641  17.337  0.00  0.00    +0.210 HD
ENDBRANCH   8   1
BRANCH  10   2
ATOM      2  O   UNL     1      -3.902 -12.418  17.038  0.00  0.00    -0.389 OA
ATOM     26  H   UNL     1      -3.251 -12.688  17.708  0.00  0.00    +0.210 HD
ENDBRANCH  10   2
BRANCH   6   3
ATOM      3  N   UNL     1      -2.318 -10.172  13.693  0.00  0.00    -0.306 NA
ATOM     24  H   UNL     1      -2.877  -9.422  13.285  0.00  0.00    +0.123 HD
BRANCH   3  12
ATOM     12  C   UNL     1      -1.900 -11.075  12.631  0.00  0.00    +0.116 C 
BRANCH  12  15
ATOM     15  C   UNL     1      -2.743 -10.916  11.395  0.00  0.00    -0.032 A 
ATOM     18  C   UNL     1      -3.324 -12.034  10.797  0.00  0.00    +0.023 A 
ATOM     19  C   UNL     1      -2.944  -9.649  10.848  0.00  0.00    +0.005 A 
ATOM     20  C   UNL     1      -4.107 -11.885   9.651  0.00  0.00    +0.052 A 
ATOM     21  C   UNL     1      -3.727  -9.499   9.703  0.00  0.00    +0.002 A 
ATOM     22  C   UNL     1      -4.308 -10.617   9.104  0.00  0.00    +0.019 A 
BRANCH  20  23
ATOM      5  N   UNL     1      -5.187 -13.960   8.541  0.00  0.00    -0.191 NA
ATOM     23  C   UNL     1      -4.703 -13.029   9.038  0.00  0.00    +0.099 C 
ENDBRANCH  20  23
ENDBRANCH  12  15
ENDBRANCH   3  12
ENDBRANCH   6   3
TORSDOF 7
ENDMDL
