MODEL 1
REMARK VINA RESULT:      -8.4      0.000      0.000
REMARK  Name = 28961008
REMARK  5 active torsions:
REMARK  status: ('A' for Active; 'I' for Inactive)
REMARK    1  A    between atoms: N_6  and  C_16
REMARK    2  A    between atoms: N_7  and  C_11
REMARK    3  A    between atoms: N_10  and  C_20
REMARK    4  A    between atoms: C_12  and  C_15
REMARK    5  A    between atoms: C_18  and  C_19
REMARK                            x       y       z     vdW  Elec       q    Type
REMARK                         _______ _______ _______ _____ _____    ______ ____
ROOT
ATOM      6  N   UNL     1     -17.891   2.667  26.742  0.00  0.00    -0.293 NA
ATOM     11  C   UNL     1     -16.815   1.934  24.809  0.00  0.00    +0.090 C 
ATOM     12  C   UNL     1     -17.386   1.329  27.105  0.00  0.00    +0.147 C 
ATOM     13  C   UNL     1     -16.541   0.891  25.893  0.00  0.00    +0.052 C 
ATOM     14  C   UNL     1     -18.070   2.647  25.288  0.00  0.00    +0.107 C 
ATOM     16  C   UNL     1     -19.121   3.024  27.438  0.00  0.00    +0.105 C 
ENDROOT
BRANCH  11   7
ATOM      3  O   UNL     1     -16.383   3.770  22.653  0.00  0.00    -0.253 OA
ATOM      7  N   UNL     1     -15.710   2.854  24.666  0.00  0.00    -0.295 N 
ATOM     10  N   UNL     1     -14.414   4.488  23.710  0.00  0.00    -0.269 N 
ATOM     17  C   UNL     1     -15.575   3.721  23.576  0.00  0.00    +0.304 C 
ATOM     32  H   UNL     1     -14.963   2.820  25.352  0.00  0.00    +0.151 HD
ATOM     33  H   UNL     1     -13.850   4.323  24.540  0.00  0.00    +0.156 HD
BRANCH  10  20
ATOM      1  F   UNL     1     -12.477   8.359  20.246  0.00  0.00    -0.205 F 
ATOM     20  C   UNL     1     -13.920   5.476  22.826  0.00  0.00    +0.035 A 
ATOM     26  C   UNL     1     -14.584   6.697  22.701  0.00  0.00    +0.026 A 
ATOM     27  C   UNL     1     -12.769   5.229  22.079  0.00  0.00    +0.026 A 
ATOM     29  C   UNL     1     -14.097   7.670  21.830  0.00  0.00    +0.040 A 
ATOM     30  C   UNL     1     -12.281   6.203  21.208  0.00  0.00    +0.040 A 
ATOM     31  C   UNL     1     -12.945   7.424  21.083  0.00  0.00    +0.124 A 
ENDBRANCH  10  20
ENDBRANCH  11   7
BRANCH  12  15
ATOM      2  O   UNL     1     -15.847   0.203  28.635  0.00  0.00    -0.336 OA
ATOM      8  N   UNL     1     -16.531   2.216  29.343  0.00  0.00    -0.190 NA
ATOM      9  N   UNL     1     -15.223   0.415  29.870  0.00  0.00    -0.056 NA
ATOM     15  C   UNL     1     -16.599   1.311  28.399  0.00  0.00    +0.245 A 
ATOM     18  C   UNL     1     -15.675   1.622  30.223  0.00  0.00    +0.202 A 
BRANCH  18  19
ATOM      4  O   UNL     1     -14.779   5.559  32.973  0.00  0.00    -0.453 OA
ATOM      5  O   UNL     1     -14.208   4.218  34.891  0.00  0.00    -0.453 OA
ATOM     19  C   UNL     1     -15.290   2.262  31.448  0.00  0.00    +0.026 A 
ATOM     21  C   UNL     1     -15.250   3.656  31.519  0.00  0.00    +0.061 A 
ATOM     22  C   UNL     1     -14.957   1.479  32.567  0.00  0.00    +0.015 A 
ATOM     23  C   UNL     1     -14.875   4.225  32.718  0.00  0.00    +0.167 A 
ATOM     24  C   UNL     1     -14.550   3.460  33.814  0.00  0.00    +0.166 A 
ATOM     25  C   UNL     1     -14.581   2.081  33.770  0.00  0.00    +0.050 A 
ATOM     28  C   UNL     1     -14.356   5.546  34.352  0.00  0.00    +0.466 C 
ENDBRANCH  18  19
ENDBRANCH  12  15
TORSDOF 4
ENDMDL
MODEL 2
REMARK VINA RESULT:      -8.2     28.167     31.378
REMARK  Name = 28961008
REMARK  5 active torsions:
REMARK  status: ('A' for Active; 'I' for Inactive)
REMARK    1  A    between atoms: N_6  and  C_16
REMARK    2  A    between atoms: N_7  and  C_11
REMARK    3  A    between atoms: N_10  and  C_20
REMARK    4  A    between atoms: C_12  and  C_15
REMARK    5  A    between atoms: C_18  and  C_19
REMARK                            x       y       z     vdW  Elec       q    Type
REMARK                         _______ _______ _______ _____ _____    ______ ____
ROOT
ATOM      6  N   UNL     1      13.442   9.008  18.140  0.00  0.00    -0.293 NA
ATOM     11  C   UNL     1      14.393   6.906  18.471  0.00  0.00    +0.090 C 
ATOM     12  C   UNL     1      12.378   8.242  18.816  0.00  0.00    +0.147 C 
ATOM     13  C   UNL     1      13.039   6.899  19.181  0.00  0.00    +0.052 C 
ATOM     14  C   UNL     1      14.266   8.018  17.441  0.00  0.00    +0.107 C 
ATOM     16  C   UNL     1      12.927  10.027  17.232  0.00  0.00    +0.105 C 
ENDROOT
BRANCH  11   7
ATOM      3  O   UNL     1      16.810   5.393  18.743  0.00  0.00    -0.253 OA
ATOM      7  N   UNL     1      15.475   7.165  19.393  0.00  0.00    -0.295 N 
ATOM     10  N   UNL     1      17.493   6.863  20.441  0.00  0.00    -0.269 N 
ATOM     17  C   UNL     1      16.625   6.372  19.461  0.00  0.00    +0.304 C 
ATOM     32  H   UNL     1      15.363   7.914  20.068  0.00  0.00    +0.151 HD
ATOM     33  H   UNL     1      17.189   7.689  20.949  0.00  0.00    +0.156 HD
BRANCH  10  20
ATOM      1  F   UNL     1      22.440   4.847  21.923  0.00  0.00    -0.205 F 
ATOM     20  C   UNL     1      18.756   6.348  20.819  0.00  0.00    +0.035 A 
ATOM     26  C   UNL     1      19.351   5.336  20.066  0.00  0.00    +0.026 A 
ATOM     27  C   UNL     1      19.405   6.853  21.945  0.00  0.00    +0.026 A 
ATOM     29  C   UNL     1      20.595   4.829  20.439  0.00  0.00    +0.040 A 
ATOM     30  C   UNL     1      20.650   6.346  22.318  0.00  0.00    +0.040 A 
ATOM     31  C   UNL     1      21.245   5.334  21.565  0.00  0.00    +0.124 A 
ENDBRANCH  10  20
ENDBRANCH  11   7
BRANCH  12  15
ATOM      2  O   UNL     1      10.957   8.225  20.805  0.00  0.00    -0.336 OA
ATOM      8  N   UNL     1      11.988  10.180  20.435  0.00  0.00    -0.190 NA
ATOM      9  N   UNL     1      10.555   9.079  21.840  0.00  0.00    -0.056 NA
ATOM     15  C   UNL     1      11.799   8.951  20.023  0.00  0.00    +0.245 A 
ATOM     18  C   UNL     1      11.205  10.211  21.553  0.00  0.00    +0.202 A 
BRANCH  18  19
ATOM      4  O   UNL     1      10.506  12.515  25.803  0.00  0.00    -0.453 OA
ATOM      5  O   UNL     1      10.757  14.685  24.787  0.00  0.00    -0.453 OA
ATOM     19  C   UNL     1      11.094  11.390  22.361  0.00  0.00    +0.026 A 
ATOM     21  C   UNL     1      10.843  11.272  23.730  0.00  0.00    +0.061 A 
ATOM     22  C   UNL     1      11.241  12.657  21.768  0.00  0.00    +0.015 A 
ATOM     23  C   UNL     1      10.746  12.434  24.466  0.00  0.00    +0.167 A 
ATOM     24  C   UNL     1      10.890  13.674  23.886  0.00  0.00    +0.166 A 
ATOM     25  C   UNL     1      11.138  13.819  22.536  0.00  0.00    +0.050 A 
ATOM     28  C   UNL     1      10.514  13.944  25.999  0.00  0.00    +0.466 C 
ENDBRANCH  18  19
ENDBRANCH  12  15
TORSDOF 4
ENDMDL
MODEL 3
REMARK VINA RESULT:      -8.1      3.917     10.532
REMARK  Name = 28961008
REMARK  5 active torsions:
REMARK  status: ('A' for Active; 'I' for Inactive)
REMARK    1  A    between atoms: N_6  and  C_16
REMARK    2  A    between atoms: N_7  and  C_11
REMARK    3  A    between atoms: N_10  and  C_20
REMARK    4  A    between atoms: C_12  and  C_15
REMARK    5  A    between atoms: C_18  and  C_19
REMARK                            x       y       z     vdW  Elec       q    Type
REMARK                         _______ _______ _______ _____ _____    ______ ____
ROOT
ATOM      6  N   UNL     1     -16.820   3.333  23.974  0.00  0.00    -0.293 NA
ATOM     11  C   UNL     1     -17.317   4.344  26.015  0.00  0.00    +0.090 C 
ATOM     12  C   UNL     1     -16.752   4.777  23.679  0.00  0.00    +0.147 C 
ATOM     13  C   UNL     1     -16.927   5.462  25.048  0.00  0.00    +0.052 C 
ATOM     14  C   UNL     1     -17.740   3.199  25.107  0.00  0.00    +0.107 C 
ATOM     16  C   UNL     1     -17.243   2.533  22.831  0.00  0.00    +0.105 C 
ENDROOT
BRANCH  11   7
ATOM      3  O   UNL     1     -17.467   3.444  28.731  0.00  0.00    -0.253 OA
ATOM      7  N   UNL     1     -16.210   3.962  26.861  0.00  0.00    -0.295 N 
ATOM     10  N   UNL     1     -15.130   3.233  28.749  0.00  0.00    -0.269 N 
ATOM     17  C   UNL     1     -16.372   3.532  28.182  0.00  0.00    +0.304 C 
ATOM     32  H   UNL     1     -15.268   4.079  26.503  0.00  0.00    +0.151 HD
ATOM     33  H   UNL     1     -14.314   3.360  28.156  0.00  0.00    +0.156 HD
BRANCH  10  20
ATOM      1  F   UNL     1     -14.082   1.414  33.880  0.00  0.00    -0.205 F 
ATOM     20  C   UNL     1     -14.862   2.769  30.059  0.00  0.00    +0.035 A 
ATOM     26  C   UNL     1     -14.396   3.654  31.031  0.00  0.00    +0.026 A 
ATOM     27  C   UNL     1     -15.065   1.426  30.377  0.00  0.00    +0.026 A 
ATOM     29  C   UNL     1     -14.132   3.195  32.322  0.00  0.00    +0.040 A 
ATOM     30  C   UNL     1     -14.802   0.969  31.668  0.00  0.00    +0.040 A 
ATOM     31  C   UNL     1     -14.335   1.853  32.640  0.00  0.00    +0.124 A 
ENDBRANCH  10  20
ENDBRANCH  11   7
BRANCH  12  15
ATOM      2  O   UNL     1     -14.335   4.565  23.384  0.00  0.00    -0.336 OA
ATOM      8  N   UNL     1     -15.291   6.077  22.036  0.00  0.00    -0.190 NA
ATOM      9  N   UNL     1     -13.301   5.106  22.610  0.00  0.00    -0.056 NA
ATOM     15  C   UNL     1     -15.473   5.191  22.982  0.00  0.00    +0.245 A 
ATOM     18  C   UNL     1     -13.943   5.989  21.841  0.00  0.00    +0.202 A 
BRANCH  18  19
ATOM      4  O   UNL     1     -13.859   8.898  17.916  0.00  0.00    -0.453 OA
ATOM      5  O   UNL     1     -11.464   9.141  18.019  0.00  0.00    -0.453 OA
ATOM     19  C   UNL     1     -13.269   6.798  20.866  0.00  0.00    +0.026 A 
ATOM     21  C   UNL     1     -14.006   7.438  19.867  0.00  0.00    +0.061 A 
ATOM     22  C   UNL     1     -11.872   6.939  20.927  0.00  0.00    +0.015 A 
ATOM     23  C   UNL     1     -13.313   8.205  18.954  0.00  0.00    +0.167 A 
ATOM     24  C   UNL     1     -11.946   8.345  19.012  0.00  0.00    +0.166 A 
ATOM     25  C   UNL     1     -11.195   7.723  19.989  0.00  0.00    +0.050 A 
ATOM     28  C   UNL     1     -12.681   9.488  17.330  0.00  0.00    +0.466 C 
ENDBRANCH  18  19
ENDBRANCH  12  15
TORSDOF 4
ENDMDL
MODEL 4
REMARK VINA RESULT:      -8.0     29.907     33.143
REMARK  Name = 28961008
REMARK  5 active torsions:
REMARK  status: ('A' for Active; 'I' for Inactive)
REMARK    1  A    between atoms: N_6  and  C_16
REMARK    2  A    between atoms: N_7  and  C_11
REMARK    3  A    between atoms: N_10  and  C_20
REMARK    4  A    between atoms: C_12  and  C_15
REMARK    5  A    between atoms: C_18  and  C_19
REMARK                            x       y       z     vdW  Elec       q    Type
REMARK                         _______ _______ _______ _____ _____    ______ ____
ROOT
ATOM      6  N   UNL     1      13.166   8.437  20.198  0.00  0.00    -0.293 NA
ATOM     11  C   UNL     1      12.129   8.696  18.126  0.00  0.00    +0.090 C 
ATOM     12  C   UNL     1      13.450   7.169  19.500  0.00  0.00    +0.147 C 
ATOM     13  C   UNL     1      12.905   7.380  18.074  0.00  0.00    +0.052 C 
ATOM     14  C   UNL     1      11.923   8.947  19.613  0.00  0.00    +0.107 C 
ATOM     16  C   UNL     1      13.065   8.286  21.645  0.00  0.00    +0.105 C 
ENDROOT
BRANCH  11   7
ATOM      3  O   UNL     1      12.508   9.126  15.320  0.00  0.00    -0.253 OA
ATOM      7  N   UNL     1      12.869   9.773  17.510  0.00  0.00    -0.295 N 
ATOM     10  N   UNL     1      13.770  11.040  15.823  0.00  0.00    -0.269 N 
ATOM     17  C   UNL     1      13.005   9.910  16.124  0.00  0.00    +0.304 C 
ATOM     32  H   UNL     1      13.370  10.420  18.111  0.00  0.00    +0.151 HD
ATOM     33  H   UNL     1      14.109  11.587  16.610  0.00  0.00    +0.156 HD
BRANCH  10  20
ATOM      1  F   UNL     1      15.202  12.942  10.816  0.00  0.00    -0.205 F 
ATOM     20  C   UNL     1      14.136  11.525  14.545  0.00  0.00    +0.035 A 
ATOM     26  C   UNL     1      15.421  11.296  14.052  0.00  0.00    +0.026 A 
ATOM     27  C   UNL     1      13.211  12.234  13.778  0.00  0.00    +0.026 A 
ATOM     29  C   UNL     1      15.780  11.775  12.793  0.00  0.00    +0.040 A 
ATOM     30  C   UNL     1      13.571  12.712  12.518  0.00  0.00    +0.040 A 
ATOM     31  C   UNL     1      14.856  12.482  12.026  0.00  0.00    +0.124 A 
ENDBRANCH  10  20
ENDBRANCH  11   7
BRANCH  12  15
ATOM      2  O   UNL     1      15.379   6.131  18.415  0.00  0.00    -0.336 OA
ATOM      8  N   UNL     1      15.823   7.001  20.432  0.00  0.00    -0.190 NA
ATOM      9  N   UNL     1      16.738   5.890  18.654  0.00  0.00    -0.056 NA
ATOM     15  C   UNL     1      14.916   6.790  19.511  0.00  0.00    +0.245 A 
ATOM     18  C   UNL     1      16.924   6.432  19.860  0.00  0.00    +0.202 A 
BRANCH  18  19
ATOM      4  O   UNL     1      21.452   4.733  20.551  0.00  0.00    -0.453 OA
ATOM      5  O   UNL     1      21.877   6.295  22.336  0.00  0.00    -0.453 OA
ATOM     19  C   UNL     1      18.196   6.423  20.523  0.00  0.00    +0.026 A 
ATOM     21  C   UNL     1      19.177   5.511  20.128  0.00  0.00    +0.061 A 
ATOM     22  C   UNL     1      18.443   7.335  21.565  0.00  0.00    +0.015 A 
ATOM     23  C   UNL     1      20.384   5.541  20.795  0.00  0.00    +0.167 A 
ATOM     24  C   UNL     1      20.628   6.433  21.814  0.00  0.00    +0.166 A 
ATOM     25  C   UNL     1      19.676   7.345  22.223  0.00  0.00    +0.050 A 
ATOM     28  C   UNL     1      22.393   5.216  21.531  0.00  0.00    +0.466 C 
ENDBRANCH  18  19
ENDBRANCH  12  15
TORSDOF 4
ENDMDL
MODEL 5
REMARK VINA RESULT:      -7.8      1.554      2.110
REMARK  Name = 28961008
REMARK  5 active torsions:
REMARK  status: ('A' for Active; 'I' for Inactive)
REMARK    1  A    between atoms: N_6  and  C_16
REMARK    2  A    between atoms: N_7  and  C_11
REMARK    3  A    between atoms: N_10  and  C_20
REMARK    4  A    between atoms: C_12  and  C_15
REMARK    5  A    between atoms: C_18  and  C_19
REMARK                            x       y       z     vdW  Elec       q    Type
REMARK                         _______ _______ _______ _____ _____    ______ ____
ROOT
ATOM      6  N   UNL     1     -18.163   3.733  25.098  0.00  0.00    -0.293 NA
ATOM     11  C   UNL     1     -16.958   3.344  23.141  0.00  0.00    +0.090 C 
ATOM     12  C   UNL     1     -17.728   2.329  25.225  0.00  0.00    +0.147 C 
ATOM     13  C   UNL     1     -16.802   2.099  24.015  0.00  0.00    +0.052 C 
ATOM     14  C   UNL     1     -18.227   4.004  23.659  0.00  0.00    +0.107 C 
ATOM     16  C   UNL     1     -19.434   4.001  25.760  0.00  0.00    +0.105 C 
ENDROOT
BRANCH  11   7
ATOM      3  O   UNL     1     -15.871   5.031  21.097  0.00  0.00    -0.253 OA
ATOM      7  N   UNL     1     -15.819   4.225  23.263  0.00  0.00    -0.295 N 
ATOM     10  N   UNL     1     -14.243   5.763  22.621  0.00  0.00    -0.269 N 
ATOM     17  C   UNL     1     -15.352   5.018  22.210  0.00  0.00    +0.304 C 
ATOM     32  H   UNL     1     -15.293   4.215  24.131  0.00  0.00    +0.151 HD
ATOM     33  H   UNL     1     -13.937   5.636  23.583  0.00  0.00    +0.156 HD
BRANCH  10  20
ATOM      1  F   UNL     1     -11.267   9.364  19.635  0.00  0.00    -0.205 F 
ATOM     20  C   UNL     1     -13.483   6.682  21.859  0.00  0.00    +0.035 A 
ATOM     26  C   UNL     1     -12.311   6.264  21.228  0.00  0.00    +0.026 A 
ATOM     27  C   UNL     1     -13.907   8.005  21.739  0.00  0.00    +0.026 A 
ATOM     29  C   UNL     1     -11.563   7.170  20.478  0.00  0.00    +0.040 A 
ATOM     30  C   UNL     1     -13.158   8.911  20.988  0.00  0.00    +0.040 A 
ATOM     31  C   UNL     1     -11.986   8.494  20.357  0.00  0.00    +0.124 A 
ENDBRANCH  10  20
ENDBRANCH  11   7
BRANCH  12  15
ATOM      2  O   UNL     1     -17.001   0.718  26.915  0.00  0.00    -0.336 OA
ATOM      8  N   UNL     1     -16.485   2.845  27.396  0.00  0.00    -0.190 NA
ATOM      9  N   UNL     1     -16.336   0.688  28.147  0.00  0.00    -0.056 NA
ATOM     15  C   UNL     1     -17.046   2.025  26.543  0.00  0.00    +0.245 A 
ATOM     18  C   UNL     1     -16.064   1.978  28.363  0.00  0.00    +0.202 A 
BRANCH  18  19
ATOM      4  O   UNL     1     -14.891   5.380  31.668  0.00  0.00    -0.453 OA
ATOM      5  O   UNL     1     -13.449   3.867  32.866  0.00  0.00    -0.453 OA
ATOM     19  C   UNL     1     -15.371   2.435  29.533  0.00  0.00    +0.026 A 
ATOM     21  C   UNL     1     -15.539   3.752  29.969  0.00  0.00    +0.061 A 
ATOM     22  C   UNL     1     -14.530   1.552  30.232  0.00  0.00    +0.015 A 
ATOM     23  C   UNL     1     -14.853   4.144  31.099  0.00  0.00    +0.167 A 
ATOM     24  C   UNL     1     -14.029   3.280  31.784  0.00  0.00    +0.166 A 
ATOM     25  C   UNL     1     -13.847   1.975  31.375  0.00  0.00    +0.050 A 
ATOM     28  C   UNL     1     -14.000   5.197  32.787  0.00  0.00    +0.466 C 
ENDBRANCH  18  19
ENDBRANCH  12  15
TORSDOF 4
ENDMDL
MODEL 6
REMARK VINA RESULT:      -7.6     37.091     38.468
REMARK  Name = 28961008
REMARK  5 active torsions:
REMARK  status: ('A' for Active; 'I' for Inactive)
REMARK    1  A    between atoms: N_6  and  C_16
REMARK    2  A    between atoms: N_7  and  C_11
REMARK    3  A    between atoms: N_10  and  C_20
REMARK    4  A    between atoms: C_12  and  C_15
REMARK    5  A    between atoms: C_18  and  C_19
REMARK                            x       y       z     vdW  Elec       q    Type
REMARK                         _______ _______ _______ _____ _____    ______ ____
ROOT
ATOM      6  N   UNL     1       6.547   7.189  -5.211  0.00  0.00    -0.293 NA
ATOM     11  C   UNL     1       4.403   6.615  -4.499  0.00  0.00    +0.090 C 
ATOM     12  C   UNL     1       6.717   6.905  -3.774  0.00  0.00    +0.147 C 
ATOM     13  C   UNL     1       5.344   6.376  -3.318  0.00  0.00    +0.052 C 
ATOM     14  C   UNL     1       5.152   7.608  -5.375  0.00  0.00    +0.107 C 
ATOM     16  C   UNL     1       7.478   8.193  -5.712  0.00  0.00    +0.105 C 
ENDROOT
BRANCH  11   7
ATOM      3  O   UNL     1       2.224   4.816  -4.031  0.00  0.00    -0.253 OA
ATOM      7  N   UNL     1       4.126   5.390  -5.213  0.00  0.00    -0.295 N 
ATOM     10  N   UNL     1       3.022   3.457  -5.770  0.00  0.00    -0.269 N 
ATOM     17  C   UNL     1       3.034   4.566  -4.919  0.00  0.00    +0.304 C 
ATOM     32  H   UNL     1       4.792   5.078  -5.912  0.00  0.00    +0.151 HD
ATOM     33  H   UNL     1       3.771   3.399  -6.456  0.00  0.00    +0.156 HD
BRANCH  10  20
ATOM      1  F   UNL     1      -0.634  -0.709  -5.879  0.00  0.00    -0.205 F 
ATOM     20  C   UNL     1       2.089   2.393  -5.798  0.00  0.00    +0.035 A 
ATOM     26  C   UNL     1       2.291   1.267  -5.000  0.00  0.00    +0.026 A 
ATOM     27  C   UNL     1       0.968   2.473  -6.623  0.00  0.00    +0.026 A 
ATOM     29  C   UNL     1       1.371   0.219  -5.028  0.00  0.00    +0.040 A 
ATOM     30  C   UNL     1       0.048   1.424  -6.650  0.00  0.00    +0.040 A 
ATOM     31  C   UNL     1       0.249   0.298  -5.853  0.00  0.00    +0.124 A 
ENDBRANCH  10  20
ENDBRANCH  11   7
BRANCH  12  15
ATOM      2  O   UNL     1       8.061   4.964  -4.409  0.00  0.00    -0.336 OA
ATOM      8  N   UNL     1       8.647   5.881  -2.450  0.00  0.00    -0.190 NA
ATOM      9  N   UNL     1       9.129   4.199  -3.924  0.00  0.00    -0.056 NA
ATOM     15  C   UNL     1       7.841   5.933  -3.481  0.00  0.00    +0.245 A 
ATOM     18  C   UNL     1       9.419   4.801  -2.767  0.00  0.00    +0.202 A 
BRANCH  18  19
ATOM      4  O   UNL     1      11.852   4.763   1.469  0.00  0.00    -0.453 OA
ATOM      5  O   UNL     1      13.444   3.146   0.659  0.00  0.00    -0.453 OA
ATOM     19  C   UNL     1      10.474   4.351  -1.906  0.00  0.00    +0.026 A 
ATOM     21  C   UNL     1      10.569   4.853  -0.606  0.00  0.00    +0.061 A 
ATOM     22  C   UNL     1      11.403   3.408  -2.379  0.00  0.00    +0.015 A 
ATOM     23  C   UNL     1      11.601   4.390   0.184  0.00  0.00    +0.167 A 
ATOM     24  C   UNL     1      12.510   3.466  -0.277  0.00  0.00    +0.166 A 
ATOM     25  C   UNL     1      12.438   2.955  -1.557  0.00  0.00    +0.050 A 
ATOM     28  C   UNL     1      13.020   3.971   1.763  0.00  0.00    +0.466 C 
ENDBRANCH  18  19
ENDBRANCH  12  15
TORSDOF 4
ENDMDL
MODEL 7
REMARK VINA RESULT:      -7.5     20.088     22.541
REMARK  Name = 28961008
REMARK  5 active torsions:
REMARK  status: ('A' for Active; 'I' for Inactive)
REMARK    1  A    between atoms: N_6  and  C_16
REMARK    2  A    between atoms: N_7  and  C_11
REMARK    3  A    between atoms: N_10  and  C_20
REMARK    4  A    between atoms: C_12  and  C_15
REMARK    5  A    between atoms: C_18  and  C_19
REMARK                            x       y       z     vdW  Elec       q    Type
REMARK                         _______ _______ _______ _____ _____    ______ ____
ROOT
ATOM      6  N   UNL     1      -3.449 -12.143  11.780  0.00  0.00    -0.293 NA
ATOM     11  C   UNL     1      -3.352 -10.260  10.409  0.00  0.00    +0.090 C 
ATOM     12  C   UNL     1      -2.483 -11.261  12.461  0.00  0.00    +0.147 C 
ATOM     13  C   UNL     1      -2.520  -9.949  11.654  0.00  0.00    +0.052 C 
ATOM     14  C   UNL     1      -3.393 -11.780  10.361  0.00  0.00    +0.107 C 
ATOM     16  C   UNL     1      -3.179 -13.560  11.991  0.00  0.00    +0.105 C 
ENDROOT
BRANCH  11   7
ATOM      3  O   UNL     1      -5.002  -9.380   8.239  0.00  0.00    -0.253 OA
ATOM      7  N   UNL     1      -4.681  -9.702  10.506  0.00  0.00    -0.295 N 
ATOM     10  N   UNL     1      -6.665  -8.798   9.790  0.00  0.00    -0.269 N 
ATOM     17  C   UNL     1      -5.421  -9.296   9.390  0.00  0.00    +0.304 C 
ATOM     32  H   UNL     1      -5.066  -9.532  11.429  0.00  0.00    +0.151 HD
ATOM     33  H   UNL     1      -6.858  -8.798  10.788  0.00  0.00    +0.156 HD
BRANCH  10  20
ATOM      1  F   UNL     1     -10.721  -6.806   6.579  0.00  0.00    -0.205 F 
ATOM     20  C   UNL     1      -7.700  -8.290   8.970  0.00  0.00    +0.035 A 
ATOM     26  C   UNL     1      -8.812  -9.081   8.680  0.00  0.00    +0.026 A 
ATOM     27  C   UNL     1      -7.608  -6.998   8.453  0.00  0.00    +0.026 A 
ATOM     29  C   UNL     1      -9.832  -8.579   7.872  0.00  0.00    +0.040 A 
ATOM     30  C   UNL     1      -8.629  -6.497   7.646  0.00  0.00    +0.040 A 
ATOM     31  C   UNL     1      -9.741  -7.287   7.355  0.00  0.00    +0.124 A 
ENDBRANCH  10  20
ENDBRANCH  11   7
BRANCH  12  15
ATOM      2  O   UNL     1      -1.820 -10.451  14.671  0.00  0.00    -0.336 OA
ATOM      8  N   UNL     1      -3.868 -11.358  14.605  0.00  0.00    -0.190 NA
ATOM      9  N   UNL     1      -2.326 -10.365  15.973  0.00  0.00    -0.056 NA
ATOM     15  C   UNL     1      -2.791 -11.048  13.929  0.00  0.00    +0.245 A 
ATOM     18  C   UNL     1      -3.536 -10.920  15.854  0.00  0.00    +0.202 A 
BRANCH  18  19
ATOM      4  O   UNL     1      -7.927 -10.502  17.955  0.00  0.00    -0.453 OA
ATOM      5  O   UNL     1      -7.121 -11.371  20.052  0.00  0.00    -0.453 OA
ATOM     19  C   UNL     1      -4.438 -11.049  16.962  0.00  0.00    +0.026 A 
ATOM     21  C   UNL     1      -5.774 -10.672  16.816  0.00  0.00    +0.061 A 
ATOM     22  C   UNL     1      -3.967 -11.557  18.186  0.00  0.00    +0.015 A 
ATOM     23  C   UNL     1      -6.603 -10.816  17.909  0.00  0.00    +0.167 A 
ATOM     24  C   UNL     1      -6.144 -11.313  19.107  0.00  0.00    +0.166 A 
ATOM     25  C   UNL     1      -4.828 -11.693  19.278  0.00  0.00    +0.050 A 
ATOM     28  C   UNL     1      -8.248 -10.857  19.315  0.00  0.00    +0.466 C 
ENDBRANCH  18  19
ENDBRANCH  12  15
TORSDOF 4
ENDMDL
MODEL 8
REMARK VINA RESULT:      -7.5     34.416     37.071
REMARK  Name = 28961008
REMARK  5 active torsions:
REMARK  status: ('A' for Active; 'I' for Inactive)
REMARK    1  A    between atoms: N_6  and  C_16
REMARK    2  A    between atoms: N_7  and  C_11
REMARK    3  A    between atoms: N_10  and  C_20
REMARK    4  A    between atoms: C_12  and  C_15
REMARK    5  A    between atoms: C_18  and  C_19
REMARK                            x       y       z     vdW  Elec       q    Type
REMARK                         _______ _______ _______ _____ _____    ______ ____
ROOT
ATOM      6  N   UNL     1      22.980   1.559  27.043  0.00  0.00    -0.293 NA
ATOM     11  C   UNL     1      22.290  -0.645  26.728  0.00  0.00    +0.090 C 
ATOM     12  C   UNL     1      23.663   1.150  25.802  0.00  0.00    +0.147 C 
ATOM     13  C   UNL     1      23.101  -0.252  25.493  0.00  0.00    +0.052 C 
ATOM     14  C   UNL     1      22.756   0.326  27.803  0.00  0.00    +0.107 C 
ATOM     16  C   UNL     1      23.730   2.544  27.813  0.00  0.00    +0.105 C 
ENDROOT
BRANCH  11   7
ATOM      3  O   UNL     1      20.742  -2.117  24.819  0.00  0.00    -0.253 OA
ATOM      7  N   UNL     1      20.870  -0.526  26.492  0.00  0.00    -0.295 N 
ATOM     10  N   UNL     1      18.831  -0.955  25.532  0.00  0.00    -0.269 N 
ATOM     17  C   UNL     1      20.189  -1.286  25.535  0.00  0.00    +0.304 C 
ATOM     32  H   UNL     1      20.357   0.192  26.993  0.00  0.00    +0.151 HD
ATOM     33  H   UNL     1      18.532  -0.242  26.192  0.00  0.00    +0.156 HD
BRANCH  10  20
ATOM      1  F   UNL     1      14.824  -3.067  22.335  0.00  0.00    -0.205 F 
ATOM     20  C   UNL     1      17.808  -1.495  24.716  0.00  0.00    +0.035 A 
ATOM     26  C   UNL     1      17.063  -2.587  25.161  0.00  0.00    +0.026 A 
ATOM     27  C   UNL     1      17.546  -0.934  23.467  0.00  0.00    +0.026 A 
ATOM     29  C   UNL     1      16.056  -3.117  24.357  0.00  0.00    +0.040 A 
ATOM     30  C   UNL     1      16.537  -1.465  22.662  0.00  0.00    +0.040 A 
ATOM     31  C   UNL     1      15.792  -2.557  23.107  0.00  0.00    +0.124 A 
ENDBRANCH  10  20
ENDBRANCH  11   7
BRANCH  12  15
ATOM      2  O   UNL     1      24.568   2.426  23.923  0.00  0.00    -0.336 OA
ATOM      8  N   UNL     1      22.372   2.721  24.256  0.00  0.00    -0.190 NA
ATOM      9  N   UNL     1      24.143   3.326  22.939  0.00  0.00    -0.056 NA
ATOM     15  C   UNL     1      23.465   2.120  24.656  0.00  0.00    +0.245 A 
ATOM     18  C   UNL     1      22.838   3.450  23.201  0.00  0.00    +0.202 A 
BRANCH  18  19
ATOM      4  O   UNL     1      20.249   7.530  22.482  0.00  0.00    -0.453 OA
ATOM      5  O   UNL     1      19.499   6.795  20.313  0.00  0.00    -0.453 OA
ATOM     19  C   UNL     1      21.973   4.292  22.427  0.00  0.00    +0.026 A 
ATOM     21  C   UNL     1      21.572   5.529  22.936  0.00  0.00    +0.061 A 
ATOM     22  C   UNL     1      21.535   3.863  21.161  0.00  0.00    +0.015 A 
ATOM     23  C   UNL     1      20.739   6.303  22.154  0.00  0.00    +0.167 A 
ATOM     24  C   UNL     1      20.311   5.885  20.915  0.00  0.00    +0.166 A 
ATOM     25  C   UNL     1      20.692   4.667  20.390  0.00  0.00    +0.050 A 
ATOM     28  C   UNL     1      19.464   7.835  21.312  0.00  0.00    +0.466 C 
ENDBRANCH  18  19
ENDBRANCH  12  15
TORSDOF 4
ENDMDL
MODEL 9
REMARK VINA RESULT:      -7.5     33.350     36.543
REMARK  Name = 28961008
REMARK  5 active torsions:
REMARK  status: ('A' for Active; 'I' for Inactive)
REMARK    1  A    between atoms: N_6  and  C_16
REMARK    2  A    between atoms: N_7  and  C_11
REMARK    3  A    between atoms: N_10  and  C_20
REMARK    4  A    between atoms: C_12  and  C_15
REMARK    5  A    between atoms: C_18  and  C_19
REMARK                            x       y       z     vdW  Elec       q    Type
REMARK                         _______ _______ _______ _____ _____    ______ ____
ROOT
ATOM      6  N   UNL     1      20.652   7.208  22.589  0.00  0.00    -0.293 NA
ATOM     11  C   UNL     1      22.563   6.418  21.512  0.00  0.00    +0.090 C 
ATOM     12  C   UNL     1      20.417   7.533  21.169  0.00  0.00    +0.147 C 
ATOM     13  C   UNL     1      21.597   6.884  20.422  0.00  0.00    +0.052 C 
ATOM     14  C   UNL     1      22.108   7.168  22.755  0.00  0.00    +0.107 C 
ATOM     16  C   UNL     1      20.025   8.153  23.506  0.00  0.00    +0.105 C 
ENDROOT
BRANCH  11   7
ATOM      3  O   UNL     1      24.675   4.713  22.426  0.00  0.00    -0.253 OA
ATOM      7  N   UNL     1      22.495   4.989  21.707  0.00  0.00    -0.295 N 
ATOM     10  N   UNL     1      23.219   2.881  22.250  0.00  0.00    -0.269 N 
ATOM     17  C   UNL     1      23.579   4.228  22.158  0.00  0.00    +0.304 C 
ATOM     32  H   UNL     1      21.645   4.506  21.438  0.00  0.00    +0.151 HD
ATOM     33  H   UNL     1      22.266   2.643  21.990  0.00  0.00    +0.156 HD
BRANCH  10  20
ATOM      1  F   UNL     1      26.375  -1.380  23.870  0.00  0.00    -0.205 F 
ATOM     20  C   UNL     1      24.025   1.793  22.664  0.00  0.00    +0.035 A 
ATOM     26  C   UNL     1      23.958   1.336  23.980  0.00  0.00    +0.026 A 
ATOM     27  C   UNL     1      24.886   1.179  21.755  0.00  0.00    +0.026 A 
ATOM     29  C   UNL     1      24.752   0.265  24.387  0.00  0.00    +0.040 A 
ATOM     30  C   UNL     1      25.680   0.107  22.163  0.00  0.00    +0.040 A 
ATOM     31  C   UNL     1      25.613  -0.350  23.479  0.00  0.00    +0.124 A 
ENDBRANCH  10  20
ENDBRANCH  11   7
BRANCH  12  15
ATOM      2  O   UNL     1      19.055   5.850  20.035  0.00  0.00    -0.336 OA
ATOM      8  N   UNL     1      17.905   7.647  20.720  0.00  0.00    -0.190 NA
ATOM      9  N   UNL     1      17.726   5.630  19.653  0.00  0.00    -0.056 NA
ATOM     15  C   UNL     1      19.073   7.059  20.657  0.00  0.00    +0.245 A 
ATOM     18  C   UNL     1      17.110   6.732  20.092  0.00  0.00    +0.202 A 
BRANCH  18  19
ATOM      4  O   UNL     1      12.520   6.996  21.745  0.00  0.00    -0.453 OA
ATOM      5  O   UNL     1      11.657   7.549  19.565  0.00  0.00    -0.453 OA
ATOM     19  C   UNL     1      15.703   6.950  19.920  0.00  0.00    +0.026 A 
ATOM     21  C   UNL     1      14.845   6.840  21.017  0.00  0.00    +0.061 A 
ATOM     22  C   UNL     1      15.199   7.272  18.647  0.00  0.00    +0.015 A 
ATOM     23  C   UNL     1      13.500   7.059  20.802  0.00  0.00    +0.167 A 
ATOM     24  C   UNL     1      13.007   7.375  19.558  0.00  0.00    +0.166 A 
ATOM     25  C   UNL     1      13.832   7.489  18.458  0.00  0.00    +0.050 A 
ATOM     28  C   UNL     1      11.356   7.307  20.954  0.00  0.00    +0.466 C 
ENDBRANCH  18  19
ENDBRANCH  12  15
TORSDOF 4
ENDMDL
MODEL 10
REMARK VINA RESULT:      -7.4     33.649     36.464
REMARK  Name = 28961008
REMARK  5 active torsions:
REMARK  status: ('A' for Active; 'I' for Inactive)
REMARK    1  A    between atoms: N_6  and  C_16
REMARK    2  A    between atoms: N_7  and  C_11
REMARK    3  A    between atoms: N_10  and  C_20
REMARK    4  A    between atoms: C_12  and  C_15
REMARK    5  A    between atoms: C_18  and  C_19
REMARK                            x       y       z     vdW  Elec       q    Type
REMARK                         _______ _______ _______ _____ _____    ______ ____
ROOT
ATOM      6  N   UNL     1      21.093   7.343  20.991  0.00  0.00    -0.293 NA
ATOM     11  C   UNL     1      19.210   7.746  22.305  0.00  0.00    +0.090 C 
ATOM     12  C   UNL     1      21.397   6.659  22.262  0.00  0.00    +0.147 C 
ATOM     13  C   UNL     1      20.103   6.783  23.089  0.00  0.00    +0.052 C 
ATOM     14  C   UNL     1      20.162   8.423  21.330  0.00  0.00    +0.107 C 
ATOM     16  C   UNL     1      22.282   7.843  20.310  0.00  0.00    +0.105 C 
ENDROOT
BRANCH  11   7
ATOM      3  O   UNL     1      16.935   8.919  21.020  0.00  0.00    -0.253 OA
ATOM      7  N   UNL     1      18.155   7.046  21.610  0.00  0.00    -0.295 N 
ATOM     10  N   UNL     1      16.218   6.768  20.413  0.00  0.00    -0.269 N 
ATOM     17  C   UNL     1      17.075   7.699  21.007  0.00  0.00    +0.304 C 
ATOM     32  H   UNL     1      18.163   6.031  21.620  0.00  0.00    +0.151 HD
ATOM     33  H   UNL     1      16.480   5.789  20.493  0.00  0.00    +0.156 HD
BRANCH  10  20
ATOM      1  F   UNL     1      11.517   7.753  17.645  0.00  0.00    -0.205 F 
ATOM     20  C   UNL     1      15.018   7.019  19.706  0.00  0.00    +0.035 A 
ATOM     26  C   UNL     1      15.064   7.384  18.361  0.00  0.00    +0.026 A 
ATOM     27  C   UNL     1      13.790   6.903  20.356  0.00  0.00    +0.026 A 
ATOM     29  C   UNL     1      13.881   7.632  17.665  0.00  0.00    +0.040 A 
ATOM     30  C   UNL     1      12.607   7.150  19.659  0.00  0.00    +0.040 A 
ATOM     31  C   UNL     1      12.653   7.515  18.314  0.00  0.00    +0.124 A 
ENDBRANCH  10  20
ENDBRANCH  11   7
BRANCH  12  15
ATOM      2  O   UNL     1      21.158   4.492  21.156  0.00  0.00    -0.336 OA
ATOM      8  N   UNL     1      22.783   4.558  22.697  0.00  0.00    -0.190 NA
ATOM      9  N   UNL     1      21.732   3.215  21.172  0.00  0.00    -0.056 NA
ATOM     15  C   UNL     1      21.836   5.220  22.083  0.00  0.00    +0.245 A 
ATOM     18  C   UNL     1      22.682   3.333  22.104  0.00  0.00    +0.202 A 
BRANCH  18  19
ATOM      4  O   UNL     1      24.601   0.191  25.316  0.00  0.00    -0.453 OA
ATOM      5  O   UNL     1      25.978  -0.848  23.633  0.00  0.00    -0.453 OA
ATOM     19  C   UNL     1      23.547   2.248  22.466  0.00  0.00    +0.026 A 
ATOM     21  C   UNL     1      23.584   1.802  23.790  0.00  0.00    +0.061 A 
ATOM     22  C   UNL     1      24.351   1.642  21.484  0.00  0.00    +0.015 A 
ATOM     23  C   UNL     1      24.432   0.756  24.089  0.00  0.00    +0.167 A 
ATOM     24  C   UNL     1      25.218   0.162  23.129  0.00  0.00    +0.166 A 
ATOM     25  C   UNL     1      25.200   0.583  21.814  0.00  0.00    +0.050 A 
ATOM     28  C   UNL     1      25.582  -0.824  25.019  0.00  0.00    +0.466 C 
ENDBRANCH  18  19
ENDBRANCH  12  15
TORSDOF 4
ENDMDL
