MODEL 1
REMARK VINA RESULT:      -6.2      0.000      0.000
REMARK  Name = 25312971
REMARK  8 active torsions:
REMARK  status: ('A' for Active; 'I' for Inactive)
REMARK    1  A    between atoms: O_6  and  C_21
REMARK    2  A    between atoms: N_9  and  C_17
REMARK    3  A    between atoms: C_10  and  C_14
REMARK    4  A    between atoms: C_11  and  C_16
REMARK    5  A    between atoms: C_14  and  C_17
REMARK    6  A    between atoms: C_16  and  C_21
REMARK    7  A    between atoms: C_18  and  C_24
REMARK    8  A    between atoms: C_29  and  C_30
REMARK                            x       y       z     vdW  Elec       q    Type
REMARK                         _______ _______ _______ _____ _____    ______ ____
ROOT
ATOM      5  O   UNL     1      -1.383  -9.836  12.457  0.00  0.00    -0.270 OA
ATOM      8  N   UNL     1      -2.643 -11.240  13.841  0.00  0.00    -0.297 N 
ATOM     10  C   UNL     1      -4.579 -11.587  15.360  0.00  0.00    +0.011 C 
ATOM     11  C   UNL     1      -3.596 -11.541  16.558  0.00  0.00    +0.006 C 
ATOM     12  C   UNL     1      -3.839 -12.056  14.093  0.00  0.00    +0.112 C 
ATOM     13  C   UNL     1      -2.341 -10.716  16.229  0.00  0.00    +0.023 C 
ATOM     15  C   UNL     1      -1.682 -11.203  14.941  0.00  0.00    +0.108 C 
ATOM     18  C   UNL     1      -2.380 -10.525  12.670  0.00  0.00    +0.247 C 
ENDROOT
BRANCH  18  24
ATOM     24  C   UNL     1      -3.367 -10.586  11.587  0.00  0.00    +0.037 A 
ATOM     25  C   UNL     1      -4.340  -9.592  11.472  0.00  0.00    +0.013 A 
ATOM     26  C   UNL     1      -3.334 -11.637  10.673  0.00  0.00    +0.013 A 
ATOM     27  C   UNL     1      -5.280  -9.651  10.444  0.00  0.00    +0.013 A 
ATOM     28  C   UNL     1      -4.274 -11.697   9.644  0.00  0.00    +0.013 A 
ATOM     29  C   UNL     1      -5.246 -10.703   9.529  0.00  0.00    +0.055 A 
BRANCH  29  30
ATOM      1  F   UNL     1      -6.975 -11.925   8.414  0.00  0.00    -0.166 F 
ATOM      2  F   UNL     1      -5.683 -10.675   7.192  0.00  0.00    -0.166 F 
ATOM      3  F   UNL     1      -7.181  -9.767   8.479  0.00  0.00    -0.166 F 
ATOM     30  C   UNL     1      -6.252 -10.766   8.429  0.00  0.00    +0.417 C 
ENDBRANCH  29  30
ENDBRANCH  18  24
BRANCH  10  14
ATOM     14  C   UNL     1      -5.300 -10.259  15.095  0.00  0.00    +0.020 C 
BRANCH  14  17
ATOM     17  C   UNL     1      -6.808 -10.463  15.038  0.00  0.00    +0.085 C 
BRANCH  17   9
ATOM      4  O   UNL     1      -9.585  -9.865  18.128  0.00  0.00    -0.377 OA
ATOM      9  N   UNL     1      -7.417 -10.016  16.289  0.00  0.00    -0.298 NA
ATOM     19  C   UNL     1      -7.800 -11.166  17.122  0.00  0.00    +0.112 C 
ATOM     20  C   UNL     1      -8.590  -9.172  16.026  0.00  0.00    +0.112 C 
ATOM     22  C   UNL     1      -8.445 -10.676  18.415  0.00  0.00    +0.175 C 
ATOM     23  C   UNL     1      -9.215  -8.729  17.346  0.00  0.00    +0.175 C 
ENDBRANCH  17   9
ENDBRANCH  14  17
ENDBRANCH  10  14
BRANCH  11  16
ATOM     16  C   UNL     1      -4.246 -11.042  17.848  0.00  0.00    +0.124 C 
BRANCH  16  21
ATOM      7  O   UNL     1      -3.332 -12.172  19.805  0.00  0.00    -0.251 OA
ATOM     21  C   UNL     1      -4.187 -12.078  18.937  0.00  0.00    +0.305 C 
BRANCH  21   6
ATOM      6  O   UNL     1      -5.244 -12.922  18.824  0.00  0.00    -0.481 OA
ATOM     31  H   UNL     1      -5.847 -12.859  19.595  0.00  0.00    +0.295 HD
ENDBRANCH  21   6
ENDBRANCH  16  21
ENDBRANCH  11  16
TORSDOF 8
ENDMDL
MODEL 2
REMARK VINA RESULT:      -6.2      1.846      2.866
REMARK  Name = 25312971
REMARK  8 active torsions:
REMARK  status: ('A' for Active; 'I' for Inactive)
REMARK    1  A    between atoms: O_6  and  C_21
REMARK    2  A    between atoms: N_9  and  C_17
REMARK    3  A    between atoms: C_10  and  C_14
REMARK    4  A    between atoms: C_11  and  C_16
REMARK    5  A    between atoms: C_14  and  C_17
REMARK    6  A    between atoms: C_16  and  C_21
REMARK    7  A    between atoms: C_18  and  C_24
REMARK    8  A    between atoms: C_29  and  C_30
REMARK                            x       y       z     vdW  Elec       q    Type
REMARK                         _______ _______ _______ _____ _____    ______ ____
ROOT
ATOM      5  O   UNL     1      -0.991  -9.719  12.192  0.00  0.00    -0.270 OA
ATOM      8  N   UNL     1      -2.420 -11.119  13.406  0.00  0.00    -0.297 N 
ATOM     10  C   UNL     1      -4.515 -11.449  14.701  0.00  0.00    +0.011 C 
ATOM     11  C   UNL     1      -3.667 -11.442  15.999  0.00  0.00    +0.006 C 
ATOM     12  C   UNL     1      -3.651 -11.913  13.514  0.00  0.00    +0.112 C 
ATOM     13  C   UNL     1      -2.368 -10.639  15.822  0.00  0.00    +0.023 C 
ATOM     15  C   UNL     1      -1.583 -11.118  14.604  0.00  0.00    +0.108 C 
ATOM     18  C   UNL     1      -2.018 -10.391  12.284  0.00  0.00    +0.247 C 
ENDROOT
BRANCH  18  24
ATOM     24  C   UNL     1      -2.884 -10.414  11.099  0.00  0.00    +0.037 A 
ATOM     25  C   UNL     1      -3.195  -9.225  10.439  0.00  0.00    +0.013 A 
ATOM     26  C   UNL     1      -3.395 -11.624  10.634  0.00  0.00    +0.013 A 
ATOM     27  C   UNL     1      -4.020  -9.247   9.314  0.00  0.00    +0.013 A 
ATOM     28  C   UNL     1      -4.220 -11.647   9.510  0.00  0.00    +0.013 A 
ATOM     29  C   UNL     1      -4.532 -10.458   8.850  0.00  0.00    +0.055 A 
BRANCH  29  30
ATOM      1  F   UNL     1      -6.039  -9.291   7.404  0.00  0.00    -0.166 F 
ATOM      2  F   UNL     1      -6.413 -11.405   7.746  0.00  0.00    -0.166 F 
ATOM      3  F   UNL     1      -4.753 -10.779   6.490  0.00  0.00    -0.166 F 
ATOM     30  C   UNL     1      -5.414 -10.481   7.647  0.00  0.00    +0.417 C 
ENDBRANCH  29  30
ENDBRANCH  18  24
BRANCH  10  14
ATOM     14  C   UNL     1      -5.178 -10.103  14.384  0.00  0.00    +0.020 C 
BRANCH  14  17
ATOM     17  C   UNL     1      -6.685 -10.181  14.580  0.00  0.00    +0.085 C 
BRANCH  17   9
ATOM      4  O   UNL     1      -7.622 -10.365  10.493  0.00  0.00    -0.377 OA
ATOM      9  N   UNL     1      -7.363  -9.979  13.302  0.00  0.00    -0.298 NA
ATOM     19  C   UNL     1      -7.811 -11.262  12.740  0.00  0.00    +0.112 C 
ATOM     20  C   UNL     1      -6.483  -9.291  12.348  0.00  0.00    +0.112 C 
ATOM     22  C   UNL     1      -8.503 -11.027  11.400  0.00  0.00    +0.175 C 
ATOM     23  C   UNL     1      -7.208  -9.103  11.018  0.00  0.00    +0.175 C 
ENDBRANCH  17   9
ENDBRANCH  14  17
ENDBRANCH  10  14
BRANCH  11  16
ATOM     16  C   UNL     1      -4.443 -10.950  17.220  0.00  0.00    +0.124 C 
BRANCH  16  21
ATOM      7  O   UNL     1      -5.409 -12.699  18.616  0.00  0.00    -0.251 OA
ATOM     21  C   UNL     1      -4.467 -11.981  18.315  0.00  0.00    +0.305 C 
BRANCH  21   6
ATOM      6  O   UNL     1      -3.266 -12.009  18.946  0.00  0.00    -0.481 OA
ATOM     31  H   UNL     1      -3.311 -11.603  19.837  0.00  0.00    +0.295 HD
ENDBRANCH  21   6
ENDBRANCH  16  21
ENDBRANCH  11  16
TORSDOF 8
ENDMDL
MODEL 3
REMARK VINA RESULT:      -6.2     23.469     26.664
REMARK  Name = 25312971
REMARK  8 active torsions:
REMARK  status: ('A' for Active; 'I' for Inactive)
REMARK    1  A    between atoms: O_6  and  C_21
REMARK    2  A    between atoms: N_9  and  C_17
REMARK    3  A    between atoms: C_10  and  C_14
REMARK    4  A    between atoms: C_11  and  C_16
REMARK    5  A    between atoms: C_14  and  C_17
REMARK    6  A    between atoms: C_16  and  C_21
REMARK    7  A    between atoms: C_18  and  C_24
REMARK    8  A    between atoms: C_29  and  C_30
REMARK                            x       y       z     vdW  Elec       q    Type
REMARK                         _______ _______ _______ _____ _____    ______ ____
ROOT
ATOM      5  O   UNL     1      10.726   9.882   5.635  0.00  0.00    -0.270 OA
ATOM      8  N   UNL     1       9.657   8.544   4.040  0.00  0.00    -0.297 N 
ATOM     10  C   UNL     1       9.695   6.600   2.493  0.00  0.00    +0.011 C 
ATOM     11  C   UNL     1       9.880   7.592   1.315  0.00  0.00    +0.006 C 
ATOM     12  C   UNL     1       8.973   7.301   3.659  0.00  0.00    +0.112 C 
ATOM     13  C   UNL     1      10.556   8.895   1.774  0.00  0.00    +0.023 C 
ATOM     15  C   UNL     1       9.819   9.513   2.958  0.00  0.00    +0.108 C 
ATOM     18  C   UNL     1      10.147   8.845   5.314  0.00  0.00    +0.247 C 
ENDROOT
BRANCH  18  24
ATOM     24  C   UNL     1       9.967   7.848   6.375  0.00  0.00    +0.037 A 
ATOM     25  C   UNL     1       8.842   7.900   7.198  0.00  0.00    +0.013 A 
ATOM     26  C   UNL     1      10.922   6.850   6.561  0.00  0.00    +0.013 A 
ATOM     27  C   UNL     1       8.673   6.953   8.209  0.00  0.00    +0.013 A 
ATOM     28  C   UNL     1      10.753   5.903   7.572  0.00  0.00    +0.013 A 
ATOM     29  C   UNL     1       9.628   5.954   8.395  0.00  0.00    +0.055 A 
BRANCH  29  30
ATOM      1  F   UNL     1      10.435   4.966  10.418  0.00  0.00    -0.166 F 
ATOM      2  F   UNL     1       9.426   3.664   8.999  0.00  0.00    -0.166 F 
ATOM      3  F   UNL     1       8.284   5.091  10.175  0.00  0.00    -0.166 F 
ATOM     30  C   UNL     1       9.446   4.942   9.475  0.00  0.00    +0.417 C 
ENDBRANCH  29  30
ENDBRANCH  18  24
BRANCH  10  14
ATOM     14  C   UNL     1      11.002   5.963   2.980  0.00  0.00    +0.020 C 
BRANCH  14  17
ATOM     17  C   UNL     1      11.097   4.511   2.532  0.00  0.00    +0.085 C 
BRANCH  17   9
ATOM      4  O   UNL     1      14.532   4.679   0.126  0.00  0.00    -0.377 OA
ATOM      9  N   UNL     1      12.430   4.244   1.996  0.00  0.00    -0.298 NA
ATOM     19  C   UNL     1      13.265   5.453   2.045  0.00  0.00    +0.112 C 
ATOM     20  C   UNL     1      12.346   3.746   0.615  0.00  0.00    +0.112 C 
ATOM     22  C   UNL     1      14.645   5.153   1.468  0.00  0.00    +0.175 C 
ATOM     23  C   UNL     1      13.748   3.486   0.073  0.00  0.00    +0.175 C 
ENDBRANCH  17   9
ENDBRANCH  14  17
ENDBRANCH  10  14
BRANCH  11  16
ATOM     16  C   UNL     1      10.629   6.984   0.130  0.00  0.00    +0.124 C 
BRANCH  16  21
ATOM      7  O   UNL     1       9.501   5.048  -0.828  0.00  0.00    -0.251 OA
ATOM     21  C   UNL     1       9.700   6.253  -0.799  0.00  0.00    +0.305 C 
BRANCH  21   6
ATOM      6  O   UNL     1       9.093   7.138  -1.629  0.00  0.00    -0.481 OA
ATOM     31  H   UNL     1       8.122   6.999  -1.666  0.00  0.00    +0.295 HD
ENDBRANCH  21   6
ENDBRANCH  16  21
ENDBRANCH  11  16
TORSDOF 8
ENDMDL
MODEL 4
REMARK VINA RESULT:      -6.1     24.841     27.856
REMARK  Name = 25312971
REMARK  8 active torsions:
REMARK  status: ('A' for Active; 'I' for Inactive)
REMARK    1  A    between atoms: O_6  and  C_21
REMARK    2  A    between atoms: N_9  and  C_17
REMARK    3  A    between atoms: C_10  and  C_14
REMARK    4  A    between atoms: C_11  and  C_16
REMARK    5  A    between atoms: C_14  and  C_17
REMARK    6  A    between atoms: C_16  and  C_21
REMARK    7  A    between atoms: C_18  and  C_24
REMARK    8  A    between atoms: C_29  and  C_30
REMARK                            x       y       z     vdW  Elec       q    Type
REMARK                         _______ _______ _______ _____ _____    ______ ____
ROOT
ATOM      5  O   UNL     1      10.327   4.098  -0.179  0.00  0.00    -0.270 OA
ATOM      8  N   UNL     1      12.506   3.889   0.649  0.00  0.00    -0.297 N 
ATOM     10  C   UNL     1      14.682   4.924   1.258  0.00  0.00    +0.011 C 
ATOM     11  C   UNL     1      15.282   4.333  -0.044  0.00  0.00    +0.006 C 
ATOM     12  C   UNL     1      13.493   4.064   1.724  0.00  0.00    +0.112 C 
ATOM     13  C   UNL     1      14.204   4.125  -1.120  0.00  0.00    +0.023 C 
ATOM     15  C   UNL     1      13.036   3.304  -0.581  0.00  0.00    +0.108 C 
ATOM     18  C   UNL     1      11.155   4.236   0.721  0.00  0.00    +0.247 C 
ENDROOT
BRANCH  18  24
ATOM     24  C   UNL     1      10.659   4.822   1.972  0.00  0.00    +0.037 A 
ATOM     25  C   UNL     1      10.762   4.108   3.166  0.00  0.00    +0.013 A 
ATOM     26  C   UNL     1      10.083   6.091   1.966  0.00  0.00    +0.013 A 
ATOM     27  C   UNL     1      10.288   4.664   4.355  0.00  0.00    +0.013 A 
ATOM     28  C   UNL     1       9.610   6.648   3.154  0.00  0.00    +0.013 A 
ATOM     29  C   UNL     1       9.713   5.934   4.348  0.00  0.00    +0.055 A 
BRANCH  29  30
ATOM      1  F   UNL     1       9.480   5.773   6.724  0.00  0.00    -0.166 F 
ATOM      2  F   UNL     1       7.853   6.697   5.618  0.00  0.00    -0.166 F 
ATOM      3  F   UNL     1       9.728   7.760   5.893  0.00  0.00    -0.166 F 
ATOM     30  C   UNL     1       9.207   6.529   5.619  0.00  0.00    +0.417 C 
ENDBRANCH  29  30
ENDBRANCH  18  24
BRANCH  10  14
ATOM     14  C   UNL     1      14.262   6.394   1.137  0.00  0.00    +0.020 C 
BRANCH  14  17
ATOM     17  C   UNL     1      15.067   7.268   2.088  0.00  0.00    +0.085 C 
BRANCH  17   9
ATOM      4  O   UNL     1      13.862   8.253   5.986  0.00  0.00    -0.377 OA
ATOM      9  N   UNL     1      14.522   7.164   3.439  0.00  0.00    -0.298 NA
ATOM     19  C   UNL     1      13.381   8.074   3.614  0.00  0.00    +0.112 C 
ATOM     20  C   UNL     1      15.556   7.455   4.442  0.00  0.00    +0.112 C 
ATOM     22  C   UNL     1      12.838   7.958   5.035  0.00  0.00    +0.175 C 
ATOM     23  C   UNL     1      14.961   7.352   5.844  0.00  0.00    +0.175 C 
ENDBRANCH  17   9
ENDBRANCH  14  17
ENDBRANCH  10  14
BRANCH  11  16
ATOM     16  C   UNL     1      16.445   5.156  -0.597  0.00  0.00    +0.124 C 
BRANCH  16  21
ATOM      7  O   UNL     1      17.383   4.590  -2.774  0.00  0.00    -0.251 OA
ATOM     21  C   UNL     1      17.268   4.368  -1.578  0.00  0.00    +0.305 C 
BRANCH  21   6
ATOM      6  O   UNL     1      17.886   3.344  -0.938  0.00  0.00    -0.481 OA
ATOM     31  H   UNL     1      18.558   2.910  -1.505  0.00  0.00    +0.295 HD
ENDBRANCH  21   6
ENDBRANCH  16  21
ENDBRANCH  11  16
TORSDOF 8
ENDMDL
MODEL 5
REMARK VINA RESULT:      -6.0      3.109      6.948
REMARK  Name = 25312971
REMARK  8 active torsions:
REMARK  status: ('A' for Active; 'I' for Inactive)
REMARK    1  A    between atoms: O_6  and  C_21
REMARK    2  A    between atoms: N_9  and  C_17
REMARK    3  A    between atoms: C_10  and  C_14
REMARK    4  A    between atoms: C_11  and  C_16
REMARK    5  A    between atoms: C_14  and  C_17
REMARK    6  A    between atoms: C_16  and  C_21
REMARK    7  A    between atoms: C_18  and  C_24
REMARK    8  A    between atoms: C_29  and  C_30
REMARK                            x       y       z     vdW  Elec       q    Type
REMARK                         _______ _______ _______ _____ _____    ______ ____
ROOT
ATOM      5  O   UNL     1      -8.404 -11.093  18.793  0.00  0.00    -0.270 OA
ATOM      8  N   UNL     1      -6.583 -10.078  17.731  0.00  0.00    -0.297 N 
ATOM     10  C   UNL     1      -5.055  -9.908  15.778  0.00  0.00    +0.011 C 
ATOM     11  C   UNL     1      -3.969 -10.633  16.615  0.00  0.00    +0.006 C 
ATOM     12  C   UNL     1      -6.032  -9.172  16.714  0.00  0.00    +0.112 C 
ATOM     13  C   UNL     1      -4.594 -11.531  17.695  0.00  0.00    +0.023 C 
ATOM     15  C   UNL     1      -5.584 -10.753  18.557  0.00  0.00    +0.108 C 
ATOM     18  C   UNL     1      -7.940 -10.330  17.947  0.00  0.00    +0.247 C 
ENDROOT
BRANCH  18  24
ATOM     24  C   UNL     1      -8.914  -9.635  17.098  0.00  0.00    +0.037 A 
ATOM     25  C   UNL     1      -9.385  -8.374  17.464  0.00  0.00    +0.013 A 
ATOM     26  C   UNL     1      -9.370 -10.236  15.925  0.00  0.00    +0.013 A 
ATOM     27  C   UNL     1     -10.313  -7.715  16.658  0.00  0.00    +0.013 A 
ATOM     28  C   UNL     1     -10.297  -9.577  15.119  0.00  0.00    +0.013 A 
ATOM     29  C   UNL     1     -10.769  -8.316  15.485  0.00  0.00    +0.055 A 
BRANCH  29  30
ATOM      1  F   UNL     1     -11.679  -6.249  14.698  0.00  0.00    -0.166 F 
ATOM      2  F   UNL     1     -13.050  -7.918  14.947  0.00  0.00    -0.166 F 
ATOM      3  F   UNL     1     -11.637  -7.902  13.295  0.00  0.00    -0.166 F 
ATOM     30  C   UNL     1     -11.761  -7.611  14.623  0.00  0.00    +0.417 C 
ENDBRANCH  29  30
ENDBRANCH  18  24
BRANCH  10  14
ATOM     14  C   UNL     1      -5.824 -10.830  14.824  0.00  0.00    +0.020 C 
BRANCH  14  17
ATOM     17  C   UNL     1      -5.965 -10.192  13.449  0.00  0.00    +0.085 C 
BRANCH  17   9
ATOM      4  O   UNL     1      -3.333 -11.160  10.327  0.00  0.00    -0.377 OA
ATOM      9  N   UNL     1      -4.739 -10.392  12.680  0.00  0.00    -0.298 NA
ATOM     19  C   UNL     1      -4.733  -9.547  11.478  0.00  0.00    +0.112 C 
ATOM     20  C   UNL     1      -4.585 -11.804  12.303  0.00  0.00    +0.112 C 
ATOM     22  C   UNL     1      -3.450  -9.783  10.684  0.00  0.00    +0.175 C 
ATOM     23  C   UNL     1      -3.305 -11.987  11.491  0.00  0.00    +0.175 C 
ENDBRANCH  17   9
ENDBRANCH  14  17
ENDBRANCH  10  14
BRANCH  11  16
ATOM     16  C   UNL     1      -2.982 -11.425  15.759  0.00  0.00    +0.124 C 
BRANCH  16  21
ATOM      7  O   UNL     1      -0.782 -10.397  15.963  0.00  0.00    -0.251 OA
ATOM     21  C   UNL     1      -1.813 -10.581  15.333  0.00  0.00    +0.305 C 
BRANCH  21   6
ATOM      6  O   UNL     1      -2.062 -10.033  14.117  0.00  0.00    -0.481 OA
ATOM     31  H   UNL     1      -2.093  -9.054  14.156  0.00  0.00    +0.295 HD
ENDBRANCH  21   6
ENDBRANCH  16  21
ENDBRANCH  11  16
TORSDOF 8
ENDMDL
MODEL 6
REMARK VINA RESULT:      -6.0      4.327      7.248
REMARK  Name = 25312971
REMARK  8 active torsions:
REMARK  status: ('A' for Active; 'I' for Inactive)
REMARK    1  A    between atoms: O_6  and  C_21
REMARK    2  A    between atoms: N_9  and  C_17
REMARK    3  A    between atoms: C_10  and  C_14
REMARK    4  A    between atoms: C_11  and  C_16
REMARK    5  A    between atoms: C_14  and  C_17
REMARK    6  A    between atoms: C_16  and  C_21
REMARK    7  A    between atoms: C_18  and  C_24
REMARK    8  A    between atoms: C_29  and  C_30
REMARK                            x       y       z     vdW  Elec       q    Type
REMARK                         _______ _______ _______ _____ _____    ______ ____
ROOT
ATOM      5  O   UNL     1      -6.583 -11.549  20.436  0.00  0.00    -0.270 OA
ATOM      8  N   UNL     1      -8.384 -11.713  18.951  0.00  0.00    -0.297 N 
ATOM     10  C   UNL     1      -9.995 -10.632  17.399  0.00  0.00    +0.011 C 
ATOM     11  C   UNL     1     -11.083 -10.770  18.496  0.00  0.00    +0.006 C 
ATOM     12  C   UNL     1      -8.924 -11.722  17.585  0.00  0.00    +0.112 C 
ATOM     13  C   UNL     1     -10.466 -10.803  19.904  0.00  0.00    +0.023 C 
ATOM     15  C   UNL     1      -9.382 -11.873  20.006  0.00  0.00    +0.108 C 
ATOM     18  C   UNL     1      -7.038 -11.563  19.292  0.00  0.00    +0.247 C 
ENDROOT
BRANCH  18  24
ATOM     24  C   UNL     1      -6.064 -11.405  18.207  0.00  0.00    +0.037 A 
ATOM     25  C   UNL     1      -5.421 -12.524  17.676  0.00  0.00    +0.013 A 
ATOM     26  C   UNL     1      -5.781 -10.136  17.705  0.00  0.00    +0.013 A 
ATOM     27  C   UNL     1      -4.494 -12.373  16.645  0.00  0.00    +0.013 A 
ATOM     28  C   UNL     1      -4.854  -9.984  16.674  0.00  0.00    +0.013 A 
ATOM     29  C   UNL     1      -4.211 -11.103  16.144  0.00  0.00    +0.055 A 
BRANCH  29  30
ATOM      1  F   UNL     1      -2.138 -10.181  15.385  0.00  0.00    -0.166 F 
ATOM      2  F   UNL     1      -3.753 -10.339  13.939  0.00  0.00    -0.166 F 
ATOM      3  F   UNL     1      -2.697 -12.122  14.597  0.00  0.00    -0.166 F 
ATOM     30  C   UNL     1      -3.220 -10.941  15.041  0.00  0.00    +0.417 C 
ENDBRANCH  29  30
ENDBRANCH  18  24
BRANCH  10  14
ATOM     14  C   UNL     1      -9.342  -9.246  17.342  0.00  0.00    +0.020 C 
BRANCH  14  17
ATOM     17  C   UNL     1      -9.022  -8.855  15.906  0.00  0.00    +0.085 C 
BRANCH  17   9
ATOM      4  O   UNL     1     -12.546  -6.640  15.364  0.00  0.00    -0.377 OA
ATOM      9  N   UNL     1      -9.963  -7.835  15.449  0.00  0.00    -0.298 NA
ATOM     19  C   UNL     1     -10.492  -7.065  16.584  0.00  0.00    +0.112 C 
ATOM     20  C   UNL     1     -11.069  -8.445  14.697  0.00  0.00    +0.112 C 
ATOM     22  C   UNL     1     -11.481  -6.017  16.084  0.00  0.00    +0.175 C 
ATOM     23  C   UNL     1     -12.043  -7.363  14.240  0.00  0.00    +0.175 C 
ENDBRANCH  17   9
ENDBRANCH  14  17
ENDBRANCH  10  14
BRANCH  11  16
ATOM     16  C   UNL     1     -12.164  -9.693  18.407  0.00  0.00    +0.124 C 
BRANCH  16  21
ATOM      7  O   UNL     1     -13.542 -11.167  17.041  0.00  0.00    -0.251 OA
ATOM     21  C   UNL     1     -13.215 -10.043  17.389  0.00  0.00    +0.305 C 
BRANCH  21   6
ATOM      6  O   UNL     1     -13.769  -8.908  16.894  0.00  0.00    -0.481 OA
ATOM     31  H   UNL     1     -14.677  -8.765  17.234  0.00  0.00    +0.295 HD
ENDBRANCH  21   6
ENDBRANCH  16  21
ENDBRANCH  11  16
TORSDOF 8
ENDMDL
MODEL 7
REMARK VINA RESULT:      -6.0      2.113      4.911
REMARK  Name = 25312971
REMARK  8 active torsions:
REMARK  status: ('A' for Active; 'I' for Inactive)
REMARK    1  A    between atoms: O_6  and  C_21
REMARK    2  A    between atoms: N_9  and  C_17
REMARK    3  A    between atoms: C_10  and  C_14
REMARK    4  A    between atoms: C_11  and  C_16
REMARK    5  A    between atoms: C_14  and  C_17
REMARK    6  A    between atoms: C_16  and  C_21
REMARK    7  A    between atoms: C_18  and  C_24
REMARK    8  A    between atoms: C_29  and  C_30
REMARK                            x       y       z     vdW  Elec       q    Type
REMARK                         _______ _______ _______ _____ _____    ______ ____
ROOT
ATOM      5  O   UNL     1      -9.268 -10.499  13.176  0.00  0.00    -0.270 OA
ATOM      8  N   UNL     1      -7.799  -9.988  14.925  0.00  0.00    -0.297 N 
ATOM     10  C   UNL     1      -5.993 -10.679  16.485  0.00  0.00    +0.011 C 
ATOM     11  C   UNL     1      -7.056 -10.777  17.609  0.00  0.00    +0.006 C 
ATOM     12  C   UNL     1      -6.452  -9.669  15.417  0.00  0.00    +0.112 C 
ATOM     13  C   UNL     1      -8.455 -11.065  17.041  0.00  0.00    +0.023 C 
ATOM     15  C   UNL     1      -8.830 -10.057  15.958  0.00  0.00    +0.108 C 
ATOM     18  C   UNL     1      -8.143 -10.225  13.591  0.00  0.00    +0.247 C 
ENDROOT
BRANCH  18  24
ATOM     24  C   UNL     1      -7.082 -10.148  12.581  0.00  0.00    +0.037 A 
ATOM     25  C   UNL     1      -6.505 -11.317  12.084  0.00  0.00    +0.013 A 
ATOM     26  C   UNL     1      -6.649  -8.906  12.119  0.00  0.00    +0.013 A 
ATOM     27  C   UNL     1      -5.494 -11.243  11.125  0.00  0.00    +0.013 A 
ATOM     28  C   UNL     1      -5.639  -8.831  11.160  0.00  0.00    +0.013 A 
ATOM     29  C   UNL     1      -5.062 -10.000  10.663  0.00  0.00    +0.055 A 
BRANCH  29  30
ATOM      1  F   UNL     1      -3.643 -11.134   9.106  0.00  0.00    -0.166 F 
ATOM      2  F   UNL     1      -2.822  -9.404  10.135  0.00  0.00    -0.166 F 
ATOM      3  F   UNL     1      -4.302  -9.139   8.565  0.00  0.00    -0.166 F 
ATOM     30  C   UNL     1      -3.982  -9.921   9.637  0.00  0.00    +0.417 C 
ENDBRANCH  29  30
ENDBRANCH  18  24
BRANCH  10  14
ATOM     14  C   UNL     1      -5.650 -12.024  15.834  0.00  0.00    +0.020 C 
BRANCH  14  17
ATOM     17  C   UNL     1      -4.159 -12.315  15.942  0.00  0.00    +0.085 C 
BRANCH  17   9
ATOM      4  O   UNL     1      -1.122 -10.198  13.965  0.00  0.00    -0.377 OA
ATOM      9  N   UNL     1      -3.396 -11.227  15.333  0.00  0.00    -0.298 NA
ATOM     19  C   UNL     1      -3.182 -11.479  13.901  0.00  0.00    +0.112 C 
ATOM     20  C   UNL     1      -2.105 -11.053  16.012  0.00  0.00    +0.112 C 
ATOM     22  C   UNL     1      -2.373 -10.338  13.290  0.00  0.00    +0.175 C 
ATOM     23  C   UNL     1      -1.322  -9.921  15.352  0.00  0.00    +0.175 C 
ENDBRANCH  17   9
ENDBRANCH  14  17
ENDBRANCH  10  14
BRANCH  11  16
ATOM     16  C   UNL     1      -6.693 -11.795  18.690  0.00  0.00    +0.124 C 
BRANCH  16  21
ATOM      7  O   UNL     1      -5.748 -11.623  20.930  0.00  0.00    -0.251 OA
ATOM     21  C   UNL     1      -6.354 -11.125  19.993  0.00  0.00    +0.305 C 
BRANCH  21   6
ATOM      6  O   UNL     1      -6.826  -9.853  19.991  0.00  0.00    -0.481 OA
ATOM     31  H   UNL     1      -6.824  -9.463  19.091  0.00  0.00    +0.295 HD
ENDBRANCH  21   6
ENDBRANCH  16  21
ENDBRANCH  11  16
TORSDOF 8
ENDMDL
MODEL 8
REMARK VINA RESULT:      -5.8     30.617     32.205
REMARK  Name = 25312971
REMARK  8 active torsions:
REMARK  status: ('A' for Active; 'I' for Inactive)
REMARK    1  A    between atoms: O_6  and  C_21
REMARK    2  A    between atoms: N_9  and  C_17
REMARK    3  A    between atoms: C_10  and  C_14
REMARK    4  A    between atoms: C_11  and  C_16
REMARK    5  A    between atoms: C_14  and  C_17
REMARK    6  A    between atoms: C_16  and  C_21
REMARK    7  A    between atoms: C_18  and  C_24
REMARK    8  A    between atoms: C_29  and  C_30
REMARK                            x       y       z     vdW  Elec       q    Type
REMARK                         _______ _______ _______ _____ _____    ______ ____
ROOT
ATOM      5  O   UNL     1      -4.252   7.782  40.847  0.00  0.00    -0.270 OA
ATOM      8  N   UNL     1      -3.872   8.173  38.572  0.00  0.00    -0.297 N 
ATOM     10  C   UNL     1      -2.753   9.471  36.772  0.00  0.00    +0.011 C 
ATOM     11  C   UNL     1      -4.097  10.201  36.517  0.00  0.00    +0.006 C 
ATOM     12  C   UNL     1      -3.018   8.081  37.379  0.00  0.00    +0.112 C 
ATOM     13  C   UNL     1      -4.973  10.230  37.780  0.00  0.00    +0.023 C 
ATOM     15  C   UNL     1      -5.160   8.829  38.356  0.00  0.00    +0.108 C 
ATOM     18  C   UNL     1      -3.543   7.701  39.845  0.00  0.00    +0.247 C 
ENDROOT
BRANCH  18  24
ATOM     24  C   UNL     1      -2.241   7.049  40.024  0.00  0.00    +0.037 A 
ATOM     25  C   UNL     1      -2.133   5.662  39.912  0.00  0.00    +0.013 A 
ATOM     26  C   UNL     1      -1.112   7.815  40.309  0.00  0.00    +0.013 A 
ATOM     27  C   UNL     1      -0.896   5.043  40.085  0.00  0.00    +0.013 A 
ATOM     28  C   UNL     1       0.126   7.196  40.481  0.00  0.00    +0.013 A 
ATOM     29  C   UNL     1       0.234   5.810  40.369  0.00  0.00    +0.055 A 
BRANCH  29  30
ATOM      1  F   UNL     1       2.591   6.026  40.714  0.00  0.00    -0.166 F 
ATOM      2  F   UNL     1       1.905   4.364  39.492  0.00  0.00    -0.166 F 
ATOM      3  F   UNL     1       1.613   4.330  41.645  0.00  0.00    -0.166 F 
ATOM     30  C   UNL     1       1.557   5.147  40.553  0.00  0.00    +0.417 C 
ENDBRANCH  29  30
ENDBRANCH  18  24
BRANCH  10  14
ATOM     14  C   UNL     1      -1.774  10.259  37.652  0.00  0.00    +0.020 C 
BRANCH  14  17
ATOM     17  C   UNL     1      -0.340  10.054  37.186  0.00  0.00    +0.085 C 
BRANCH  17   9
ATOM      4  O   UNL     1      -0.249  13.653  35.028  0.00  0.00    -0.377 OA
ATOM      9  N   UNL     1       0.145  11.264  36.526  0.00  0.00    -0.298 NA
ATOM     19  C   UNL     1      -0.447  12.464  37.134  0.00  0.00    +0.112 C 
ATOM     20  C   UNL     1      -0.155  11.229  35.088  0.00  0.00    +0.112 C 
ATOM     22  C   UNL     1       0.063  13.713  36.420  0.00  0.00    +0.175 C 
ATOM     23  C   UNL     1       0.350  12.506  34.422  0.00  0.00    +0.175 C 
ENDBRANCH  17   9
ENDBRANCH  14  17
ENDBRANCH  10  14
BRANCH  11  16
ATOM     16  C   UNL     1      -3.917  11.610  35.953  0.00  0.00    +0.124 C 
BRANCH  16  21
ATOM      7  O   UNL     1      -4.090  12.363  33.642  0.00  0.00    -0.251 OA
ATOM     21  C   UNL     1      -4.547  11.749  34.595  0.00  0.00    +0.305 C 
BRANCH  21   6
ATOM      6  O   UNL     1      -5.727  11.081  34.566  0.00  0.00    -0.481 OA
ATOM     31  H   UNL     1      -5.599  10.109  34.580  0.00  0.00    +0.295 HD
ENDBRANCH  21   6
ENDBRANCH  16  21
ENDBRANCH  11  16
TORSDOF 8
ENDMDL
MODEL 9
REMARK VINA RESULT:      -5.7     21.304     24.625
REMARK  Name = 25312971
REMARK  8 active torsions:
REMARK  status: ('A' for Active; 'I' for Inactive)
REMARK    1  A    between atoms: O_6  and  C_21
REMARK    2  A    between atoms: N_9  and  C_17
REMARK    3  A    between atoms: C_10  and  C_14
REMARK    4  A    between atoms: C_11  and  C_16
REMARK    5  A    between atoms: C_14  and  C_17
REMARK    6  A    between atoms: C_16  and  C_21
REMARK    7  A    between atoms: C_18  and  C_24
REMARK    8  A    between atoms: C_29  and  C_30
REMARK                            x       y       z     vdW  Elec       q    Type
REMARK                         _______ _______ _______ _____ _____    ______ ____
ROOT
ATOM      5  O   UNL     1     -15.325  12.227  23.291  0.00  0.00    -0.270 OA
ATOM      8  N   UNL     1     -15.368   9.953  22.739  0.00  0.00    -0.297 N 
ATOM     10  C   UNL     1     -14.387   8.016  21.531  0.00  0.00    +0.011 C 
ATOM     11  C   UNL     1     -15.532   8.134  20.492  0.00  0.00    +0.006 C 
ATOM     12  C   UNL     1     -14.847   8.587  22.885  0.00  0.00    +0.112 C 
ATOM     13  C   UNL     1     -16.075   9.570  20.410  0.00  0.00    +0.023 C 
ATOM     15  C   UNL     1     -16.470  10.091  21.789  0.00  0.00    +0.108 C 
ATOM     18  C   UNL     1     -14.896  11.080  23.415  0.00  0.00    +0.247 C 
ENDROOT
BRANCH  18  24
ATOM     24  C   UNL     1     -13.788  10.904  24.361  0.00  0.00    +0.037 A 
ATOM     25  C   UNL     1     -14.040  10.439  25.652  0.00  0.00    +0.013 A 
ATOM     26  C   UNL     1     -12.484  11.201  23.969  0.00  0.00    +0.013 A 
ATOM     27  C   UNL     1     -12.986  10.273  26.552  0.00  0.00    +0.013 A 
ATOM     28  C   UNL     1     -11.430  11.035  24.868  0.00  0.00    +0.013 A 
ATOM     29  C   UNL     1     -11.682  10.570  26.159  0.00  0.00    +0.055 A 
BRANCH  29  30
ATOM      1  F   UNL     1     -10.624   9.229  27.834  0.00  0.00    -0.166 F 
ATOM      2  F   UNL     1     -10.498  11.388  28.052  0.00  0.00    -0.166 F 
ATOM      3  F   UNL     1      -9.326  10.375  26.527  0.00  0.00    -0.166 F 
ATOM     30  C   UNL     1     -10.556  10.393  27.121  0.00  0.00    +0.417 C 
ENDBRANCH  29  30
ENDBRANCH  18  24
BRANCH  10  14
ATOM     14  C   UNL     1     -13.076   8.679  21.090  0.00  0.00    +0.020 C 
BRANCH  14  17
ATOM     17  C   UNL     1     -11.997   7.635  20.839  0.00  0.00    +0.085 C 
BRANCH  17   9
ATOM      4  O   UNL     1     -10.577   9.465  17.339  0.00  0.00    -0.377 OA
ATOM      9  N   UNL     1     -11.105   8.089  19.775  0.00  0.00    -0.298 NA
ATOM     19  C   UNL     1     -11.073   9.558  19.713  0.00  0.00    +0.112 C 
ATOM     20  C   UNL     1     -11.518   7.539  18.477  0.00  0.00    +0.112 C 
ATOM     22  C   UNL     1     -10.146  10.009  18.587  0.00  0.00    +0.175 C 
ATOM     23  C   UNL     1     -10.580   8.037  17.381  0.00  0.00    +0.175 C 
ENDBRANCH  17   9
ENDBRANCH  14  17
ENDBRANCH  10  14
BRANCH  11  16
ATOM     16  C   UNL     1     -15.139   7.626  19.105  0.00  0.00    +0.124 C 
BRANCH  16  21
ATOM      7  O   UNL     1     -16.565   7.546  17.131  0.00  0.00    -0.251 OA
ATOM     21  C   UNL     1     -16.343   7.239  18.293  0.00  0.00    +0.305 C 
BRANCH  21   6
ATOM      6  O   UNL     1     -17.179   6.479  19.045  0.00  0.00    -0.481 OA
ATOM     31  H   UNL     1     -18.065   6.391  18.633  0.00  0.00    +0.295 HD
ENDBRANCH  21   6
ENDBRANCH  16  21
ENDBRANCH  11  16
TORSDOF 8
ENDMDL
MODEL 10
REMARK VINA RESULT:      -5.6     27.901     29.818
REMARK  Name = 25312971
REMARK  8 active torsions:
REMARK  status: ('A' for Active; 'I' for Inactive)
REMARK    1  A    between atoms: O_6  and  C_21
REMARK    2  A    between atoms: N_9  and  C_17
REMARK    3  A    between atoms: C_10  and  C_14
REMARK    4  A    between atoms: C_11  and  C_16
REMARK    5  A    between atoms: C_14  and  C_17
REMARK    6  A    between atoms: C_16  and  C_21
REMARK    7  A    between atoms: C_18  and  C_24
REMARK    8  A    between atoms: C_29  and  C_30
REMARK                            x       y       z     vdW  Elec       q    Type
REMARK                         _______ _______ _______ _____ _____    ______ ____
ROOT
ATOM      5  O   UNL     1     -13.667  10.989  32.176  0.00  0.00    -0.270 OA
ATOM      8  N   UNL     1     -11.393  10.439  32.124  0.00  0.00    -0.297 N 
ATOM     10  C   UNL     1      -9.212  10.201  33.291  0.00  0.00    +0.011 C 
ATOM     11  C   UNL     1      -8.753  11.520  32.617  0.00  0.00    +0.006 C 
ATOM     12  C   UNL     1     -10.288   9.519  32.426  0.00  0.00    +0.112 C 
ATOM     13  C   UNL     1      -9.947  12.427  32.278  0.00  0.00    +0.023 C 
ATOM     15  C   UNL     1     -10.995  11.678  31.459  0.00  0.00    +0.108 C 
ATOM     18  C   UNL     1     -12.740  10.218  32.422  0.00  0.00    +0.247 C 
ENDROOT
BRANCH  18  24
ATOM     24  C   UNL     1     -13.102   8.963  33.089  0.00  0.00    +0.037 A 
ATOM     25  C   UNL     1     -13.643   7.910  32.351  0.00  0.00    +0.013 A 
ATOM     26  C   UNL     1     -12.906   8.823  34.462  0.00  0.00    +0.013 A 
ATOM     27  C   UNL     1     -13.990   6.718  32.986  0.00  0.00    +0.013 A 
ATOM     28  C   UNL     1     -13.252   7.630  35.098  0.00  0.00    +0.013 A 
ATOM     29  C   UNL     1     -13.793   6.578  34.360  0.00  0.00    +0.055 A 
BRANCH  29  30
ATOM      1  F   UNL     1     -15.492   5.209  35.341  0.00  0.00    -0.166 F 
ATOM      2  F   UNL     1     -13.507   5.128  36.223  0.00  0.00    -0.166 F 
ATOM      3  F   UNL     1     -13.887   4.188  34.300  0.00  0.00    -0.166 F 
ATOM     30  C   UNL     1     -14.163   5.302  35.039  0.00  0.00    +0.417 C 
ENDBRANCH  29  30
ENDBRANCH  18  24
BRANCH  10  14
ATOM     14  C   UNL     1      -9.717  10.380  34.728  0.00  0.00    +0.020 C 
BRANCH  14  17
ATOM     17  C   UNL     1      -8.953   9.478  35.687  0.00  0.00    +0.085 C 
BRANCH  17   9
ATOM      4  O   UNL     1     -10.919   9.097  39.376  0.00  0.00    -0.377 OA
ATOM      9  N   UNL     1      -9.848   9.002  36.740  0.00  0.00    -0.298 NA
ATOM     19  C   UNL     1     -10.776  10.064  37.155  0.00  0.00    +0.112 C 
ATOM     20  C   UNL     1      -9.081   8.523  37.898  0.00  0.00    +0.112 C 
ATOM     22  C   UNL     1     -11.691   9.548  38.263  0.00  0.00    +0.175 C 
ATOM     23  C   UNL     1     -10.037   8.043  38.988  0.00  0.00    +0.175 C 
ENDBRANCH  17   9
ENDBRANCH  14  17
ENDBRANCH  10  14
BRANCH  11  16
ATOM     16  C   UNL     1      -7.713  12.282  33.437  0.00  0.00    +0.124 C 
BRANCH  16  21
ATOM      7  O   UNL     1      -5.931  13.799  32.755  0.00  0.00    -0.251 OA
ATOM     21  C   UNL     1      -6.584  12.782  32.578  0.00  0.00    +0.305 C 
BRANCH  21   6
ATOM      6  O   UNL     1      -6.380  11.925  31.546  0.00  0.00    -0.481 OA
ATOM     31  H   UNL     1      -5.531  11.442  31.632  0.00  0.00    +0.295 HD
ENDBRANCH  21   6
ENDBRANCH  16  21
ENDBRANCH  11  16
TORSDOF 8
ENDMDL
