MODEL 1
REMARK VINA RESULT:      -6.9      0.000      0.000
REMARK  Name = 25391134
REMARK  9 active torsions:
REMARK  status: ('A' for Active; 'I' for Inactive)
REMARK    1  A    between atoms: N_8  and  C_24
REMARK    2  A    between atoms: N_9  and  C_26
REMARK    3  A    between atoms: C_12  and  C_18
REMARK    4  A    between atoms: C_13  and  C_22
REMARK    5  A    between atoms: C_24  and  C_25
REMARK    6  A    between atoms: C_24  and  C_28
REMARK    7  A    between atoms: C_25  and  C_27
REMARK    8  A    between atoms: C_26  and  C_32
REMARK    9  A    between atoms: C_26  and  C_33
REMARK                            x       y       z     vdW  Elec       q    Type
REMARK                         _______ _______ _______ _____ _____    ______ ____
ROOT
ATOM      1  O   UNL     1      -7.033  -9.776  15.501  0.00  0.00    -0.275 OA
ATOM      3  O   UNL     1      -3.922  -9.715   9.260  0.00  0.00    -0.253 OA
ATOM      5  N   UNL     1      -7.052 -10.184  13.212  0.00  0.00    -0.287 N 
ATOM      6  N   UNL     1      -5.699 -10.312  10.633  0.00  0.00    -0.282 N 
ATOM      9  N   UNL     1      -5.213 -11.522   8.666  0.00  0.00    -0.297 N 
ATOM     13  C   UNL     1      -5.710  -9.627  13.024  0.00  0.00    +0.179 C 
ATOM     14  C   UNL     1      -7.767 -10.609  12.003  0.00  0.00    +0.127 C 
ATOM     17  C   UNL     1      -5.426  -9.227  11.577  0.00  0.00    +0.141 C 
ATOM     18  C   UNL     1      -7.632 -10.133  14.483  0.00  0.00    +0.219 C 
ATOM     19  C   UNL     1      -6.838 -11.185  10.940  0.00  0.00    +0.128 C 
ATOM     23  C   UNL     1      -4.876 -10.460   9.500  0.00  0.00    +0.303 C 
ATOM     40  H   UNL     1      -5.911 -12.197   8.958  0.00  0.00    +0.150 HD
ENDROOT
BRANCH  18  12
ATOM      7  N   UNL     1     -10.504  -8.873  16.509  0.00  0.00    -0.316 NA
ATOM     12  C   UNL     1      -9.071 -10.555  14.581  0.00  0.00    +0.078 C 
ATOM     15  C   UNL     1     -10.002  -9.420  14.150  0.00  0.00    +0.028 C 
ATOM     16  C   UNL     1      -9.405 -11.030  15.997  0.00  0.00    +0.028 C 
ATOM     20  C   UNL     1     -10.111  -8.325  15.212  0.00  0.00    +0.081 C 
ATOM     21  C   UNL     1      -9.539  -9.866  16.981  0.00  0.00    +0.081 C 
ATOM     38  H   UNL     1     -10.567  -8.117  17.189  0.00  0.00    +0.122 HD
ENDBRANCH  18  12
BRANCH  13  22
ATOM      2  O   UNL     1      -4.646 -11.765  12.948  0.00  0.00    -0.274 OA
ATOM      8  N   UNL     1      -3.978 -10.232  14.567  0.00  0.00    -0.302 N 
ATOM     22  C   UNL     1      -4.727 -10.664  13.486  0.00  0.00    +0.236 C 
ATOM     39  H   UNL     1      -4.102  -9.283  14.909  0.00  0.00    +0.150 HD
BRANCH   8  24
ATOM     24  C   UNL     1      -2.977 -11.050  15.213  0.00  0.00    +0.163 C 
BRANCH  24  28
ATOM      4  O   UNL     1      -1.344  -9.745  13.975  0.00  0.00    -0.274 OA
ATOM     11  N   UNL     1      -0.788 -10.496  16.072  0.00  0.00    -0.328 N 
ATOM     28  C   UNL     1      -1.633 -10.373  14.990  0.00  0.00    +0.231 C 
ATOM     42  H   UNL     1      -1.048 -10.998  16.915  0.00  0.00    +0.145 HD
ATOM     43  H   UNL     1       0.138 -10.079  16.061  0.00  0.00    +0.145 HD
ENDBRANCH  24  28
BRANCH  24  25
ATOM     25  C   UNL     1      -3.248 -11.219  16.712  0.00  0.00    +0.069 C 
BRANCH  25  27
ATOM     10  N   UNL     1      -5.978 -13.683  16.906  0.00  0.00    -0.360 N 
ATOM     27  C   UNL     1      -4.472 -12.056  16.994  0.00  0.00    -0.020 A 
ATOM     29  C   UNL     1      -5.491 -11.771  17.946  0.00  0.00    +0.003 A 
ATOM     30  C   UNL     1      -4.800 -13.238  16.371  0.00  0.00    +0.087 A 
ATOM     31  C   UNL     1      -6.424 -12.807  17.869  0.00  0.00    +0.047 A 
ATOM     34  C   UNL     1      -5.710 -10.728  18.867  0.00  0.00    +0.010 A 
ATOM     35  C   UNL     1      -7.569 -12.853  18.672  0.00  0.00    +0.026 A 
ATOM     36  C   UNL     1      -6.853 -10.760  19.676  0.00  0.00    +0.001 A 
ATOM     37  C   UNL     1      -7.766 -11.808  19.579  0.00  0.00    +0.002 A 
ATOM     41  H   UNL     1      -6.454 -14.531  16.631  0.00  0.00    +0.165 HD
ENDBRANCH  25  27
ENDBRANCH  24  25
ENDBRANCH   8  24
ENDBRANCH  13  22
BRANCH   9  26
ATOM     26  C   UNL     1      -4.470 -11.822   7.465  0.00  0.00    +0.068 C 
ATOM     32  C   UNL     1      -5.185 -11.257   6.244  0.00  0.00    +0.027 C 
ATOM     33  C   UNL     1      -4.254 -13.325   7.331  0.00  0.00    +0.027 C 
ENDBRANCH   9  26
TORSDOF 7
ENDMDL
MODEL 2
REMARK VINA RESULT:      -6.7      3.777      8.400
REMARK  Name = 25391134
REMARK  9 active torsions:
REMARK  status: ('A' for Active; 'I' for Inactive)
REMARK    1  A    between atoms: N_8  and  C_24
REMARK    2  A    between atoms: N_9  and  C_26
REMARK    3  A    between atoms: C_12  and  C_18
REMARK    4  A    between atoms: C_13  and  C_22
REMARK    5  A    between atoms: C_24  and  C_25
REMARK    6  A    between atoms: C_24  and  C_28
REMARK    7  A    between atoms: C_25  and  C_27
REMARK    8  A    between atoms: C_26  and  C_32
REMARK    9  A    between atoms: C_26  and  C_33
REMARK                            x       y       z     vdW  Elec       q    Type
REMARK                         _______ _______ _______ _____ _____    ______ ____
ROOT
ATOM      1  O   UNL     1      -9.258  -9.526  16.621  0.00  0.00    -0.275 OA
ATOM      3  O   UNL     1      -9.955 -15.261  20.528  0.00  0.00    -0.253 OA
ATOM      5  N   UNL     1     -10.408 -10.787  18.201  0.00  0.00    -0.287 N 
ATOM      6  N   UNL     1     -10.614 -13.107  19.953  0.00  0.00    -0.282 N 
ATOM      9  N   UNL     1     -11.037 -13.982  22.103  0.00  0.00    -0.297 N 
ATOM     13  C   UNL     1      -9.482 -11.917  18.085  0.00  0.00    +0.179 C 
ATOM     14  C   UNL     1     -11.567 -10.969  19.082  0.00  0.00    +0.127 C 
ATOM     17  C   UNL     1     -10.074 -13.229  18.597  0.00  0.00    +0.141 C 
ATOM     18  C   UNL     1     -10.231  -9.681  17.363  0.00  0.00    +0.219 C 
ATOM     19  C   UNL     1     -11.254 -11.832  20.298  0.00  0.00    +0.128 C 
ATOM     23  C   UNL     1     -10.498 -14.196  20.838  0.00  0.00    +0.303 C 
ATOM     40  H   UNL     1     -11.350 -13.057  22.373  0.00  0.00    +0.150 HD
ENDROOT
BRANCH  18  12
ATOM      7  N   UNL     1     -11.640  -7.411  14.755  0.00  0.00    -0.316 NA
ATOM     12  C   UNL     1     -11.308  -8.634  17.400  0.00  0.00    +0.078 C 
ATOM     15  C   UNL     1     -12.459  -9.002  16.463  0.00  0.00    +0.028 C 
ATOM     16  C   UNL     1     -10.739  -7.255  17.054  0.00  0.00    +0.028 C 
ATOM     20  C   UNL     1     -12.104  -8.777  14.992  0.00  0.00    +0.081 C 
ATOM     21  C   UNL     1     -10.456  -7.105  15.559  0.00  0.00    +0.081 C 
ATOM     38  H   UNL     1     -11.415  -7.298  13.768  0.00  0.00    +0.122 HD
ENDBRANCH  18  12
BRANCH  13  22
ATOM      2  O   UNL     1      -8.296 -10.940  19.915  0.00  0.00    -0.274 OA
ATOM      8  N   UNL     1      -7.090 -11.992  18.224  0.00  0.00    -0.302 N 
ATOM     22  C   UNL     1      -8.244 -11.561  18.857  0.00  0.00    +0.236 C 
ATOM     39  H   UNL     1      -7.167 -12.532  17.367  0.00  0.00    +0.150 HD
BRANCH   8  24
ATOM     24  C   UNL     1      -5.765 -11.756  18.750  0.00  0.00    +0.163 C 
BRANCH  24  28
ATOM      4  O   UNL     1      -5.224 -13.753  17.477  0.00  0.00    -0.274 OA
ATOM     11  N   UNL     1      -3.695 -12.975  19.003  0.00  0.00    -0.328 N 
ATOM     28  C   UNL     1      -4.902 -12.940  18.339  0.00  0.00    +0.231 C 
ATOM     42  H   UNL     1      -3.432 -12.283  19.696  0.00  0.00    +0.145 HD
ATOM     43  H   UNL     1      -3.017 -13.708  18.813  0.00  0.00    +0.145 HD
ENDBRANCH  24  28
BRANCH  24  25
ATOM     25  C   UNL     1      -5.160 -10.448  18.229  0.00  0.00    +0.069 C 
BRANCH  25  27
ATOM     10  N   UNL     1      -5.412 -10.350  14.556  0.00  0.00    -0.360 N 
ATOM     27  C   UNL     1      -4.979 -10.444  16.730  0.00  0.00    -0.020 A 
ATOM     29  C   UNL     1      -3.751 -10.586  16.025  0.00  0.00    +0.003 A 
ATOM     30  C   UNL     1      -5.982 -10.301  15.799  0.00  0.00    +0.087 A 
ATOM     31  C   UNL     1      -4.051 -10.524  14.663  0.00  0.00    +0.047 A 
ATOM     34  C   UNL     1      -2.409 -10.762  16.417  0.00  0.00    +0.010 A 
ATOM     35  C   UNL     1      -3.072 -10.630  13.669  0.00  0.00    +0.026 A 
ATOM     36  C   UNL     1      -1.419 -10.870  15.433  0.00  0.00    +0.001 A 
ATOM     37  C   UNL     1      -1.748 -10.804  14.080  0.00  0.00    +0.002 A 
ATOM     41  H   UNL     1      -5.919 -10.273  13.684  0.00  0.00    +0.165 HD
ENDBRANCH  25  27
ENDBRANCH  24  25
ENDBRANCH   8  24
ENDBRANCH  13  22
BRANCH   9  26
ATOM     26  C   UNL     1     -10.998 -14.991  23.136  0.00  0.00    +0.068 C 
ATOM     32  C   UNL     1     -12.000 -14.662  24.236  0.00  0.00    +0.027 C 
ATOM     33  C   UNL     1      -9.588 -15.127  23.698  0.00  0.00    +0.027 C 
ENDBRANCH   9  26
TORSDOF 7
ENDMDL
MODEL 3
REMARK VINA RESULT:      -6.5      2.203      8.502
REMARK  Name = 25391134
REMARK  9 active torsions:
REMARK  status: ('A' for Active; 'I' for Inactive)
REMARK    1  A    between atoms: N_8  and  C_24
REMARK    2  A    between atoms: N_9  and  C_26
REMARK    3  A    between atoms: C_12  and  C_18
REMARK    4  A    between atoms: C_13  and  C_22
REMARK    5  A    between atoms: C_24  and  C_25
REMARK    6  A    between atoms: C_24  and  C_28
REMARK    7  A    between atoms: C_25  and  C_27
REMARK    8  A    between atoms: C_26  and  C_32
REMARK    9  A    between atoms: C_26  and  C_33
REMARK                            x       y       z     vdW  Elec       q    Type
REMARK                         _______ _______ _______ _____ _____    ______ ____
ROOT
ATOM      1  O   UNL     1      -4.630  -9.956  14.819  0.00  0.00    -0.275 OA
ATOM      3  O   UNL     1      -8.970 -11.356  20.096  0.00  0.00    -0.253 OA
ATOM      5  N   UNL     1      -5.241 -11.218  16.675  0.00  0.00    -0.287 N 
ATOM      6  N   UNL     1      -7.135 -11.906  18.780  0.00  0.00    -0.282 N 
ATOM      9  N   UNL     1      -8.348 -13.564  19.942  0.00  0.00    -0.297 N 
ATOM     13  C   UNL     1      -6.404 -10.376  16.960  0.00  0.00    +0.179 C 
ATOM     14  C   UNL     1      -4.952 -12.295  17.629  0.00  0.00    +0.127 C 
ATOM     17  C   UNL     1      -6.902 -10.512  18.398  0.00  0.00    +0.141 C 
ATOM     18  C   UNL     1      -4.391 -10.861  15.622  0.00  0.00    +0.219 C 
ATOM     19  C   UNL     1      -6.214 -12.906  18.227  0.00  0.00    +0.128 C 
ATOM     23  C   UNL     1      -8.206 -12.213  19.642  0.00  0.00    +0.303 C 
ATOM     40  H   UNL     1      -7.795 -14.255  19.448  0.00  0.00    +0.150 HD
ENDROOT
BRANCH  18  12
ATOM      7  N   UNL     1      -1.012 -10.015  14.280  0.00  0.00    -0.316 NA
ATOM     12  C   UNL     1      -3.123 -11.655  15.486  0.00  0.00    +0.078 C 
ATOM     15  C   UNL     1      -1.996 -11.027  16.310  0.00  0.00    +0.028 C 
ATOM     16  C   UNL     1      -2.717 -11.788  14.017  0.00  0.00    +0.028 C 
ATOM     20  C   UNL     1      -1.434  -9.764  15.657  0.00  0.00    +0.081 C 
ATOM     21  C   UNL     1      -2.126 -10.491  13.460  0.00  0.00    +0.081 C 
ATOM     38  H   UNL     1      -0.643  -9.153  13.879  0.00  0.00    +0.122 HD
ENDBRANCH  18  12
BRANCH  13  22
ATOM      2  O   UNL     1      -8.016 -11.869  16.021  0.00  0.00    -0.274 OA
ATOM      8  N   UNL     1      -7.765  -9.750  15.088  0.00  0.00    -0.302 N 
ATOM     22  C   UNL     1      -7.484 -10.762  15.991  0.00  0.00    +0.236 C 
ATOM     39  H   UNL     1      -7.289  -8.858  15.180  0.00  0.00    +0.150 HD
BRANCH   8  24
ATOM     24  C   UNL     1      -8.750  -9.878  14.039  0.00  0.00    +0.163 C 
BRANCH  24  28
ATOM      4  O   UNL     1     -11.091  -9.229  14.077  0.00  0.00    -0.274 OA
ATOM     11  N   UNL     1      -9.581  -7.965  15.258  0.00  0.00    -0.328 N 
ATOM     28  C   UNL     1      -9.935  -9.006  14.427  0.00  0.00    +0.231 C 
ATOM     42  H   UNL     1      -8.624  -7.806  15.558  0.00  0.00    +0.145 HD
ATOM     43  H   UNL     1     -10.279  -7.313  15.603  0.00  0.00    +0.145 HD
ENDBRANCH  24  28
BRANCH  24  25
ATOM     25  C   UNL     1      -8.199  -9.453  12.673  0.00  0.00    +0.069 C 
BRANCH  25  27
ATOM     10  N   UNL     1      -5.876 -12.167  11.775  0.00  0.00    -0.360 N 
ATOM     27  C   UNL     1      -7.095 -10.357  12.182  0.00  0.00    -0.020 A 
ATOM     29  C   UNL     1      -5.943  -9.962  11.445  0.00  0.00    +0.003 A 
ATOM     30  C   UNL     1      -7.025 -11.718  12.369  0.00  0.00    +0.087 A 
ATOM     31  C   UNL     1      -5.195 -11.117  11.204  0.00  0.00    +0.047 A 
ATOM     34  C   UNL     1      -5.462  -8.730  10.960  0.00  0.00    +0.010 A 
ATOM     35  C   UNL     1      -3.987 -11.100  10.498  0.00  0.00    +0.026 A 
ATOM     36  C   UNL     1      -4.255  -8.698  10.252  0.00  0.00    +0.001 A 
ATOM     37  C   UNL     1      -3.530  -9.867  10.025  0.00  0.00    +0.002 A 
ATOM     41  H   UNL     1      -5.571 -13.131  11.762  0.00  0.00    +0.165 HD
ENDBRANCH  25  27
ENDBRANCH  24  25
ENDBRANCH   8  24
ENDBRANCH  13  22
BRANCH   9  26
ATOM     26  C   UNL     1      -9.398 -14.054  20.804  0.00  0.00    +0.068 C 
ATOM     32  C   UNL     1      -8.853 -15.117  21.750  0.00  0.00    +0.027 C 
ATOM     33  C   UNL     1     -10.560 -14.592  19.978  0.00  0.00    +0.027 C 
ENDBRANCH   9  26
TORSDOF 7
ENDMDL
MODEL 4
REMARK VINA RESULT:      -6.5     23.728     27.930
REMARK  Name = 25391134
REMARK  9 active torsions:
REMARK  status: ('A' for Active; 'I' for Inactive)
REMARK    1  A    between atoms: N_8  and  C_24
REMARK    2  A    between atoms: N_9  and  C_26
REMARK    3  A    between atoms: C_12  and  C_18
REMARK    4  A    between atoms: C_13  and  C_22
REMARK    5  A    between atoms: C_24  and  C_25
REMARK    6  A    between atoms: C_24  and  C_28
REMARK    7  A    between atoms: C_25  and  C_27
REMARK    8  A    between atoms: C_26  and  C_32
REMARK    9  A    between atoms: C_26  and  C_33
REMARK                            x       y       z     vdW  Elec       q    Type
REMARK                         _______ _______ _______ _____ _____    ______ ____
ROOT
ATOM      1  O   UNL     1     -13.825   9.679  30.397  0.00  0.00    -0.275 OA
ATOM      3  O   UNL     1     -12.768   8.843  37.240  0.00  0.00    -0.253 OA
ATOM      5  N   UNL     1     -12.568  10.028  32.322  0.00  0.00    -0.287 N 
ATOM      6  N   UNL     1     -12.039   9.542  35.147  0.00  0.00    -0.282 N 
ATOM      9  N   UNL     1     -10.506   8.957  36.842  0.00  0.00    -0.297 N 
ATOM     13  C   UNL     1     -13.545   9.350  33.176  0.00  0.00    +0.179 C 
ATOM     14  C   UNL     1     -11.415  10.642  32.992  0.00  0.00    +0.127 C 
ATOM     17  C   UNL     1     -13.406   9.719  34.652  0.00  0.00    +0.141 C 
ATOM     18  C   UNL     1     -12.857  10.193  30.963  0.00  0.00    +0.219 C 
ATOM     19  C   UNL     1     -10.952   9.851  34.210  0.00  0.00    +0.128 C 
ATOM     23  C   UNL     1     -11.839   9.097  36.468  0.00  0.00    +0.303 C 
ATOM     40  H   UNL     1      -9.771   9.039  36.149  0.00  0.00    +0.150 HD
ENDROOT
BRANCH  18  12
ATOM      7  N   UNL     1     -13.151  11.917  27.665  0.00  0.00    -0.316 NA
ATOM     12  C   UNL     1     -11.906  11.047  30.174  0.00  0.00    +0.078 C 
ATOM     15  C   UNL     1     -12.470  12.455  29.980  0.00  0.00    +0.028 C 
ATOM     16  C   UNL     1     -11.581  10.398  28.826  0.00  0.00    +0.028 C 
ATOM     20  C   UNL     1     -13.586  12.495  28.935  0.00  0.00    +0.081 C 
ATOM     21  C   UNL     1     -12.735  10.524  27.830  0.00  0.00    +0.081 C 
ATOM     38  H   UNL     1     -13.917  11.962  26.995  0.00  0.00    +0.122 HD
ENDBRANCH  18  12
BRANCH  13  22
ATOM      2  O   UNL     1     -12.391   7.415  32.379  0.00  0.00    -0.274 OA
ATOM      8  N   UNL     1     -14.392   7.136  33.537  0.00  0.00    -0.302 N 
ATOM     22  C   UNL     1     -13.358   7.872  32.983  0.00  0.00    +0.236 C 
ATOM     39  H   UNL     1     -15.124   7.618  34.049  0.00  0.00    +0.150 HD
BRANCH   8  24
ATOM     24  C   UNL     1     -14.460   5.694  33.468  0.00  0.00    +0.163 C 
BRANCH  24  28
ATOM      4  O   UNL     1     -16.522   5.483  34.736  0.00  0.00    -0.274 OA
ATOM     11  N   UNL     1     -14.631   4.454  35.535  0.00  0.00    -0.328 N 
ATOM     28  C   UNL     1     -15.324   5.231  34.632  0.00  0.00    +0.231 C 
ATOM     42  H   UNL     1     -13.646   4.235  35.424  0.00  0.00    +0.145 HD
ATOM     43  H   UNL     1     -15.093   4.068  36.353  0.00  0.00    +0.145 HD
ENDBRANCH  24  28
BRANCH  24  25
ATOM     25  C   UNL     1     -15.047   5.205  32.140  0.00  0.00    +0.069 C 
BRANCH  25  27
ATOM     10  N   UNL     1     -13.015   2.223  31.402  0.00  0.00    -0.360 N 
ATOM     27  C   UNL     1     -14.436   3.906  31.673  0.00  0.00    -0.020 A 
ATOM     29  C   UNL     1     -15.027   2.963  30.787  0.00  0.00    +0.003 A 
ATOM     30  C   UNL     1     -13.199   3.424  32.035  0.00  0.00    +0.087 A 
ATOM     31  C   UNL     1     -14.114   1.917  30.633  0.00  0.00    +0.047 A 
ATOM     34  C   UNL     1     -16.254   2.899  30.097  0.00  0.00    +0.010 A 
ATOM     35  C   UNL     1     -14.369   0.806  29.823  0.00  0.00    +0.026 A 
ATOM     36  C   UNL     1     -16.522   1.792  29.282  0.00  0.00    +0.001 A 
ATOM     37  C   UNL     1     -15.592   0.763  29.149  0.00  0.00    +0.002 A 
ATOM     41  H   UNL     1     -12.189   1.647  31.486  0.00  0.00    +0.165 HD
ENDBRANCH  25  27
ENDBRANCH  24  25
ENDBRANCH   8  24
ENDBRANCH  13  22
BRANCH   9  26
ATOM     26  C   UNL     1     -10.121   8.504  38.159  0.00  0.00    +0.068 C 
ATOM     32  C   UNL     1      -8.746   9.049  38.525  0.00  0.00    +0.027 C 
ATOM     33  C   UNL     1     -10.148   6.981  38.230  0.00  0.00    +0.027 C 
ENDBRANCH   9  26
TORSDOF 7
ENDMDL
MODEL 5
REMARK VINA RESULT:      -6.5      2.713      7.980
REMARK  Name = 25391134
REMARK  9 active torsions:
REMARK  status: ('A' for Active; 'I' for Inactive)
REMARK    1  A    between atoms: N_8  and  C_24
REMARK    2  A    between atoms: N_9  and  C_26
REMARK    3  A    between atoms: C_12  and  C_18
REMARK    4  A    between atoms: C_13  and  C_22
REMARK    5  A    between atoms: C_24  and  C_25
REMARK    6  A    between atoms: C_24  and  C_28
REMARK    7  A    between atoms: C_25  and  C_27
REMARK    8  A    between atoms: C_26  and  C_32
REMARK    9  A    between atoms: C_26  and  C_33
REMARK                            x       y       z     vdW  Elec       q    Type
REMARK                         _______ _______ _______ _____ _____    ______ ____
ROOT
ATOM      1  O   UNL     1      -2.915 -12.488  14.686  0.00  0.00    -0.275 OA
ATOM      3  O   UNL     1      -6.817 -11.603  20.398  0.00  0.00    -0.253 OA
ATOM      5  N   UNL     1      -4.642 -13.150  16.096  0.00  0.00    -0.287 N 
ATOM      6  N   UNL     1      -6.378 -12.691  18.392  0.00  0.00    -0.282 N 
ATOM      9  N   UNL     1      -8.558 -12.619  19.292  0.00  0.00    -0.297 N 
ATOM     13  C   UNL     1      -4.369 -12.080  17.058  0.00  0.00    +0.179 C 
ATOM     14  C   UNL     1      -5.693 -14.110  16.453  0.00  0.00    +0.127 C 
ATOM     17  C   UNL     1      -4.953 -12.358  18.442  0.00  0.00    +0.141 C 
ATOM     18  C   UNL     1      -3.800 -13.293  14.988  0.00  0.00    +0.219 C 
ATOM     19  C   UNL     1      -6.835 -13.470  17.235  0.00  0.00    +0.128 C 
ATOM     23  C   UNL     1      -7.222 -12.258  19.433  0.00  0.00    +0.303 C 
ATOM     40  H   UNL     1      -8.884 -13.035  18.427  0.00  0.00    +0.150 HD
ENDROOT
BRANCH  18  12
ATOM      7  N   UNL     1      -1.795 -14.850  12.251  0.00  0.00    -0.316 NA
ATOM     12  C   UNL     1      -4.019 -14.508  14.133  0.00  0.00    +0.078 C 
ATOM     15  C   UNL     1      -2.906 -15.536  14.351  0.00  0.00    +0.028 C 
ATOM     16  C   UNL     1      -4.125 -14.123  12.655  0.00  0.00    +0.028 C 
ATOM     20  C   UNL     1      -1.598 -15.128  13.673  0.00  0.00    +0.081 C 
ATOM     21  C   UNL     1      -2.765 -13.773  12.049  0.00  0.00    +0.081 C 
ATOM     38  H   UNL     1      -0.905 -14.583  11.833  0.00  0.00    +0.122 HD
ENDBRANCH  18  12
BRANCH  13  22
ATOM      2  O   UNL     1      -4.690  -9.713  16.980  0.00  0.00    -0.274 OA
ATOM      8  N   UNL     1      -5.765 -11.049  15.405  0.00  0.00    -0.302 N 
ATOM     22  C   UNL     1      -4.940 -10.812  16.491  0.00  0.00    +0.236 C 
ATOM     39  H   UNL     1      -5.871 -11.998  15.060  0.00  0.00    +0.150 HD
BRANCH   8  24
ATOM     24  C   UNL     1      -6.455  -9.997  14.692  0.00  0.00    +0.163 C 
BRANCH  24  28
ATOM      4  O   UNL     1      -5.208 -10.886  12.805  0.00  0.00    -0.274 OA
ATOM     11  N   UNL     1      -6.381  -8.931  12.525  0.00  0.00    -0.328 N 
ATOM     28  C   UNL     1      -5.926 -10.002  13.265  0.00  0.00    +0.231 C 
ATOM     42  H   UNL     1      -6.993  -8.220  12.911  0.00  0.00    +0.145 HD
ATOM     43  H   UNL     1      -6.114  -8.821  11.552  0.00  0.00    +0.145 HD
ENDBRANCH  24  28
BRANCH  24  25
ATOM     25  C   UNL     1      -7.974 -10.193  14.699  0.00  0.00    +0.069 C 
BRANCH  25  27
ATOM     10  N   UNL     1      -9.152  -8.308  17.636  0.00  0.00    -0.360 N 
ATOM     27  C   UNL     1      -8.670  -9.337  15.730  0.00  0.00    -0.020 A 
ATOM     29  C   UNL     1      -9.863  -8.585  15.540  0.00  0.00    +0.003 A 
ATOM     30  C   UNL     1      -8.257  -9.146  17.028  0.00  0.00    +0.087 A 
ATOM     31  C   UNL     1     -10.144  -7.950  16.751  0.00  0.00    +0.047 A 
ATOM     34  C   UNL     1     -10.735  -8.385  14.451  0.00  0.00    +0.010 A 
ATOM     35  C   UNL     1     -11.256  -7.120  16.929  0.00  0.00    +0.026 A 
ATOM     36  C   UNL     1     -11.852  -7.557  14.614  0.00  0.00    +0.001 A 
ATOM     37  C   UNL     1     -12.106  -6.935  15.835  0.00  0.00    +0.002 A 
ATOM     41  H   UNL     1      -9.094  -7.999  18.597  0.00  0.00    +0.165 HD
ENDBRANCH  25  27
ENDBRANCH  24  25
ENDBRANCH   8  24
ENDBRANCH  13  22
BRANCH   9  26
ATOM     26  C   UNL     1      -9.561 -12.252  20.265  0.00  0.00    +0.068 C 
ATOM     32  C   UNL     1     -10.470 -13.437  20.562  0.00  0.00    +0.027 C 
ATOM     33  C   UNL     1     -10.362 -11.050  19.779  0.00  0.00    +0.027 C 
ENDBRANCH   9  26
TORSDOF 7
ENDMDL
MODEL 6
REMARK VINA RESULT:      -6.4      2.802      5.027
REMARK  Name = 25391134
REMARK  9 active torsions:
REMARK  status: ('A' for Active; 'I' for Inactive)
REMARK    1  A    between atoms: N_8  and  C_24
REMARK    2  A    between atoms: N_9  and  C_26
REMARK    3  A    between atoms: C_12  and  C_18
REMARK    4  A    between atoms: C_13  and  C_22
REMARK    5  A    between atoms: C_24  and  C_25
REMARK    6  A    between atoms: C_24  and  C_28
REMARK    7  A    between atoms: C_25  and  C_27
REMARK    8  A    between atoms: C_26  and  C_32
REMARK    9  A    between atoms: C_26  and  C_33
REMARK                            x       y       z     vdW  Elec       q    Type
REMARK                         _______ _______ _______ _____ _____    ______ ____
ROOT
ATOM      1  O   UNL     1      -6.406  -8.771  11.376  0.00  0.00    -0.275 OA
ATOM      3  O   UNL     1      -1.191 -12.597  13.984  0.00  0.00    -0.253 OA
ATOM      5  N   UNL     1      -4.828 -10.468  11.179  0.00  0.00    -0.287 N 
ATOM      6  N   UNL     1      -2.761 -12.174  12.324  0.00  0.00    -0.282 N 
ATOM      9  N   UNL     1      -1.889 -14.341  12.659  0.00  0.00    -0.297 N 
ATOM     13  C   UNL     1      -4.255 -10.194  12.499  0.00  0.00    +0.179 C 
ATOM     14  C   UNL     1      -4.168 -11.500  10.372  0.00  0.00    +0.127 C 
ATOM     17  C   UNL     1      -2.844 -10.753  12.665  0.00  0.00    +0.141 C 
ATOM     18  C   UNL     1      -5.849  -9.640  10.701  0.00  0.00    +0.219 C 
ATOM     19  C   UNL     1      -3.606 -12.639  11.217  0.00  0.00    +0.128 C 
ATOM     23  C   UNL     1      -1.893 -13.007  13.056  0.00  0.00    +0.303 C 
ATOM     40  H   UNL     1      -2.573 -14.675  11.990  0.00  0.00    +0.150 HD
ENDROOT
BRANCH  18  12
ATOM      7  N   UNL     1      -9.125  -9.239   8.955  0.00  0.00    -0.316 NA
ATOM     12  C   UNL     1      -6.276  -9.857   9.277  0.00  0.00    +0.078 C 
ATOM     15  C   UNL     1      -6.769  -8.550   8.651  0.00  0.00    +0.028 C 
ATOM     16  C   UNL     1      -7.348 -10.945   9.188  0.00  0.00    +0.028 C 
ATOM     20  C   UNL     1      -8.160  -8.158   9.149  0.00  0.00    +0.081 C 
ATOM     21  C   UNL     1      -8.715 -10.451   9.664  0.00  0.00    +0.081 C 
ATOM     38  H   UNL     1     -10.038  -8.941   9.296  0.00  0.00    +0.122 HD
ENDBRANCH  18  12
BRANCH  13  22
ATOM      2  O   UNL     1      -6.227 -11.348  13.199  0.00  0.00    -0.274 OA
ATOM      8  N   UNL     1      -4.722 -10.607  14.814  0.00  0.00    -0.302 N 
ATOM     22  C   UNL     1      -5.182 -10.789  13.520  0.00  0.00    +0.236 C 
ATOM     39  H   UNL     1      -3.822 -10.161  14.962  0.00  0.00    +0.150 HD
BRANCH   8  24
ATOM     24  C   UNL     1      -5.441 -11.067  15.980  0.00  0.00    +0.163 C 
BRANCH  24  28
ATOM      4  O   UNL     1      -5.092 -13.094  17.273  0.00  0.00    -0.274 OA
ATOM     11  N   UNL     1      -3.274 -12.086  16.298  0.00  0.00    -0.328 N 
ATOM     28  C   UNL     1      -4.614 -12.181  16.605  0.00  0.00    +0.231 C 
ATOM     42  H   UNL     1      -2.896 -11.339  15.725  0.00  0.00    +0.145 HD
ATOM     43  H   UNL     1      -2.611 -12.775  16.641  0.00  0.00    +0.145 HD
ENDBRANCH  24  28
BRANCH  24  25
ATOM     25  C   UNL     1      -5.678  -9.944  16.995  0.00  0.00    +0.069 C 
BRANCH  25  27
ATOM     10  N   UNL     1      -8.416 -10.736  19.327  0.00  0.00    -0.360 N 
ATOM     27  C   UNL     1      -6.962 -10.117  17.770  0.00  0.00    -0.020 A 
ATOM     29  C   UNL     1      -8.238  -9.592  17.421  0.00  0.00    +0.003 A 
ATOM     30  C   UNL     1      -7.103 -10.815  18.946  0.00  0.00    +0.087 A 
ATOM     31  C   UNL     1      -9.132  -9.996  18.415  0.00  0.00    +0.047 A 
ATOM     34  C   UNL     1      -8.719  -8.810  16.352  0.00  0.00    +0.010 A 
ATOM     35  C   UNL     1     -10.489  -9.655  18.393  0.00  0.00    +0.026 A 
ATOM     36  C   UNL     1     -10.075  -8.462  16.317  0.00  0.00    +0.001 A 
ATOM     37  C   UNL     1     -10.944  -8.879  17.324  0.00  0.00    +0.002 A 
ATOM     41  H   UNL     1      -8.804 -11.162  20.158  0.00  0.00    +0.165 HD
ENDBRANCH  25  27
ENDBRANCH  24  25
ENDBRANCH   8  24
ENDBRANCH  13  22
BRANCH   9  26
ATOM     26  C   UNL     1      -1.063 -15.333  13.306  0.00  0.00    +0.068 C 
ATOM     32  C   UNL     1      -0.594 -16.373  12.296  0.00  0.00    +0.027 C 
ATOM     33  C   UNL     1      -1.816 -15.985  14.460  0.00  0.00    +0.027 C 
ENDBRANCH   9  26
TORSDOF 7
ENDMDL
MODEL 7
REMARK VINA RESULT:      -6.4     25.666     28.957
REMARK  Name = 25391134
REMARK  9 active torsions:
REMARK  status: ('A' for Active; 'I' for Inactive)
REMARK    1  A    between atoms: N_8  and  C_24
REMARK    2  A    between atoms: N_9  and  C_26
REMARK    3  A    between atoms: C_12  and  C_18
REMARK    4  A    between atoms: C_13  and  C_22
REMARK    5  A    between atoms: C_24  and  C_25
REMARK    6  A    between atoms: C_24  and  C_28
REMARK    7  A    between atoms: C_25  and  C_27
REMARK    8  A    between atoms: C_26  and  C_32
REMARK    9  A    between atoms: C_26  and  C_33
REMARK                            x       y       z     vdW  Elec       q    Type
REMARK                         _______ _______ _______ _____ _____    ______ ____
ROOT
ATOM      1  O   UNL     1      11.028   6.544   5.451  0.00  0.00    -0.275 OA
ATOM      3  O   UNL     1      17.140   8.615   2.808  0.00  0.00    -0.253 OA
ATOM      5  N   UNL     1      12.529   8.219   4.860  0.00  0.00    -0.287 N 
ATOM      6  N   UNL     1      15.011   9.093   3.607  0.00  0.00    -0.282 N 
ATOM      9  N   UNL     1      16.116  10.556   2.121  0.00  0.00    -0.297 N 
ATOM     13  C   UNL     1      13.554   7.259   4.444  0.00  0.00    +0.179 C 
ATOM     14  C   UNL     1      12.895   9.639   4.818  0.00  0.00    +0.127 C 
ATOM     17  C   UNL     1      14.956   7.865   4.401  0.00  0.00    +0.141 C 
ATOM     18  C   UNL     1      11.338   7.737   5.414  0.00  0.00    +0.219 C 
ATOM     19  C   UNL     1      13.836   9.972   3.666  0.00  0.00    +0.128 C 
ATOM     23  C   UNL     1      16.162   9.368   2.844  0.00  0.00    +0.303 C 
ATOM     40  H   UNL     1      15.252  11.081   2.061  0.00  0.00    +0.150 HD
ENDROOT
BRANCH  18  12
ATOM      7  N   UNL     1       7.743   7.598   6.409  0.00  0.00    -0.316 NA
ATOM     12  C   UNL     1      10.400   8.764   5.982  0.00  0.00    +0.078 C 
ATOM     15  C   UNL     1       9.900   8.339   7.364  0.00  0.00    +0.028 C 
ATOM     16  C   UNL     1       9.228   9.017   5.031  0.00  0.00    +0.028 C 
ATOM     20  C   UNL     1       8.852   7.228   7.287  0.00  0.00    +0.081 C 
ATOM     21  C   UNL     1       8.209   7.877   5.051  0.00  0.00    +0.081 C 
ATOM     38  H   UNL     1       7.066   6.837   6.383  0.00  0.00    +0.122 HD
ENDBRANCH  18  12
BRANCH  13  22
ATOM      2  O   UNL     1      12.315   7.307   2.402  0.00  0.00    -0.274 OA
ATOM      8  N   UNL     1      13.842   5.585   2.753  0.00  0.00    -0.302 N 
ATOM     22  C   UNL     1      13.161   6.743   3.090  0.00  0.00    +0.236 C 
ATOM     39  H   UNL     1      14.552   5.225   3.384  0.00  0.00    +0.150 HD
BRANCH   8  24
ATOM     24  C   UNL     1      13.629   4.877   1.511  0.00  0.00    +0.163 C 
BRANCH  24  28
ATOM      4  O   UNL     1      15.426   3.981   0.141  0.00  0.00    -0.274 OA
ATOM     11  N   UNL     1      15.380   3.454   2.376  0.00  0.00    -0.328 N 
ATOM     28  C   UNL     1      14.884   4.060   1.241  0.00  0.00    +0.231 C 
ATOM     42  H   UNL     1      14.935   3.546   3.283  0.00  0.00    +0.145 HD
ATOM     43  H   UNL     1      16.223   2.888   2.338  0.00  0.00    +0.145 HD
ENDBRANCH  24  28
BRANCH  24  25
ATOM     25  C   UNL     1      12.400   3.965   1.568  0.00  0.00    +0.069 C 
BRANCH  25  27
ATOM     10  N   UNL     1       9.694   4.925  -0.739  0.00  0.00    -0.360 N 
ATOM     27  C   UNL     1      11.439   4.207   0.429  0.00  0.00    -0.020 A 
ATOM     29  C   UNL     1      11.562   3.717  -0.901  0.00  0.00    +0.003 A 
ATOM     30  C   UNL     1      10.281   4.946   0.497  0.00  0.00    +0.087 A 
ATOM     31  C   UNL     1      10.454   4.181  -1.613  0.00  0.00    +0.047 A 
ATOM     34  C   UNL     1      12.512   2.919  -1.570  0.00  0.00    +0.010 A 
ATOM     35  C   UNL     1      10.249   3.888  -2.966  0.00  0.00    +0.026 A 
ATOM     36  C   UNL     1      12.319   2.617  -2.923  0.00  0.00    +0.001 A 
ATOM     37  C   UNL     1      11.204   3.096  -3.609  0.00  0.00    +0.002 A 
ATOM     41  H   UNL     1       8.826   5.387  -0.976  0.00  0.00    +0.165 HD
ENDBRANCH  25  27
ENDBRANCH  24  25
ENDBRANCH   8  24
ENDBRANCH  13  22
BRANCH   9  26
ATOM     26  C   UNL     1      17.209  10.987   1.280  0.00  0.00    +0.068 C 
ATOM     32  C   UNL     1      17.605  12.418   1.619  0.00  0.00    +0.027 C 
ATOM     33  C   UNL     1      16.837  10.851  -0.192  0.00  0.00    +0.027 C 
ENDBRANCH   9  26
TORSDOF 7
ENDMDL
MODEL 8
REMARK VINA RESULT:      -6.4     24.569     27.833
REMARK  Name = 25391134
REMARK  9 active torsions:
REMARK  status: ('A' for Active; 'I' for Inactive)
REMARK    1  A    between atoms: N_8  and  C_24
REMARK    2  A    between atoms: N_9  and  C_26
REMARK    3  A    between atoms: C_12  and  C_18
REMARK    4  A    between atoms: C_13  and  C_22
REMARK    5  A    between atoms: C_24  and  C_25
REMARK    6  A    between atoms: C_24  and  C_28
REMARK    7  A    between atoms: C_25  and  C_27
REMARK    8  A    between atoms: C_26  and  C_32
REMARK    9  A    between atoms: C_26  and  C_33
REMARK                            x       y       z     vdW  Elec       q    Type
REMARK                         _______ _______ _______ _____ _____    ______ ____
ROOT
ATOM      1  O   UNL     1      10.713   3.955  -0.584  0.00  0.00    -0.275 OA
ATOM      3  O   UNL     1      14.617   9.040   2.160  0.00  0.00    -0.253 OA
ATOM      5  N   UNL     1      12.768   4.992  -0.253  0.00  0.00    -0.287 N 
ATOM      6  N   UNL     1      14.424   7.021   1.027  0.00  0.00    -0.282 N 
ATOM      9  N   UNL     1      16.381   7.568   2.225  0.00  0.00    -0.297 N 
ATOM     13  C   UNL     1      12.174   6.098   0.502  0.00  0.00    +0.179 C 
ATOM     14  C   UNL     1      14.209   5.070  -0.519  0.00  0.00    +0.127 C 
ATOM     17  C   UNL     1      13.072   7.333   0.557  0.00  0.00    +0.141 C 
ATOM     18  C   UNL     1      11.924   4.023  -0.806  0.00  0.00    +0.219 C 
ATOM     19  C   UNL     1      14.983   5.727   0.617  0.00  0.00    +0.128 C 
ATOM     23  C   UNL     1      15.106   7.958   1.827  0.00  0.00    +0.303 C 
ATOM     40  H   UNL     1      16.701   6.621   2.053  0.00  0.00    +0.150 HD
ENDROOT
BRANCH  18  12
ATOM      7  N   UNL     1      11.248   3.003  -4.333  0.00  0.00    -0.316 NA
ATOM     12  C   UNL     1      12.568   3.014  -1.714  0.00  0.00    +0.078 C 
ATOM     15  C   UNL     1      13.173   3.695  -2.944  0.00  0.00    +0.028 C 
ATOM     16  C   UNL     1      11.566   1.933  -2.125  0.00  0.00    +0.028 C 
ATOM     20  C   UNL     1      12.107   4.123  -3.953  0.00  0.00    +0.081 C 
ATOM     21  C   UNL     1      10.567   2.436  -3.169  0.00  0.00    +0.081 C 
ATOM     38  H   UNL     1      10.553   3.325  -5.006  0.00  0.00    +0.122 HD
ENDBRANCH  18  12
BRANCH  13  22
ATOM      2  O   UNL     1      12.031   4.410   2.186  0.00  0.00    -0.274 OA
ATOM      8  N   UNL     1      11.442   6.596   2.730  0.00  0.00    -0.302 N 
ATOM     22  C   UNL     1      11.888   5.592   1.886  0.00  0.00    +0.236 C 
ATOM     39  H   UNL     1      11.398   7.550   2.385  0.00  0.00    +0.150 HD
BRANCH   8  24
ATOM     24  C   UNL     1      11.078   6.365   4.109  0.00  0.00    +0.163 C 
BRANCH  24  28
ATOM      4  O   UNL     1      12.053   8.446   4.898  0.00  0.00    -0.274 OA
ATOM     11  N   UNL     1      12.736   6.477   5.862  0.00  0.00    -0.328 N 
ATOM     28  C   UNL     1      12.000   7.221   4.965  0.00  0.00    +0.231 C 
ATOM     42  H   UNL     1      12.665   5.467   5.923  0.00  0.00    +0.145 HD
ATOM     43  H   UNL     1      13.383   6.926   6.504  0.00  0.00    +0.145 HD
ENDBRANCH  24  28
BRANCH  24  25
ATOM     25  C   UNL     1       9.613   6.717   4.387  0.00  0.00    +0.069 C 
BRANCH  25  27
ATOM     10  N   UNL     1       8.769   7.849   7.789  0.00  0.00    -0.360 N 
ATOM     27  C   UNL     1       9.326   6.911   5.856  0.00  0.00    -0.020 A 
ATOM     29  C   UNL     1       9.425   5.923   6.876  0.00  0.00    +0.003 A 
ATOM     30  C   UNL     1       8.920   8.084   6.449  0.00  0.00    +0.087 A 
ATOM     31  C   UNL     1       9.071   6.538   8.078  0.00  0.00    +0.047 A 
ATOM     34  C   UNL     1       9.785   4.561   6.891  0.00  0.00    +0.010 A 
ATOM     35  C   UNL     1       9.057   5.855   9.300  0.00  0.00    +0.026 A 
ATOM     36  C   UNL     1       9.776   3.865   8.106  0.00  0.00    +0.001 A 
ATOM     37  C   UNL     1       9.417   4.505   9.291  0.00  0.00    +0.002 A 
ATOM     41  H   UNL     1       8.479   8.539   8.469  0.00  0.00    +0.165 HD
ENDBRANCH  25  27
ENDBRANCH  24  25
ENDBRANCH   8  24
ENDBRANCH  13  22
BRANCH   9  26
ATOM     26  C   UNL     1      17.217   8.405   3.055  0.00  0.00    +0.068 C 
ATOM     32  C   UNL     1      18.677   8.267   2.645  0.00  0.00    +0.027 C 
ATOM     33  C   UNL     1      17.022   8.061   4.528  0.00  0.00    +0.027 C 
ENDBRANCH   9  26
TORSDOF 7
ENDMDL
MODEL 9
REMARK VINA RESULT:      -6.2     23.956     27.982
REMARK  Name = 25391134
REMARK  9 active torsions:
REMARK  status: ('A' for Active; 'I' for Inactive)
REMARK    1  A    between atoms: N_8  and  C_24
REMARK    2  A    between atoms: N_9  and  C_26
REMARK    3  A    between atoms: C_12  and  C_18
REMARK    4  A    between atoms: C_13  and  C_22
REMARK    5  A    between atoms: C_24  and  C_25
REMARK    6  A    between atoms: C_24  and  C_28
REMARK    7  A    between atoms: C_25  and  C_27
REMARK    8  A    between atoms: C_26  and  C_32
REMARK    9  A    between atoms: C_26  and  C_33
REMARK                            x       y       z     vdW  Elec       q    Type
REMARK                         _______ _______ _______ _____ _____    ______ ____
ROOT
ATOM      1  O   UNL     1     -13.239  10.074  29.587  0.00  0.00    -0.275 OA
ATOM      3  O   UNL     1     -11.246  10.387  36.263  0.00  0.00    -0.253 OA
ATOM      5  N   UNL     1     -11.669  10.594  31.222  0.00  0.00    -0.287 N 
ATOM      6  N   UNL     1     -10.772  10.573  33.995  0.00  0.00    -0.282 N 
ATOM      9  N   UNL     1      -9.074  10.102  35.564  0.00  0.00    -0.297 N 
ATOM     13  C   UNL     1     -12.574  10.233  32.315  0.00  0.00    +0.179 C 
ATOM     14  C   UNL     1     -10.364  11.151  31.599  0.00  0.00    +0.127 C 
ATOM     17  C   UNL     1     -12.169  10.847  33.654  0.00  0.00    +0.141 C 
ATOM     18  C   UNL     1     -12.143  10.542  29.907  0.00  0.00    +0.219 C 
ATOM     19  C   UNL     1      -9.813  10.543  32.884  0.00  0.00    +0.128 C 
ATOM     23  C   UNL     1     -10.423  10.358  35.343  0.00  0.00    +0.303 C 
ATOM     40  H   UNL     1      -8.450   9.948  34.781  0.00  0.00    +0.150 HD
ENDROOT
BRANCH  18  12
ATOM      7  N   UNL     1     -12.712  11.511  26.347  0.00  0.00    -0.316 NA
ATOM     12  C   UNL     1     -11.233  11.089  28.844  0.00  0.00    +0.078 C 
ATOM     15  C   UNL     1     -11.698  12.473  28.388  0.00  0.00    +0.028 C 
ATOM     16  C   UNL     1     -11.138  10.125  27.659  0.00  0.00    +0.028 C 
ATOM     20  C   UNL     1     -12.931  12.402  27.486  0.00  0.00    +0.081 C 
ATOM     21  C   UNL     1     -12.395  10.153  26.788  0.00  0.00    +0.081 C 
ATOM     38  H   UNL     1     -13.551  11.490  25.769  0.00  0.00    +0.122 HD
ENDBRANCH  18  12
BRANCH  13  22
ATOM      2  O   UNL     1     -11.823   8.037  31.747  0.00  0.00    -0.274 OA
ATOM      8  N   UNL     1     -13.558   8.272  33.282  0.00  0.00    -0.302 N 
ATOM     22  C   UNL     1     -12.590   8.734  32.406  0.00  0.00    +0.236 C 
ATOM     39  H   UNL     1     -14.113   8.942  33.806  0.00  0.00    +0.150 HD
BRANCH   8  24
ATOM     24  C   UNL     1     -13.792   6.868  33.532  0.00  0.00    +0.163 C 
BRANCH  24  28
ATOM      4  O   UNL     1     -12.832   7.398  35.700  0.00  0.00    -0.274 OA
ATOM     11  N   UNL     1     -13.975   5.422  35.459  0.00  0.00    -0.328 N 
ATOM     28  C   UNL     1     -13.457   6.612  34.994  0.00  0.00    +0.231 C 
ATOM     42  H   UNL     1     -14.510   4.791  34.870  0.00  0.00    +0.145 HD
ATOM     43  H   UNL     1     -13.836   5.134  36.423  0.00  0.00    +0.145 HD
ENDBRANCH  24  28
BRANCH  24  25
ATOM     25  C   UNL     1     -15.240   6.461  33.236  0.00  0.00    +0.069 C 
BRANCH  25  27
ATOM     10  N   UNL     1     -15.976   4.981  29.945  0.00  0.00    -0.360 N 
ATOM     27  C   UNL     1     -15.371   5.642  31.975  0.00  0.00    -0.020 A 
ATOM     29  C   UNL     1     -14.751   4.388  31.712  0.00  0.00    +0.003 A 
ATOM     30  C   UNL     1     -16.117   5.980  30.870  0.00  0.00    +0.087 A 
ATOM     31  C   UNL     1     -15.148   3.995  30.432  0.00  0.00    +0.047 A 
ATOM     34  C   UNL     1     -13.889   3.546  32.443  0.00  0.00    +0.010 A 
ATOM     35  C   UNL     1     -14.723   2.799  29.844  0.00  0.00    +0.026 A 
ATOM     36  C   UNL     1     -13.456   2.346  31.866  0.00  0.00    +0.001 A 
ATOM     37  C   UNL     1     -13.868   1.981  30.586  0.00  0.00    +0.002 A 
ATOM     41  H   UNL     1     -16.419   4.967  29.036  0.00  0.00    +0.165 HD
ENDBRANCH  25  27
ENDBRANCH  24  25
ENDBRANCH   8  24
ENDBRANCH  13  22
BRANCH   9  26
ATOM     26  C   UNL     1      -8.546   9.852  36.886  0.00  0.00    +0.068 C 
ATOM     32  C   UNL     1      -7.521  10.917  37.256  0.00  0.00    +0.027 C 
ATOM     33  C   UNL     1      -7.943   8.454  36.965  0.00  0.00    +0.027 C 
ENDBRANCH   9  26
TORSDOF 7
ENDMDL
MODEL 10
REMARK VINA RESULT:      -6.2      2.569      8.440
REMARK  Name = 25391134
REMARK  9 active torsions:
REMARK  status: ('A' for Active; 'I' for Inactive)
REMARK    1  A    between atoms: N_8  and  C_24
REMARK    2  A    between atoms: N_9  and  C_26
REMARK    3  A    between atoms: C_12  and  C_18
REMARK    4  A    between atoms: C_13  and  C_22
REMARK    5  A    between atoms: C_24  and  C_25
REMARK    6  A    between atoms: C_24  and  C_28
REMARK    7  A    between atoms: C_25  and  C_27
REMARK    8  A    between atoms: C_26  and  C_32
REMARK    9  A    between atoms: C_26  and  C_33
REMARK                            x       y       z     vdW  Elec       q    Type
REMARK                         _______ _______ _______ _____ _____    ______ ____
ROOT
ATOM      1  O   UNL     1      -5.319  -9.883  15.002  0.00  0.00    -0.275 OA
ATOM      3  O   UNL     1     -11.565  -8.544  17.800  0.00  0.00    -0.253 OA
ATOM      5  N   UNL     1      -6.842 -10.035  16.753  0.00  0.00    -0.287 N 
ATOM      6  N   UNL     1      -9.506  -9.619  17.860  0.00  0.00    -0.282 N 
ATOM      9  N   UNL     1     -11.374 -10.491  19.007  0.00  0.00    -0.297 N 
ATOM     13  C   UNL     1      -7.836  -9.213  16.061  0.00  0.00    +0.179 C 
ATOM     14  C   UNL     1      -7.167 -10.457  18.121  0.00  0.00    +0.127 C 
ATOM     17  C   UNL     1      -8.875  -8.610  17.006  0.00  0.00    +0.141 C 
ATOM     18  C   UNL     1      -5.595 -10.237  16.151  0.00  0.00    +0.219 C 
ATOM     19  C   UNL     1      -8.655 -10.724  18.317  0.00  0.00    +0.128 C 
ATOM     23  C   UNL     1     -10.867  -9.481  18.196  0.00  0.00    +0.303 C 
ATOM     40  H   UNL     1     -10.818 -11.316  19.201  0.00  0.00    +0.150 HD
ENDROOT
BRANCH  18  12
ATOM      7  N   UNL     1      -3.012 -12.802  15.325  0.00  0.00    -0.316 NA
ATOM     12  C   UNL     1      -4.556 -10.937  16.980  0.00  0.00    +0.078 C 
ATOM     15  C   UNL     1      -3.148 -10.617  16.474  0.00  0.00    +0.028 C 
ATOM     16  C   UNL     1      -4.800 -12.448  16.998  0.00  0.00    +0.028 C 
ATOM     20  C   UNL     1      -2.813 -11.361  15.181  0.00  0.00    +0.081 C 
ATOM     21  C   UNL     1      -4.396 -13.115  15.682  0.00  0.00    +0.081 C 
ATOM     38  H   UNL     1      -2.779 -13.264  14.447  0.00  0.00    +0.122 HD
ENDBRANCH  18  12
BRANCH  13  22
ATOM      2  O   UNL     1      -8.958 -11.188  15.319  0.00  0.00    -0.274 OA
ATOM      8  N   UNL     1      -8.505  -9.503  13.778  0.00  0.00    -0.302 N 
ATOM     22  C   UNL     1      -8.501 -10.084  15.034  0.00  0.00    +0.236 C 
ATOM     39  H   UNL     1      -8.132  -8.565  13.664  0.00  0.00    +0.150 HD
BRANCH   8  24
ATOM     24  C   UNL     1      -9.066 -10.146  12.611  0.00  0.00    +0.163 C 
BRANCH  24  28
ATOM      4  O   UNL     1     -11.226  -9.188  13.176  0.00  0.00    -0.274 OA
ATOM     11  N   UNL     1     -10.540  -9.135  10.985  0.00  0.00    -0.328 N 
ATOM     28  C   UNL     1     -10.392  -9.462  12.316  0.00  0.00    +0.231 C 
ATOM     42  H   UNL     1      -9.832  -9.347  10.289  0.00  0.00    +0.145 HD
ATOM     43  H   UNL     1     -11.375  -8.662  10.655  0.00  0.00    +0.145 HD
ENDBRANCH  24  28
BRANCH  24  25
ATOM     25  C   UNL     1      -8.136 -10.054  11.397  0.00  0.00    +0.069 C 
BRANCH  25  27
ATOM     10  N   UNL     1      -5.161 -11.981  12.396  0.00  0.00    -0.360 N 
ATOM     27  C   UNL     1      -6.772 -10.646  11.658  0.00  0.00    -0.020 A 
ATOM     29  C   UNL     1      -5.526 -10.140  11.192  0.00  0.00    +0.003 A 
ATOM     30  C   UNL     1      -6.514 -11.778  12.395  0.00  0.00    +0.087 A 
ATOM     31  C   UNL     1      -4.532 -10.996  11.670  0.00  0.00    +0.047 A 
ATOM     34  C   UNL     1      -5.148  -9.031  10.409  0.00  0.00    +0.010 A 
ATOM     35  C   UNL     1      -3.173 -10.799  11.401  0.00  0.00    +0.026 A 
ATOM     36  C   UNL     1      -3.791  -8.821  10.132  0.00  0.00    +0.001 A 
ATOM     37  C   UNL     1      -2.821  -9.694  10.622  0.00  0.00    +0.002 A 
ATOM     41  H   UNL     1      -4.690 -12.744  12.865  0.00  0.00    +0.165 HD
ENDBRANCH  25  27
ENDBRANCH  24  25
ENDBRANCH   8  24
ENDBRANCH  13  22
BRANCH   9  26
ATOM     26  C   UNL     1     -12.752 -10.509  19.440  0.00  0.00    +0.068 C 
ATOM     32  C   UNL     1     -12.906  -9.746  20.750  0.00  0.00    +0.027 C 
ATOM     33  C   UNL     1     -13.251 -11.943  19.575  0.00  0.00    +0.027 C 
ENDBRANCH   9  26
TORSDOF 7
ENDMDL
